data_mof_unit_17831.cif
_audit_creation_date              2013-03-05T15:45:45-0500
_audit_creation_method            fapswitch 2.2
_symmetry_space_group_name_H-M    P1
_symmetry_Int_Tables_number       1
_space_group_crystal_system       triclinic
_cell_length_a                    18.918029
_cell_length_b                    10.971046
_cell_length_c                    18.763848
_cell_angle_alpha                 89.821055
_cell_angle_beta                  91.169239
_cell_angle_gamma                 89.689463
_cell_volume                      3893.55883442

loop_
_atom_site_label
_atom_site_type_symbol
_atom_site_description
_atom_site_fract_x
_atom_site_fract_y
_atom_site_fract_z
_atom_type_partial_charge
O1    O     O_R   0.214270 0.709000 0.827470 -0.529025
O2    O     O_R   0.785730 0.709000 0.172530 -0.529122
O3    O     O_R   0.714270 0.209000 0.827470 -0.527347
O4    O     O_R   0.285730 0.209000 0.172530 -0.529253
O5    O     O_R   0.236160 0.958490 0.823130 -0.523700
O6    O     O_R   0.763840 0.958490 0.176870 -0.523902
O7    O     O_R   0.736160 0.458490 0.823130 -0.524219
O8    O     O_R   0.263840 0.458490 0.176870 -0.523752
C1    C     C_R   0.272482 0.041219 0.854254 0.528730
C2    C     C_R   0.727458 0.041514 0.145713 0.536555
C3    C     C_R   0.772483 0.541217 0.854254 0.530132
C4    C     C_R   0.227456 0.541508 0.145710 0.537354
O9    O     O_R   0.332080 0.075470 0.831280 -0.517489
O10   O     O_R   0.667920 0.075470 0.168720 -0.515350
O11   O     O_R   0.832080 0.575470 0.831280 -0.515251
O12   O     O_R   0.167920 0.575470 0.168720 -0.514977
O13   O     O_R   0.446300 0.918110 0.826620 -0.489174
O14   O     O_R   0.553700 0.918110 0.173380 -0.487955
O15   O     O_R   0.946300 0.418110 0.826620 -0.487574
O16   O     O_R   0.053700 0.418110 0.173380 -0.487983
C5    C     C_R   0.441347 0.817116 0.863013 0.530602
C6    C     C_R   0.558305 0.817171 0.136950 0.530549
C7    C     C_R   0.941347 0.317115 0.863012 0.531212
C8    C     C_R   0.058307 0.317171 0.136950 0.530107
O17   O     O_R   0.457110 0.716200 0.831760 -0.498071
O18   O     O_R   0.542890 0.716200 0.168240 -0.497351
O19   O     O_R   0.957110 0.216200 0.831760 -0.497129
O20   O     O_R   0.042890 0.216200 0.168240 -0.497642
O21   O     O_R   0.320980 0.624310 0.823030 -0.516154
O22   O     O_R   0.679020 0.624310 0.176970 -0.514683
O23   O     O_R   0.820980 0.124310 0.823030 -0.511952
O24   O     O_R   0.179020 0.124310 0.176970 -0.514182
C9    C     C_R   0.259850 0.634288 0.850912 0.526889
C10   C     C_R   0.740233 0.634921 0.149033 0.541516
C11   C     C_R   0.759852 0.134294 0.850915 0.534598
C12   C     C_R   0.240234 0.134921 0.149033 0.542071
O25   O     O_R   0.213890 0.710430 0.665540 -0.433645
O26   O     O_R   0.786110 0.710430 0.334460 -0.470602
O27   O     O_R   0.713890 0.210430 0.665540 -0.408020
O28   O     O_R   0.286110 0.210430 0.334460 -0.475054
O29   O     O_R   0.235810 0.959820 0.673020 -0.471396
O30   O     O_R   0.764190 0.959820 0.326980 -0.493807
O31   O     O_R   0.735810 0.459820 0.673020 -0.481563
O32   O     O_R   0.264190 0.459820 0.326980 -0.496459
C13   C     C_R   0.271539 0.045559 0.646141 0.563300
C14   C     C_R   0.729645 0.048426 0.352584 0.572012
C15   C     C_R   0.771595 0.545821 0.646198 0.559243
C16   C     C_R   0.230068 0.547814 0.352296 0.579495
O33   O     O_R   0.331700 0.076900 0.669350 -0.514896
O34   O     O_R   0.668300 0.076900 0.330650 -0.522213
O35   O     O_R   0.831700 0.576900 0.669350 -0.511126
O36   O     O_R   0.168300 0.576900 0.330650 -0.519850
O37   O     O_R   0.445950 0.919440 0.676520 -0.474706
O38   O     O_R   0.554050 0.919440 0.323480 -0.465023
O39   O     O_R   0.945950 0.419440 0.676520 -0.475056
O40   O     O_R   0.054050 0.419440 0.323480 -0.463980
C17   C     C_R   0.472193 0.823613 0.647541 0.605849
C18   C     C_R   0.528656 0.824303 0.353060 0.626107
C19   C     C_R   0.972514 0.323723 0.647892 0.599140
C20   C     C_R   0.029244 0.324105 0.353467 0.626573
O41   O     O_R   0.456730 0.717630 0.669840 -0.471119
O42   O     O_R   0.543270 0.717630 0.330160 -0.475969
O43   O     O_R   0.956730 0.217630 0.669840 -0.481860
O44   O     O_R   0.043270 0.217630 0.330160 -0.471847
O45   O     O_R   0.320620 0.625640 0.672920 -0.520264
O46   O     O_R   0.679380 0.625640 0.327080 -0.515328
O47   O     O_R   0.820620 0.125640 0.672920 -0.510606
O48   O     O_R   0.179380 0.125640 0.327080 -0.513188
C21   C     C_R   0.261404 0.646356 0.640485 0.563930
C22   C     C_R   0.740156 0.636194 0.355616 0.621965
C23   C     C_R   0.773758 0.189984 0.636391 0.552709
C24   C     C_R   0.240242 0.136017 0.355548 0.622713
Cr1   Cr    Cr6+3 0.229630 0.835900 0.747350 1.096051
Cr2   Cr    Cr6+3 0.770370 0.835900 0.252650 1.070508
Cr3   Cr    Cr6+3 0.729630 0.335900 0.747350 1.096103
Cr4   Cr    Cr6+3 0.270370 0.335900 0.252650 1.068253
Cr5   Cr    Cr6+3 0.387410 0.989850 0.750850 1.075447
Cr6   Cr    Cr6+3 0.612590 0.989850 0.249150 1.082299
Cr7   Cr    Cr6+3 0.887410 0.489850 0.750850 1.073677
Cr8   Cr    Cr6+3 0.112590 0.489850 0.249150 1.083897
Cr9   Cr    Cr6+3 0.385800 0.677120 0.749340 1.063750
Cr10  Cr    Cr6+3 0.614200 0.677120 0.250660 1.067719
Cr11  Cr    Cr6+3 0.885800 0.177120 0.749340 1.062036
Cr12  Cr    Cr6+3 0.114200 0.177120 0.250660 1.070367
O49   O     O_3   0.334280 0.834290 0.749180 -0.308115
O50   O     O_3   0.665720 0.834290 0.250820 -0.306708
O51   O     O_3   0.834280 0.334290 0.749180 -0.326717
O52   O     O_3   0.165720 0.334290 0.250820 -0.308182
C25   C     C_3   0.478554 0.921624 0.035383 -0.089061
C26   C     C_3   0.519346 0.922648 0.964651 -0.091724
C27   C     C_3   0.978563 0.421631 0.035378 -0.088996
C28   C     C_3   0.019353 0.422637 0.964645 -0.091881
C29   C     C_3   0.429751 0.821305 0.005835 -0.010676
C30   C     C_3   0.569699 0.823267 0.994181 -0.011386
C31   C     C_3   0.929753 0.321317 0.005835 -0.010669
C32   C     C_3   0.069701 0.323251 0.994177 -0.011251
C33   C     C_3   0.470373 0.822186 0.936283 -0.020370
C34   C     C_3   0.529091 0.822367 0.063728 -0.020177
C35   C     C_3   0.970373 0.322182 0.936282 -0.020796
C36   C     C_3   0.029095 0.322368 0.063726 -0.020158
C37   C     C_3   0.521160 0.722774 0.964994 -0.084596
C38   C     C_3   0.479829 0.721831 0.035052 -0.084148
C39   C     C_3   0.021155 0.222764 0.964995 -0.084562
C40   C     C_3   0.979826 0.221837 0.035055 -0.084225
C41   C     C_R   0.305358 0.540088 0.961825 -0.094970
C42   C     C_R   0.695320 0.540119 0.038659 -0.092920
C43   C     C_R   0.805363 0.040107 0.961830 -0.095202
C44   C     C_R   0.195322 0.040115 0.038660 -0.092867
H1    H     H_    0.353579 0.516883 0.934638 0.189385
H2    H     H_    0.647634 0.515954 0.066324 0.189426
H3    H     H_    0.853583 0.016897 0.934642 0.189515
H4    H     H_    0.147636 0.015947 0.066324 0.189489
C45   C     C_R   0.303689 0.531377 0.036211 0.000324
C46   C     C_R   0.696666 0.530581 0.964309 -0.002133
C47   C     C_R   0.803695 0.031391 0.036216 0.000382
C48   C     C_R   0.196666 0.030579 0.964309 -0.002063
C49   C     C_R   0.242405 0.571775 0.071464 -0.006096
C50   C     C_R   0.757217 0.571892 0.928389 -0.007103
C51   C     C_R   0.742413 0.071796 0.071470 -0.006147
C52   C     C_R   0.257216 0.071895 0.928389 -0.006933
C53   C     C_R   0.185164 0.619046 0.031480 -0.092192
C54   C     C_R   0.813861 0.621190 0.967762 -0.090610
C55   C     C_R   0.685176 0.119084 0.031488 -0.092105
C56   C     C_R   0.313860 0.121197 0.967761 -0.090796
C57   C     C_R   0.185151 0.620959 0.957984 0.007369
C58   C     C_R   0.814437 0.623520 0.041264 0.003632
C59   C     C_R   0.685158 0.120988 0.957993 0.006825
C60   C     C_R   0.314437 0.123525 0.041263 0.003619
C61   C     C_R   0.247724 0.587728 0.922631 -0.004467
C62   C     C_R   0.752547 0.589083 0.077261 -0.002352
C63   C     C_R   0.747728 0.087747 0.922637 -0.005370
C64   C     C_R   0.252548 0.089083 0.077261 -0.002266
C65   C     C_R   0.509150 0.721849 0.536573 -0.067041
C66   C     C_R   0.490408 0.724544 0.463996 -0.073961
C67   C     C_R   0.013746 0.222526 0.538592 -0.067285
C68   C     C_R   0.995607 0.223076 0.465860 -0.071472
C69   C     C_R   0.499184 0.834448 0.425781 0.031294
C70   C     C_R   0.504402 0.831476 0.575945 0.035232
C71   C     C_R   0.001871 0.333368 0.427065 0.026450
C72   C     C_R   0.006197 0.332179 0.577155 0.036632
C73   C     C_R   0.503037 0.946384 0.463853 -0.070457
C74   C     C_R   0.506325 0.944622 0.539279 -0.075805
C75   C     C_R   0.004666 0.445870 0.464745 -0.074247
C76   C     C_R   0.007135 0.444888 0.540131 -0.078535
C77   C     C_R   0.211738 0.702137 0.520379 -0.012564
C78   C     C_R   0.790876 0.508113 0.452687 -0.026633
C79   C     C_R   0.717709 0.229203 0.515822 -0.019275
C80   C     C_R   0.287476 0.003567 0.452537 -0.029781
C81   C     C_R   0.216462 0.689487 0.447949 -0.172876
C82   C     C_R   0.799163 0.493630 0.525770 -0.170259
C83   C     C_R   0.715162 0.201733 0.444154 -0.156315
C84   C     C_R   0.294822 0.987480 0.525617 -0.170239
H5    H     H_    0.184628 0.747890 0.412967 0.132998
H6    H     H_    0.834086 0.422795 0.546873 0.080182
H7    H     H_    0.677276 0.249508 0.409791 0.135576
H8    H     H_    0.326958 0.912790 0.546648 0.090388
C85   C     C_R   0.253145 0.591697 0.420268 0.052209
C86   C     C_R   0.760974 0.567468 0.572370 0.038242
C87   C     C_R   0.753589 0.103206 0.418204 0.047329
C88   C     C_R   0.260302 0.066395 0.572321 0.040040
C89   C     C_R   0.295888 0.516578 0.463790 -0.126494
C90   C     C_R   0.716025 0.659056 0.548041 -0.129384
C91   C     C_R   0.803535 0.043059 0.461252 -0.113544
C92   C     C_R   0.219152 0.163199 0.548137 -0.134566
C93   C     C_R   0.296744 0.533409 0.536334 -0.177192
C94   C     C_R   0.708224 0.676144 0.475590 -0.159549
C95   C     C_R   0.812370 0.077338 0.531397 -0.163177
C96   C     C_R   0.211459 0.180621 0.475724 -0.159495
H9    H     H_    0.329713 0.474576 0.569715 0.138311
H10   H     H_    0.674250 0.749481 0.456060 0.116904
H11   H     H_    0.851482 0.028662 0.563589 0.147110
H12   H     H_    0.180180 0.257478 0.456296 0.114953
C97   C     C_R   0.253310 0.622585 0.565566 0.039112
C98   C     C_R   0.745655 0.601793 0.428397 0.045715
C99   C     C_R   0.767445 0.165673 0.560574 0.019333
C100  C     C_R   0.245732 0.102058 0.428409 0.050554
C101  C     C_2   0.351279 0.822280 0.012174 0.207618
H13   H     H_    0.317659 0.822888 0.964698 0.092908
O53   O     O_2   0.324816 0.822895 0.070906 -0.497428
C102  C     C_2   0.648157 0.824896 0.987845 0.205884
H14   H     H_    0.681762 0.826269 0.035317 0.092908
O54   O     O_2   0.674624 0.824955 0.929115 -0.506582
C103  C     C_2   0.851281 0.322300 0.012177 0.207475
H15   H     H_    0.817661 0.322911 0.964702 0.092533
O55   O     O_2   0.824821 0.322918 0.070909 -0.498136
C104  C     C_2   0.148158 0.324873 0.987832 0.205676
H16   H     H_    0.181768 0.326240 0.035302 0.092951
O56   O     O_2   0.174618 0.324935 0.929099 -0.507991
C105  C     C_2   0.161498 0.799127 0.542671 0.250330
H17   H     H_    0.161576 0.886695 0.515726 0.091010
O57   O     O_2   0.114650 0.778986 0.584703 -0.448585
C106  C     C_2   0.827420 0.421324 0.405104 0.261568
H18   H     H_    0.856912 0.345546 0.428295 0.126241
O58   O     O_2   0.824215 0.430962 0.340296 -0.449564
C107  C     C_2   0.664953 0.321179 0.538732 0.239103
H19   H     H_    0.659920 0.406344 0.509588 0.094084
O59   O     O_2   0.620998 0.297947 0.583346 -0.440001
C108  C     C_2   0.322513 0.915155 0.404802 0.255063
H20   H     H_    0.350994 0.838128 0.427860 0.129447
O60   O     O_2   0.319501 0.925276 0.340014 -0.449198
H21   H     H_    0.324892 0.439919 0.442493 0.159175
H22   H     H_    0.688362 0.717637 0.584666 0.167960
H23   H     H_    0.833235 0.965667 0.441881 0.160881
H24   H     H_    0.194194 0.225250 0.584848 0.160633
H25   H     H_    0.469010 0.997345 0.071471 0.176314
H26   H     H_    0.527147 0.000050 0.929119 0.178546
H27   H     H_    0.969029 0.497364 0.071460 0.176318
H28   H     H_    0.027155 0.500027 0.929105 0.178473
H29   H     H_    0.535165 0.643375 0.932680 0.192798
H30   H     H_    0.467365 0.641495 0.067302 0.195264
H31   H     H_    0.035153 0.143355 0.932685 0.192885
H32   H     H_    0.967356 0.141509 0.067308 0.195192
C109  C     C_2   0.368122 0.488307 0.075078 0.247027
H33   H     H_    0.375217 0.502273 0.131835 0.148506
O61   O     O_2   0.416842 0.442212 0.042966 -0.441016
C110  C     C_2   0.632550 0.485493 0.926310 0.246605
H34   H     H_    0.625053 0.497358 0.869397 0.149973
O62   O     O_2   0.584303 0.440385 0.959345 -0.438893
C111  C     C_2   0.868125 0.988305 0.075081 0.247061
H35   H     H_    0.875220 0.002257 0.131839 0.148128
O63   O     O_2   0.916845 0.942213 0.042966 -0.440752
C112  C     C_2   0.132551 0.985491 0.926310 0.246904
H36   H     H_    0.125052 0.997366 0.869398 0.150293
O64   O     O_2   0.084307 0.940371 0.959344 -0.438728
H37   H     H_    0.137084 0.647058 0.057334 0.206406
H38   H     H_    0.861220 0.650700 0.941397 0.207859
H39   H     H_    0.637100 0.147111 0.057345 0.206438
H40   H     H_    0.361216 0.150714 0.941395 0.207703
C113  C     C_2   0.117997 0.654507 0.919939 0.257510
H41   H     H_    0.108471 0.627467 0.865044 0.149435
O65   O     O_2   0.070066 0.705817 0.950684 -0.431352
C114  C     C_2   0.881639 0.658442 0.078396 0.256006
H42   H     H_    0.891800 0.633710 0.133658 0.153943
O66   O     O_2   0.929425 0.707087 0.046305 -0.432102
C115  C     C_2   0.618000 0.154527 0.919952 0.257187
H43   H     H_    0.608472 0.127484 0.865059 0.150340
O67   O     O_2   0.570069 0.205831 0.950700 -0.431709
C116  C     C_2   0.381639 0.158452 0.078394 0.255954
H44   H     H_    0.391800 0.133730 0.133657 0.153810
O68   O     O_2   0.429427 0.207086 0.046300 -0.432260
C117  C     C_2   0.537262 0.606697 0.569708 0.243209
H45   H     H_    0.532487 0.519864 0.543041 0.104014
O69   O     O_2   0.570694 0.608566 0.626071 -0.469465
C118  C     C_2   0.457641 0.615498 0.429384 0.231839
H46   H     H_    0.460332 0.526244 0.453878 0.081783
O70   O     O_2   0.422792 0.625826 0.374138 -0.474986
C119  C     C_2   0.043470 0.109808 0.573215 0.240353
H47   H     H_    0.041372 0.022203 0.547129 0.103960
O71   O     O_2   0.075255 0.114921 0.630442 -0.471257
C120  C     C_2   0.966089 0.110910 0.431741 0.229745
H48   H     H_    0.972859 0.021736 0.455610 0.079595
O72   O     O_2   0.929448 0.118059 0.377491 -0.477216
C121  C     C_2   0.501436 0.065713 0.425875 0.243202
H49   H     H_    0.534076 0.140565 0.444609 0.099486
O73   O     O_2   0.461883 0.082368 0.374479 -0.454188
C122  C     C_2   0.514145 0.060903 0.579255 0.277672
H50   H     H_    0.488417 0.143673 0.560092 0.110594
O74   O     O_2   0.551227 0.065676 0.633218 -0.429324
C123  C     C_2   0.003034 0.565101 0.426621 0.242849
H51   H     H_    0.035809 0.639846 0.445273 0.102070
O75   O     O_2   0.963311 0.581923 0.375386 -0.452633
C124  C     C_2   0.012621 0.561635 0.579894 0.281633
H52   H     H_    0.986505 0.643444 0.559831 0.115458
O76   O     O_2   0.048057 0.567786 0.634908 -0.430460

loop_
_geom_bond_atom_site_label_1
_geom_bond_atom_site_label_2
_geom_bond_distance
_ccdc_geom_bond_type
C18   O42   1.278751 A    
C119  O71   1.221533 D    
C7    C35   1.471311 S    
O4    C12   1.260973 A    
O47   Cr11  1.958592 S    
C37   C38   1.543218 S    
C6    C34   1.471239 S    
O39   C19   1.285558 A    
O20   Cr12  2.073622 S    
C35   C39   1.538404 S    
C45   C109  1.481980 S    
C76   C124  1.487356 S    
C51   C55   1.401001 A    
C66   C69   1.413227 A    
C84   C88   1.402153 A    
O1    C9    1.258372 A    
C67   C68   1.400401 A    
O46   C22   1.264424 A    
C109  H33   1.082161 S    
C102  H14   1.083945 S    
O7    C3    1.276986 A    
C91   H23   1.083440 S    
O5    C1    1.276991 A    
C80   C100  1.403332 A    
C5    O17   1.290825 A    
C32   C36   1.527787 S    
C42   C46   1.400078 A    
C88   C92   1.383277 A    
C89   H21   1.083565 S    
C110  O62   1.219969 D    
C16   O36   1.268089 A    
O25   C21   1.239188 A    
C12   C64   1.461692 S    
C11   C63   1.460861 S    
C50   C54   1.401115 A    
C121  H49   1.085198 S    
Cr3   O51   1.979351 S    
C31   C35   1.528005 S    
C55   H39   1.083063 S    
C30   C34   1.527776 S    
C120  O72   1.221866 D    
C75   C76   1.414357 A    
C54   H38   1.082808 S    
C60   C64   1.416088 A    
O8    Cr4   1.955780 S    
O23   Cr11  1.955299 S    
C118  H46   1.080910 S    
C105  O57   1.218976 D    
C117  H45   1.080813 S    
O30   C14   1.269537 A    
C85   C89   1.400567 A    
C2    O10   1.268908 A    
O32   Cr4   1.955508 S    
C81   H5    1.086815 S    
O44   Cr12  2.074299 S    
C1    O9    1.273436 A    
C2    C51   1.464673 S    
C92   H24   1.083331 S    
C65   C117  1.496573 S    
C26   H26   1.090527 S    
C71   C75   1.425039 A    
C36   C40   1.539164 S    
O11   Cr7   2.078050 S    
C4    O12   1.268904 A    
C30   C37   1.533917 S    
C102  O54   1.219676 D    
C101  O53   1.219692 D    
C34   C38   1.539158 S    
C122  O74   1.221428 D    
C115  H43   1.084593 S    
C79   C107  1.486067 S    
C108  H20   1.083924 S    
O6    Cr2   1.955780 S    
C7    O19   1.290817 A    
C27   C36   1.532037 S    
O14   C6    1.306648 A    
O3    Cr3   2.071704 S    
C48   C52   1.416721 A    
Cr4   O52   1.979544 S    
C26   C33   1.533318 S    
O47   C23   1.311284 A    
O2    Cr2   2.075894 S    
O8    C4    1.272250 A    
C56   C60   1.379326 A    
C44   H4    1.083711 S    
O2    C10   1.260975 A    
C72   C76   1.416801 A    
O42   Cr10  2.074299 S    
Cr5   O49   1.985336 S    
C65   C70   1.416864 A    
O18   Cr10  2.073622 S    
C82   H6    1.085835 S    
C78   C82   1.385610 A    
O31   Cr3   1.950326 S    
C115  O67   1.220555 D    
C68   C120  1.494582 S    
C105  H17   1.084256 S    
C13   C88   1.414764 S    
C21   C97   1.435821 S    
C68   C71   1.416916 A    
O34   Cr6   2.077429 S    
Cr7   O51   1.985336 S    
C78   C106  1.484956 S    
C56   H40   1.082806 S    
Cr9   O49   1.976077 S    
C26   C30   1.538388 S    
C74   C122  1.488451 S    
O9    Cr5   2.078050 S    
C109  O61   1.219775 D    
C28   C32   1.538385 S    
C93   H9    1.084018 S    
C67   C72   1.413859 A    
O24   Cr12  1.953918 S    
C116  O68   1.220686 D    
O30   Cr2   1.955508 S    
C94   C98   1.405274 A    
O22   C10   1.286569 A    
O26   C22   1.263494 A    
O27   Cr3   2.083014 S    
O48   Cr12  1.952142 S    
C84   H8    1.086084 S    
C92   C96   1.376200 A    
C75   C123  1.488825 S    
C110  H34   1.081772 S    
C32   C104  1.491647 S    
C43   C63   1.400547 A    
C70   C74   1.418358 A    
C39   H31   1.097271 S    
C111  H35   1.082158 S    
C121  O73   1.221183 D    
O16   Cr8   1.958019 S    
O15   C7    1.304527 A    
C38   H30   1.096967 S    
O7    Cr3   1.962796 S    
O26   Cr2   2.074529 S    
C37   H29   1.097265 S    
C120  H48   1.080594 S    
Cr10  O50   1.985290 S    
O29   Cr1   1.950326 S    
O13   C5    1.304524 A    
O40   C20   1.281868 A    
C47   C51   1.416238 A    
O43   Cr11  2.075417 S    
O12   Cr8   2.078915 S    
C83   C87   1.393994 A    
C54   C58   1.379324 A    
C58   C114  1.489747 S    
C103  H15   1.083947 S    
C53   C57   1.379146 A    
C113  H41   1.084603 S    
C28   H28   1.090517 S    
C67   C119  1.496688 S    
O46   Cr10  1.952142 S    
C103  O55   1.219691 D    
O39   Cr7   1.956761 S    
C33   C37   1.538406 S    
O45   Cr9   1.958592 S    
C31   C103  1.491696 S    
O3    C11   1.258363 A    
C91   C95   1.377139 A    
O48   C24   1.265185 A    
C43   C47   1.399751 A    
C122  H50   1.084803 S    
C48   C112  1.482464 S    
O13   Cr5   1.949576 S    
C13   O33   1.260230 A    
C69   C73   1.424109 A    
C60   C116  1.489755 S    
O36   Cr8   2.077429 S    
C30   C102  1.491650 S    
O29   C13   1.270392 A    
Cr2   O50   1.979544 S    
O15   Cr7   1.949576 S    
C22   C98   1.417344 S    
C66   C118  1.494575 S    
C46   C50   1.416725 A    
C57   C113  1.488398 S    
C45   C49   1.416236 A    
C18   C69   1.488797 S    
O25   Cr1   2.083014 S    
O14   Cr6   1.958019 S    
C9    C61   1.460849 S    
C46   C110  1.482464 S    
C90   H22   1.083050 S    
O21   Cr9   1.955299 S    
C94   H10   1.085207 S    
O28   C24   1.263212 A    
C3    O11   1.273435 A    
C57   C61   1.415323 A    
C41   C61   1.400548 A    
O37   Cr5   1.956761 S    
O38   C18   1.281002 A    
C8    O20   1.289706 A    
C87   C91   1.392646 A    
C19   O43   1.272528 A    
C40   H32   1.096965 S    
C104  O56   1.219677 D    
C123  H51   1.085282 S    
C29   C33   1.528010 S    
C55   C59   1.379137 A    
C27   C28   1.548847 S    
C31   C40   1.533929 S    
C53   H37   1.083064 S    
C95   C99   1.405216 A    
C42   H2    1.083709 S    
C41   C45   1.399752 A    
C42   C62   1.400719 A    
C118  O70   1.221732 D    
C41   H1    1.083765 S    
C116  H44   1.084125 S    
C112  O64   1.219968 D    
C44   C64   1.400722 A    
O37   C17   1.286997 A    
O22   Cr10  1.953918 S    
C82   C86   1.402364 A    
C77   C105  1.489498 S    
C114  O66   1.220687 D    
C8    C36   1.471255 S    
C29   C38   1.533931 S    
C43   H3    1.083766 S    
Cr6   O50   1.975778 S    
O21   C9    1.283264 A    
C80   C84   1.386084 A    
C77   C97   1.435230 A    
O31   C15   1.272666 A    
C123  O75   1.221033 D    
O17   Cr9   2.078637 S    
Cr11  O51   1.976077 S    
O6    C2    1.272248 A    
C15   O35   1.258127 A    
C119  H47   1.080499 S    
O24   C12   1.286573 A    
C17   O41   1.272105 A    
C124  H52   1.084831 S    
C49   C53   1.401008 A    
C47   C111  1.481980 S    
O5    Cr1   1.962796 S    
C16   C85   1.425640 S    
C14   O34   1.260789 A    
C59   C115  1.488400 S    
C83   H7    1.085879 S    
O40   Cr8   1.958060 S    
C95   H11   1.083055 S    
C25   C34   1.532030 S    
C20   O44   1.277027 A    
C73   C121  1.488465 S    
C106  H18   1.083808 S    
C44   C48   1.400081 A    
C59   C63   1.415329 A    
O19   Cr11  2.078637 S    
C25   C26   1.548847 S    
C29   C101  1.491697 S    
O1    Cr1   2.071704 S    
Cr1   O49   1.979351 S    
C113  O65   1.220554 D    
O32   C16   1.258143 A    
O41   Cr9   2.075417 S    
O33   Cr5   2.067764 S    
C80   C108  1.484980 S    
C65   C66   1.400384 A    
Cr12  O52   1.985290 S    
C81   C85   1.382937 A    
C19   C72   1.486867 S    
O45   C21   1.282804 A    
C14   C87   1.437783 S    
C78   C98   1.402688 A    
O23   C11   1.283260 A    
C25   H25   1.090010 S    
C27   H27   1.090010 S    
C107  O59   1.219262 D    
C23   C99   1.450876 S    
C17   C70   1.488877 S    
C90   C94   1.376572 A    
C79   C99   1.425902 A    
C111  O63   1.219779 D    
O10   Cr6   2.078915 S    
C25   C29   1.537879 S    
C112  H36   1.081777 S    
C15   C86   1.414894 S    
C24   C100  1.417484 S    
O35   Cr7   2.067764 S    
O4    Cr4   2.075894 S    
C5    C33   1.471311 S    
C86   C90   1.383173 A    
C20   C71   1.488315 S    
C27   C31   1.537879 S    
C107  H19   1.083896 S    
O28   Cr4   2.074529 S    
C96   H12   1.085311 S    
C124  O76   1.221580 D    
C77   C81   1.371231 A    
C10   C62   1.461690 S    
Cr8   O52   1.975778 S    
C101  H13   1.083949 S    
C6    O18   1.289695 A    
C32   C39   1.533918 S    
C79   C83   1.378989 A    
C39   C40   1.543220 S    
C1    C52   1.466274 S    
C58   C62   1.416083 A    
C108  O60   1.220541 D    
C4    C49   1.464679 S    
C96   C100  1.404891 A    
C117  O69   1.221439 D    
C104  H16   1.083946 S    
C73   C74   1.415446 A    
C3    C50   1.466274 S    
C93   C97   1.395075 A    
O16   C8    1.306654 A    
C89   C93   1.374031 A    
C52   C56   1.401115 A    
C28   C35   1.533307 S    
C114  H42   1.084127 S    
O38   Cr6   1.958060 S    
O27   C23   1.286657 A    
C106  O58   1.220555 D    
