data_mof_unit_64414.cif
_audit_creation_date              2012-12-11T18:59:07-0500
_audit_creation_method            fapswitch 2.2
_symmetry_space_group_name_H-M    P1
_symmetry_Int_Tables_number       1
_space_group_crystal_system       triclinic
_cell_length_a                    8.419934
_cell_length_b                    15.146787
_cell_length_c                    17.323864
_cell_angle_alpha                 101.171786
_cell_angle_beta                  98.175968
_cell_angle_gamma                 98.778267
_cell_volume                      2108.25142517

loop_
_atom_site_label
_atom_site_type_symbol
_atom_type_description
_atom_site_fract_x
_atom_site_fract_y
_atom_site_fract_z
_atom_type_partial_charge
Ba1   Ba    Ba6+2 0.844370 0.541120 0.463210 1.775921
Ba2   Ba    Ba6+2 0.345470 0.458960 0.536800 1.825117
C1    C     C_3   0.648321 0.850827 0.252067 0.247479
C2    C     C_3   0.368873 0.509100 0.221081 0.030481
C3    C     C_2   0.303587 0.502580 0.135122 -0.094040
C4    C     C_3   0.019502 0.709671 0.249636 0.514182
C5    C     C_2   0.142236 0.475438 0.107835 -0.055793
C6    C     C_2   0.030993 0.456693 0.168207 0.293114
C7    C     C_1   0.095438 0.470106 0.246406 0.055372
C8    C     C_R   0.893043 0.464924 0.857995 -0.161172
C9    C     C_R   0.826497 0.451173 0.777557 0.005296
C10   C     C_R   0.083968 0.528611 0.751287 0.063160
C11   C     C_R   0.151635 0.539326 0.832849 -0.234491
C12   C     C_3   0.579191 0.761775 0.275317 0.658894
C13   C     C_R   0.057471 0.505844 0.886737 -0.052344
C14   C     C_2   0.082431 0.457383 0.018681 0.330654
C15   C     C_2   0.124962 0.520874 0.974827 0.436200
C16   C     C_3   0.000379 0.732246 0.166174 0.950897
C17   C     C_R   0.922273 0.480600 0.723821 0.199446
C18   C     C_R   0.342582 0.814636 0.435192 0.117369
C19   C     C_R   0.589836 0.791739 0.515842 0.005558
C20   C     C_R   0.760838 0.228503 0.514318 -0.202115
C21   C     C_R   0.863026 0.172969 0.541607 0.033354
C22   C     C_R   0.803330 0.079530 0.531413 -0.048205
C23   C     C_3   0.375565 0.303101 0.289564 0.695828
C24   C     C_R   0.637599 0.040317 0.497452 -0.036592
C25   C     C_R   0.538106 0.097040 0.463755 -0.095327
C26   C     C_R   0.569847 0.945334 0.491783 -0.070443
C27   C     C_R   0.416115 0.906682 0.441213 -0.098659
C28   C     C_3   0.259315 0.759638 0.656294 0.931617
C29   C     C_R   0.340750 0.960354 0.395768 0.379888
C30   C     C_R   0.383484 0.055314 0.417223 0.320640
C31   C     C_R   0.649480 0.887764 0.534054 0.343341
C32   C     C_R   0.437421 0.756625 0.466045 -0.275891
C33   C     C_R   0.601698 0.192085 0.473545 0.063499
C34   C     C_3   0.310371 0.265109 0.200263 0.315034
C35   C     C_3   0.217348 0.854689 0.682214 0.394292
C36   C     C_3   0.905737 0.238157 0.323314 0.976823
C37   C     C_3   0.872976 0.137669 0.275962 0.181960
C38   C     C_3   0.765575 0.701463 0.724951 0.997227
C39   C     C_3   0.723250 0.742116 0.807236 0.214401
C40   C     C_3   0.142734 0.282168 0.744376 0.544750
C41   C     C_3   0.168893 0.262835 0.828307 0.672821
C42   C     C_3   0.571249 0.221931 0.697164 0.622723
C43   C     C_3   0.499263 0.127098 0.708019 -0.206550
C44   C     C_2   0.241729 0.521438 0.273493 -0.352762
H1    H     H_    0.084997 0.849188 0.684587 -0.019149
H2    H     H_    0.258368 0.878659 0.798022 0.304540
H3    H     H_    0.243227 0.895513 0.637057 0.029911
H4    H     H_    0.697139 0.263838 0.286711 0.323305
H5    H     H_    0.993026 0.195285 0.416682 0.253936
H6    H     H_    0.785265 0.129983 0.219502 0.071297
H7    H     H_    0.817144 0.091914 0.311862 0.011823
H8    H     H_    0.989130 0.046816 0.229089 0.316444
H9    H     H_    0.992838 0.754279 0.766540 0.241442
H10   H     H_    0.680961 0.580543 0.736174 0.277769
H11   H     H_    0.689080 0.945918 0.348284 0.273771
H12   H     H_    0.246985 0.314812 0.174462 -0.104957
H13   H     H_    0.786059 0.814937 0.828166 0.039268
H14   H     H_    0.767547 0.703387 0.851864 -0.037415
H15   H     H_    0.537120 0.763294 0.856568 0.308247
H16   H     H_    0.361546 0.740591 0.215000 0.339138
H17   H     H_    0.598528 0.847274 0.188388 0.122261
H18   H     H_    0.271551 0.320739 0.318402 -0.071469
H19   H     H_    0.471800 0.429834 0.338622 0.270439
H20   H     H_    0.219052 0.201587 0.191938 0.132557
H21   H     H_    0.490997 0.302413 0.148467 0.331512
H22   H     H_    0.912181 0.608790 0.103644 0.281422
H23   H     H_    0.783379 0.860193 0.258990 0.086986
H24   H     H_    0.035440 0.316151 0.737579 -0.146674
H25   H     H_    0.184808 0.329465 0.872075 -0.049892
H26   H     H_    0.044744 0.202453 0.895394 0.316388
H27   H     H_    0.338283 0.229179 0.898650 0.304341
H28   H     H_    0.791229 0.224083 0.748098 0.342728
H29   H     H_    0.917372 0.655836 0.251233 -0.002492
H30   H     H_    0.227910 0.645868 0.977861 0.307562
H31   H     H_    0.833349 0.430391 0.088764 0.312742
H32   H     H_    0.813956 0.445581 0.898379 0.135865
H33   H     H_    0.988524 0.332071 0.018242 0.315261
H34   H     H_    0.251546 0.329929 0.738592 -0.002140
H35   H     H_    0.388931 0.509914 0.094251 0.116363
H36   H     H_    0.276369 0.575044 0.854313 0.121600
H37   H     H_    0.274466 0.561930 0.334255 0.065110
H38   H     H_    0.911873 0.428756 0.614357 0.295030
H39   H     H_    0.386725 0.684637 0.456537 0.035463
H40   H     H_    0.131834 0.680822 0.259188 -0.059015
H41   H     H_    0.232471 0.963414 0.288979 0.354611
H42   H     H_    0.852225 0.888135 0.603328 0.312875
H43   H     H_    0.809714 0.299993 0.519917 0.073479
H44   H     H_    0.891887 0.038754 0.546996 0.131758
H45   H     H_    0.505952 0.229351 0.639057 0.045613
H46   H     H_    0.162764 0.070663 0.382091 0.312406
H47   H     H_    0.836854 0.764907 0.090929 0.300476
H48   H     H_    0.120572 0.811861 0.109957 0.311436
H49   H     H_    0.449897 0.710358 0.647918 0.301096
H50   H     H_    0.227532 0.679874 0.549781 0.268941
H51   H     H_    0.524202 0.073364 0.660154 0.094532
H52   H     H_    0.365243 0.119406 0.704242 0.149821
H53   H     H_    0.554069 0.116628 0.767021 0.161048
H54   H     H_    0.640084 0.765519 0.337465 -0.002389
O1    O     O_2   0.823670 0.438410 0.305690 -0.368311
O2    O     O_2   0.198968 0.177880 0.545364 -0.500622
O3    O     O_3   0.119357 0.200260 0.686205 -0.579133
O4    O     O_3   0.097540 0.445020 0.403910 -0.484639
O5    O     O_3   0.591400 0.612970 0.544220 -0.453498
O6    O     O_2   0.325880 0.273340 0.453540 -0.386089
O7    O     O_3   0.440311 0.235270 0.321721 -0.559359
O8    O     O_2   0.497176 0.459288 0.781617 -0.514162
O9    O     O_3   0.548826 0.289960 0.760933 -0.589229
O10   O     O_3   0.626660 0.608370 0.360070 -0.504656
O11   O     O_2   0.694669 0.531859 0.223441 -0.427533
O12   O     O_3   0.739365 0.762119 0.674184 -0.604019
O13   O     O_3   0.970931 0.293838 0.275782 -0.653242
O14   O     O_3   0.609802 0.686464 0.221329 -0.618475
O15   O     O_2   0.863840 0.726690 0.546510 -0.423240
O16   O     O_3   0.059500 0.657930 0.401470 -0.499075
O17   O     O_2   0.023455 0.823283 0.463282 -0.494407
O18   O     O_3   0.312021 0.901337 0.756336 -0.685099
O19   O     O_3   0.758784 0.260805 0.339118 -0.778793
O20   O     O_3   0.015056 0.250920 0.395171 -0.670935
O21   O     O_3   0.018314 0.112148 0.257565 -0.731213
O22   O     O_3   0.929669 0.694010 0.735559 -0.780929
O23   O     O_3   0.020286 0.787300 0.309561 -0.573364
O24   O     O_3   0.670705 0.614611 0.693283 -0.641754
O25   O     O_3   0.605024 0.926468 0.298980 -0.722689
O26   O     O_3   0.554727 0.737096 0.802027 -0.677295
O27   O     O_3   0.411247 0.755394 0.272489 -0.742491
O28   O     O_3   0.497731 0.380174 0.298728 -0.732571
O29   O     O_3   0.436972 0.244230 0.159385 -0.705197
O30   O     O_3   0.013196 0.654828 0.109581 -0.760985
O31   O     O_3   0.032838 0.202368 0.837558 -0.697510
O32   O     O_3   0.308980 0.224204 0.840211 -0.697465
O33   O     O_3   0.737481 0.226662 0.694098 -0.783302
O34   O     O_2   0.366040 0.561620 0.694360 -0.441231
O35   O     O_3   0.228802 0.602193 0.013626 -0.719830
O36   O     O_3   0.865883 0.422890 0.143883 -0.698277
O37   O     O_3   0.990972 0.372614 0.979677 -0.780579
O38   O     O_3   0.851108 0.469002 0.645572 -0.669694
O39   O     O_3   0.239302 0.919203 0.324177 -0.649641
O40   O     O_3   0.769730 0.927585 0.599656 -0.707760
O41   O     O_3   0.275414 0.105427 0.388186 -0.674006
O42   O     O_3   0.848033 0.756855 0.146857 -0.760695
O43   O     O_3   0.124854 0.805386 0.166120 -0.678417
O44   O     O_3   0.424062 0.772248 0.652081 -0.736243
O45   O     O_3   0.092170 0.555060 0.596100 -0.445295
O46   O     O_3   0.164417 0.719083 0.580868 -0.723163
O47   O     O_3   0.563060 0.391710 0.639940 -0.423628
O48   O     O_3   0.229954 0.708761 0.715037 -0.605228
O49   O     O_3   0.598320 0.387100 0.455790 -0.447975
O50   O     O_3   0.130210 0.342150 0.598540 -0.519403
P1    P     P_3+3 0.993950 0.412000 0.316970 1.109998
P2    P     P_3+3 0.694070 0.714570 0.569730 1.115346
P3    P     P_3+3 0.115421 0.772861 0.402333 1.029076
P4    P     P_3+3 0.195760 0.588070 0.683040 1.105629
P5    P     P_3+3 0.076949 0.223725 0.590823 0.979035
P6    P     P_3+3 0.569654 0.585885 0.256924 1.007922
P7    P     P_3+3 0.495136 0.271589 0.426031 1.132132
P8    P     P_3+3 0.609102 0.398836 0.742079 1.023225

loop_
_geom_bond_atom_site_label_1
_geom_bond_atom_site_label_2
_ccdc_geom_bond_type
Ba2   O50   S    
C40   H34   S    
C21   P5    S    
C6    O36   S    
O13   P1    S    
Ba1   O45   S    
C14   O37   S    
C40   O3    S    
C8    H32   S    
C5    C6    S    
C38   O12   S    
C37   H7    S    
Ba2   O45   S    
C20   C33   A    
C9    C17   A    
C24   C25   A    
Ba2   O34   S    
H48   O43   S    
H10   O24   S    
O4    P1    S    
C16   O43   S    
C1    H23   S    
C23   O28   S    
C22   C24   A    
C34   H12   S    
C8    C13   A    
H11   O25   S    
H16   O27   S    
C34   H20   S    
O8    P8    D    
C31   O40   S    
H28   O33   S    
C40   H24   S    
C28   O44   S    
Ba1   P2    S    
Ba1   Ba2   S    
C19   P2    S    
H42   O40   S    
C3    H35   S    
C35   O18   S    
C14   C15   D    
O15   P2    D    
C15   O35   S    
C21   C22   A    
O12   P2    S    
Ba1   O49   S    
H15   O26   S    
Ba1   O16   S    
C35   H1    S    
O11   P6    D    
C18   C32   A    
C42   O9    S    
Ba2   O49   S    
C37   H6    S    
H9    O22   S    
H38   O38   S    
H49   O44   S    
Ba2   P4    S    
H21   O29   S    
O48   P4    S    
C4    O23   S    
C38   O24   S    
O9    P8    S    
O14   P6    S    
O7    P7    S    
H30   O35   S    
C28   O46   S    
C18   C27   A    
C36   C37   S    
C4    C16   S    
C18   P3    S    
H4    O19   S    
H19   O28   S    
C16   O42   S    
C39   H13   S    
C43   H53   S    
C10   P4    S    
C3    C5    D    
C36   O13   S    
C6    C7    D    
C2    C44   S    
C19   C32   A    
C25   C33   A    
Ba2   O47   S    
C12   O14   S    
C11   H36   S    
O1    P1    D    
C12   O27   S    
C28   C35   S    
C32   H39   S    
C33   P7    S    
Ba1   O10   S    
C35   H3    S    
C29   C30   A    
Ba2   O4    S    
H5    O20   S    
O16   P3    S    
C12   H54   S    
H22   O30   S    
H46   O41   S    
C42   H45   S    
Ba1   O4    S    
C30   O41   S    
C1    C12   S    
O45   P4    S    
O3    P5    S    
C5    C14   S    
H33   O37   S    
H8    O21   S    
C26   C31   A    
O50   P5    S    
C11   C13   A    
O17   P3    D    
C16   O30   S    
C40   C41   S    
C36   O19   S    
C29   O39   S    
C26   C27   A    
Ba1   O1    S    
H50   O46   S    
C42   C43   S    
C23   O7    S    
H26   O31   S    
O23   P3    S    
C42   O33   S    
C13   C15   S    
O5    P2    S    
C7    P1    S    
C41   H25   S    
C2    P6    S    
C25   C30   A    
C39   O26   S    
C39   H14   S    
H41   O39   S    
C2    C3    S    
C22   H44   S    
H2    O18   S    
C1    O25   S    
C28   O48   S    
C1    H17   S    
O6    P7    D    
C38   O22   S    
Ba2   O5    S    
C24   C26   A    
C4    H40   S    
C43   H52   S    
C41   O31   S    
C36   O20   S    
C27   C29   A    
C43   H51   S    
C34   O29   S    
O34   P4    D    
C17   O38   S    
C10   C17   A    
C20   H43   S    
C41   O32   S    
Ba1   P1    S    
H27   O32   S    
O10   P6    S    
C8    C9    A    
C23   C34   S    
Ba2   O6    S    
C44   H37   S    
H31   O36   S    
C7    C44   D    
C19   C31   A    
C10   C11   A    
C20   C21   A    
C38   C39   S    
Ba1   O15   S    
O47   P8    S    
O49   P7    S    
O2    P5    D    
C23   H18   S    
H47   O42   S    
C9    P8    S    
Ba1   O5    S    
C37   O21   S    
C4    H29   S    
