data_mof_unit_36870.cif
_audit_creation_date              2012-10-26T21:04:52-0400
_audit_creation_method            fapswitch 2.2
_symmetry_space_group_name_H-M    P1
_symmetry_Int_Tables_number       1
_space_group_crystal_system       triclinic
_cell_length_a                    11.652296
_cell_length_b                    12.490523
_cell_length_c                    13.297017
_cell_angle_alpha                 118.27323
_cell_angle_beta                  76.573841
_cell_angle_gamma                 100.715081
_cell_volume                      1651.29983473

loop_
_atom_site_label
_atom_site_type_symbol
_atom_type_description
_atom_site_fract_x
_atom_site_fract_y
_atom_site_fract_z
_atom_type_partial_charge
C1    C     C_R   0.521186 0.853729 0.286098 0.540693
C2    C     C_R   0.632876 0.485606 0.139142 -0.114440
C3    C     C_R   0.616184 0.608688 0.181806 -0.086386
C4    C     C_R   0.715308 0.999435 0.499273 0.549221
C5    C     C_R   0.480392 0.349376 0.886112 0.090449
C6    C     C_R   0.536752 0.187568 0.907529 0.254837
C7    C     C_R   0.537211 0.768318 0.161158 -0.021869
C8    C     C_R   0.708723 0.356367 0.349431 -0.145860
C9    C     C_R   0.321509 0.740837 0.618323 0.259311
C10   C     C_R   0.271298 0.623847 0.603212 0.295250
C11   C     C_R   0.329478 0.523902 0.514743 0.280766
C12   C     C_R   0.498388 0.226899 0.838047 -0.010241
C13   C     C_R   0.453704 0.541496 0.501772 -0.029881
C14   C     C_R   0.506083 0.660144 0.518562 0.113884
C15   C     C_R   0.526876 0.444605 0.463475 -0.030679
C16   C     C_R   0.487020 0.145610 0.714580 0.574747
C17   C     C_R   0.643845 0.458467 0.409317 -0.039042
C18   C     C_R   0.695303 0.575936 0.424316 0.035155
C19   C     C_R   0.630694 0.677625 0.498475 0.144601
C20   C     C_R   0.494053 0.340666 0.486361 0.206676
C21   C     C_R   0.666869 0.249659 0.360671 0.202034
C22   C     C_R   0.284793 0.000073 0.499969 0.566755
C23   C     C_R   0.508325 0.803634 0.084969 -0.148984
C24   C     C_1   0.837278 0.999140 0.499133 0.027310
C25   C     C_1   0.939883 0.998848 0.499530 0.002727
C26   C     C_1   0.059877 0.999128 0.499988 -0.002465
C27   C     C_1   0.162789 0.999866 0.499970 0.024216
C28   C     C_R   0.588968 0.273505 0.003794 -0.117349
C29   C     C_3   0.390858 0.072600 0.967951 0.049255
C30   C     C_3   0.405140 0.098694 0.089789 -0.280349
C31   C     C_3   0.297181 0.046222 0.148046 -0.483952
C32   C     C_3   0.236301 0.348951 0.384195 0.023740
C33   C     C_3   0.110319 0.344430 0.450298 -0.250230
C34   C     C_R   0.510284 0.721875 0.968204 0.125176
C35   C     C_3   0.046400 0.217460 0.395799 -0.479266
C36   C     C_3   0.160625 0.622789 0.767650 0.006951
C37   C     C_3   0.038608 0.586962 0.821701 -0.267923
C38   C     C_3   0.035711 0.615833 0.947352 -0.443267
C39   C     C_3   0.656856 0.484455 0.757098 0.008549
C40   C     C_3   0.726308 0.557263 0.694143 -0.251236
C41   C     C_3   0.833664 0.493789 0.609744 -0.462101
C42   C     C_R   0.536331 0.602465 0.926015 0.313123
C43   C     C_R   0.548472 0.561258 0.004980 0.020372
C44   C     C_R   0.567412 0.647330 0.117806 -0.016511
C45   C     C_R   0.543544 0.436185 0.973246 0.019427
C46   C     C_R   0.592323 0.398200 0.037204 -0.031625
Cu1   Cu    Cu3+1 0.526510 0.098270 0.475420 0.998628
Cu2   Cu    Cu3+1 0.473490 0.901730 0.524580 1.067889
H1    H     H_    0.793578 0.358974 0.295982 0.168478
H2    H     H_    0.215797 0.083905 0.153031 0.152927
H3    H     H_    0.308988 0.070271 0.237054 0.156213
H4    H     H_    0.286365 0.945228 0.098554 0.173417
H5    H     H_    0.294292 0.295366 0.394876 0.134125
H6    H     H_    0.232007 0.304503 0.290279 0.165089
H7    H     H_    0.113618 0.369334 0.541598 0.198341
H8    H     H_    0.059434 0.410667 0.449156 0.218443
H9    H     H_    0.034216 0.194209 0.307140 0.181623
H10   H     H_    0.958013 0.215096 0.449036 0.172747
H11   H     H_    0.098584 0.148788 0.390696 0.157455
H12   H     H_    0.670964 0.457758 0.188922 0.141970
H13   H     H_    0.186514 0.719701 0.824751 0.170372
H14   H     H_    0.225082 0.566068 0.765380 0.187463
H15   H     H_    0.971331 0.637722 0.819114 0.190341
H16   H     H_    0.016218 0.487380 0.771477 0.164807
H17   H     H_    0.102203 0.566286 0.952636 0.200845
H18   H     H_    0.946430 0.586853 0.983225 0.164130
H19   H     H_    0.054698 0.715479 0.000517 0.164219
H20   H     H_    0.645618 0.387478 0.692813 0.195947
H21   H     H_    0.710225 0.487894 0.818344 0.097283
H22   H     H_    0.667388 0.567161 0.645235 0.223883
H23   H     H_    0.619530 0.243029 0.056218 0.141196
H24   H     H_    0.755869 0.649432 0.758703 0.194853
H25   H     H_    0.890250 0.474767 0.654517 0.144631
H26   H     H_    0.886474 0.552796 0.571015 0.219323
H27   H     H_    0.805082 0.405657 0.539648 0.163075
H28   H     H_    0.481880 0.893958 0.116781 0.151259
H29   H     H_    0.644861 0.672984 0.262981 0.155465
H30   H     H_    0.342421 0.981982 0.927246 0.200732
H31   H     H_    0.332033 0.137591 0.974425 0.139029
H32   H     H_    0.485350 0.059053 0.084350 0.207751
H33   H     H_    0.416857 0.198832 0.144669 0.146456
I1    I     I_    0.876597 0.608098 0.357114 -0.397626
I2    I     I_    0.347481 0.346973 0.617073 -0.312568
I3    I     I_    0.215893 0.890017 0.730934 -0.271184
I4    I     I_    0.716534 0.809769 0.640922 -0.241701
I5    I     I_    0.302042 0.383550 0.906976 -0.318875
I6    I     I_    0.460918 0.771516 0.855595 -0.378511
I7    I     I_    0.769764 0.099890 0.251320 -0.385673
N1    N     N_R   0.566700 0.246290 0.438210 -0.225462
N2    N     N_R   0.434010 0.754320 0.561170 -0.245326
O1    O     O_R   0.533340 0.972510 0.318140 -0.479564
O2    O     O_3   0.283633 0.470057 0.412665 -0.549230
O3    O     O_3   0.156863 0.605988 0.655239 -0.572687
O4    O     O_3   0.542103 0.525526 0.808389 -0.518722
O5    O     O_R   0.488570 0.806530 0.359650 -0.499585
O6    O     O_R   0.685190 0.083000 0.479260 -0.495686
O7    O     O_R   0.640410 0.917020 0.520770 -0.472622
O8    O     O_R   0.511430 0.193470 0.640350 -0.480871
O9    O     O_R   0.466660 0.027490 0.681860 -0.428761
O10   O     O_R   0.359590 0.082980 0.479230 -0.487210
O11   O     O_R   0.314810 0.917000 0.520740 -0.465059
O12   O     O_3   0.502771 0.071071 0.895925 -0.505045

loop_
_geom_bond_atom_site_label_1
_geom_bond_atom_site_label_2
_ccdc_geom_bond_type
C33   H7    S    
Cu2   O5    S    
C39   H20   S    
C34   C42   A    
C31   H4    S    
C21   N1    A    
C45   C46   A    
C2    C46   A    
Cu2   O7    S    
C28   C46   A    
C26   C27   T    
C29   C30   S    
Cu1   O8    S    
C40   H22   S    
C35   H10   S    
C36   C37   S    
C6    C12   A    
C30   C31   S    
C4    C24   S    
C2    H12   S    
C35   H11   S    
C18   C19   A    
C14   N2    A    
C1    C7    S    
C41   H26   S    
C4    O6    A    
C36   O3    S    
C6    C28   A    
C29   H30   S    
C38   H18   S    
Cu1   O6    S    
C9    C10   A    
C23   H28   S    
C30   H32   S    
C33   H8    S    
C21   I7    S    
C1    O1    A    
Cu2   N2    S    
C13   C14   A    
Cu1   N1    S    
C36   H14   S    
C11   O2    S    
C32   H6    S    
C37   H15   S    
C8    C21   A    
C15   C20   A    
C3    C44   A    
C22   O10   A    
C12   C16   S    
C24   C25   T    
C5    C12   A    
C39   C40   S    
C10   O3    S    
C25   C26   S    
C5    C45   A    
Cu1   O10   S    
C43   C44   A    
C39   O4    S    
C37   C38   S    
C41   H27   S    
Cu1   Cu2   S    
C29   H31   S    
C38   H17   S    
C1    O5    A    
C23   C34   A    
C17   C18   A    
C39   H21   S    
C7    C44   A    
C43   C45   A    
C5    I5    S    
C40   C41   S    
C18   I1    S    
C22   O11   A    
C22   C27   S    
C13   C15   A    
C28   H23   S    
C42   C43   A    
C31   H2    S    
C36   H13   S    
C3    H29   S    
C32   H5    S    
C37   H16   S    
C15   C17   A    
Cu2   O9    S    
C40   H24   S    
C42   O4    S    
Cu1   O1    S    
C14   C19   A    
C31   H3    S    
C19   I4    S    
C9    N2    A    
C16   O9    A    
C20   N1    A    
C8    C17   A    
C35   H9    S    
C32   C33   S    
C30   H33   S    
C2    C3    A    
C11   C13   A    
C16   O8    A    
C32   O2    S    
C7    C23   A    
Cu2   O11   S    
C33   C35   S    
C29   O12   S    
C34   I6    S    
C6    O12   S    
C10   C11   A    
C9    I3    S    
C41   H25   S    
C38   H19   S    
C20   I2    S    
C4    O7    A    
C8    H1    S    
