data_mof_unit_12567.cif
_audit_creation_date              2012-10-26T18:27:28-0400
_audit_creation_method            fapswitch 2.2
_symmetry_space_group_name_H-M    P1
_symmetry_Int_Tables_number       1
_space_group_crystal_system       triclinic
_cell_length_a                    10.755068
_cell_length_b                    11.060205
_cell_length_c                    9.910511
_cell_angle_alpha                 111.96105
_cell_angle_beta                  97.961718
_cell_angle_gamma                 91.870347
_cell_volume                      1078.22132918

loop_
_atom_site_label
_atom_site_type_symbol
_atom_type_description
_atom_site_fract_x
_atom_site_fract_y
_atom_site_fract_z
_atom_type_partial_charge
C1    C     C_R   0.490672 0.253394 0.439138 0.561448
C2    C     C_2   0.502116 0.930523 0.486375 -0.053469
C3    C     C_2   0.517123 0.499510 0.073540 0.274244
C4    C     C_R   0.263005 0.502346 0.501711 0.595685
C5    C     C_2   0.485705 0.489837 0.916046 0.072927
C6    C     C_R   0.509202 0.746586 0.560855 0.511175
C7    C     C_R   0.737249 0.504269 0.499927 0.539725
C8    C     C_R   0.162391 0.735415 0.691644 -0.099676
C9    C     C_R   0.113060 0.847696 0.782833 0.271570
C10   C     C_R   0.983209 0.847715 0.779911 -0.044239
C11   C     C_R   0.902722 0.737929 0.687582 -0.144619
C12   C     C_R   0.082319 0.622121 0.598850 -0.055843
C13   C     C_R   0.950973 0.623718 0.596666 -0.000753
C14   C     C_R   0.129489 0.508441 0.504502 0.044521
C15   C     C_R   0.048371 0.400292 0.405569 0.220442
C16   C     C_R   0.919087 0.403546 0.403896 -0.140846
C17   C     C_R   0.871149 0.512197 0.499990 -0.018763
C18   C     C_2   0.485919 0.111502 0.402659 0.205392
C19   C     C_2   0.505090 0.069642 0.513614 -0.051506
C20   C     C_2   0.514312 0.888440 0.597328 0.188485
Cu1   Cu    Cu3+1 0.521920 0.521810 0.644910 0.947962
Cu2   Cu    Cu3+1 0.478080 0.478190 0.355090 0.975486
H1    H     H_    0.405792 0.424739 0.843391 0.168357
H2    H     H_    0.449158 0.068457 0.190483 0.354312
H3    H     H_    0.700369 0.501861 0.160559 0.255604
H4    H     H_    0.628377 0.640250 0.252766 0.271507
H5    H     H_    0.324342 0.288838 0.064570 0.283942
H6    H     H_    0.259358 0.431698 0.101124 0.268606
H7    H     H_    0.278284 0.943792 0.864190 0.335509
H8    H     H_    0.535608 0.930906 0.809402 0.342914
H9    H     H_    0.631728 0.615423 0.930492 0.245565
H10   H     H_    0.263044 0.738847 0.692791 0.125621
H11   H     H_    0.944074 0.934122 0.848602 0.148705
H12   H     H_    0.802537 0.744603 0.686611 0.139031
H13   H     H_    0.855492 0.319576 0.330174 0.116317
H14   H     H_    0.489185 0.861061 0.372714 0.176243
H15   H     H_    0.523109 0.139280 0.627293 0.178093
H16   H     H_    0.028395 0.224922 0.251547 0.331724
N1    N     N_2   0.445130 0.445430 0.137370 -0.162303
N2    N     N_2   0.554930 0.554500 0.862630 -0.361544
N3    N     N_3   0.636805 0.568694 0.151234 -0.643384
N4    N     N_3   0.331446 0.378933 0.053363 -0.545071
O1    O     O_R   0.511700 0.332330 0.577400 -0.518799
O2    O     O_3   0.462305 0.021495 0.258207 -0.710821
O3    O     O_3   0.189116 0.959094 0.874530 -0.678276
O4    O     O_3   0.530524 0.978172 0.741767 -0.726001
O5    O     O_R   0.474680 0.295500 0.332650 -0.484393
O6    O     O_R   0.338160 0.518420 0.622400 -0.513411
O7    O     O_R   0.301140 0.481590 0.377650 -0.461150
O8    O     O_R   0.525320 0.704500 0.667350 -0.514337
O9    O     O_R   0.488300 0.667670 0.422600 -0.536831
O10   O     O_R   0.698860 0.518410 0.622350 -0.488976
O11   O     O_R   0.661840 0.481580 0.377600 -0.520571
O12   O     O_3   0.098118 0.291682 0.313940 -0.675529

loop_
_geom_bond_atom_site_label_1
_geom_bond_atom_site_label_2
_ccdc_geom_bond_type
C8    C9    A    
C9    O3    S    
C18   O2    S    
C6    O9    A    
Cu2   O11   S    
C6    C20   S    
C9    C10   A    
H8    O4    S    
C1    O5    A    
H16   O12   S    
C13   C17   A    
C4    O7    A    
C8    C12   A    
Cu1   O6    S    
Cu2   O5    S    
C2    C19   S    
C3    N1    D    
H3    N3    S    
Cu1   Cu2   S    
C6    O8    A    
C11   C13   A    
H5    N4    S    
C1    C18   S    
Cu1   N2    S    
Cu2   O7    S    
Cu2   N1    S    
H6    N4    S    
Cu1   O8    S    
C12   C14   A    
C7    O10   A    
C18   C19   D    
N1    N4    S    
C11   H12   S    
C16   H13   S    
C4    C14   S    
H2    O2    S    
C3    N3    S    
C10   C11   A    
C7    O11   A    
C2    C20   D    
C15   C16   A    
C8    H10   S    
C15   O12   S    
C12   C13   A    
C10   H11   S    
C4    O6    A    
C5    N2    D    
C2    H14   S    
C14   C15   A    
Cu2   O9    S    
C19   H15   S    
C3    C5    S    
H9    N2    S    
Cu1   O1    S    
C1    O1    A    
Cu1   O10   S    
C20   O4    S    
H4    N3    S    
H7    O3    S    
C16   C17   A    
C7    C17   S    
C5    H1    S    
