data_mof_unit_24052.cif
_audit_creation_date              2012-12-10T17:52:28-0500
_audit_creation_method            fapswitch 2.2
_symmetry_space_group_name_H-M    P1
_symmetry_Int_Tables_number       1
_space_group_crystal_system       triclinic
_cell_length_a                    19.084575
_cell_length_b                    10.553206
_cell_length_c                    9.930235
_cell_angle_alpha                 91.895869
_cell_angle_beta                  89.96934
_cell_angle_gamma                 91.657718
_cell_volume                      1998.05206655

loop_
_atom_site_label
_atom_site_type_symbol
_atom_type_description
_atom_site_fract_x
_atom_site_fract_y
_atom_site_fract_z
_atom_type_partial_charge
C1    C     C_R   0.503482 0.259143 0.498115 0.873883
C2    C     C_R   0.852289 0.424907 0.497048 0.088669
C3    C     C_R   0.565833 0.113627 0.713549 -0.140929
C4    C     C_R   0.365379 0.497155 0.499969 0.814280
C5    C     C_R   0.569509 0.058313 0.838901 -0.180229
C6    C     C_R   0.525534 0.954721 0.866742 -0.183456
C7    C     C_R   0.482852 0.898355 0.765023 0.236241
C8    C     C_R   0.490629 0.940560 0.631636 0.043905
C9    C     C_R   0.521167 0.059652 0.612223 0.060957
C10   C     C_R   0.501335 0.123147 0.495980 -0.152273
C11   C     C_R   0.460950 0.060291 0.394803 -0.232839
C12   C     C_R   0.289465 0.478682 0.499346 -0.025346
C13   C     C_R   0.444885 0.931759 0.403519 0.174867
C14   C     C_R   0.468999 0.869587 0.515766 -0.219822
C15   C     C_R   0.408630 0.333547 0.134759 -0.176702
C16   C     C_R   0.488341 0.737634 0.503280 0.888725
C17   C     C_R   0.362819 0.252320 0.062325 -0.218995
C18   C     C_R   0.361785 0.253652 0.923009 -0.197169
C19   C     C_R   0.407103 0.335029 0.855215 -0.144754
C20   C     C_R   0.454437 0.418567 0.925171 0.166756
C21   C     C_R   0.454764 0.418253 0.069636 0.175661
C22   C     C_R   0.543638 0.577716 0.074084 -0.139961
C23   C     C_R   0.927867 0.406644 0.496472 0.288779
C24   C     C_R   0.543631 0.577687 0.931124 -0.153030
C25   C     C_R   0.634574 0.497683 0.499867 0.865352
C26   C     C_R   0.253218 0.465373 0.621119 -0.205589
C27   C     C_R   0.181722 0.437858 0.620154 -0.163988
C28   C     C_R   0.145494 0.423804 0.497415 0.088233
C29   C     C_R   0.181911 0.436656 0.375641 -0.164700
C30   C     C_R   0.253395 0.464163 0.376608 -0.208994
C31   C     C_3   0.419119 0.818887 0.805072 -0.378398
C32   C     C_3   0.358664 0.904339 0.844129 -0.927866
C33   C     C_3   0.393673 0.867356 0.305920 -0.388423
C34   C     C_R   0.069311 0.405967 0.496670 0.287442
C35   C     C_3   0.424497 0.854367 0.165748 -0.854847
C36   C     C_R   0.816116 0.435966 0.619690 -0.162174
C37   C     C_R   0.745466 0.463263 0.620790 -0.201734
C38   C     C_R   0.709982 0.479452 0.499243 -0.038564
C39   C     C_R   0.746030 0.468157 0.376593 -0.192989
C40   C     C_R   0.816680 0.440827 0.375481 -0.163114
H1    H     H_    0.280057 0.475065 0.717164 0.159449
H2    H     H_    0.154865 0.429048 0.715620 0.150725
H3    H     H_    0.579112 0.641596 0.879689 0.154630
H4    H     H_    0.155218 0.426843 0.279501 0.151054
H5    H     H_    0.280368 0.472838 0.281199 0.162629
H6    H     H_    0.842377 0.424718 0.715011 0.149707
H7    H     H_    0.718610 0.470333 0.716755 0.156559
H8    H     H_    0.719631 0.479254 0.281348 0.156822
H9    H     H_    0.843399 0.433536 0.279429 0.149702
H10   H     H_    0.439586 0.111757 0.312397 0.161614
H11   H     H_    0.374815 0.974810 0.924134 0.275151
H12   H     H_    0.597255 0.198750 0.696949 0.154213
H13   H     H_    0.341156 0.955913 0.754930 0.263213
H14   H     H_    0.313848 0.845875 0.881374 0.257125
H15   H     H_    0.399028 0.755396 0.722025 0.229914
H16   H     H_    0.432571 0.757863 0.889490 0.204941
H17   H     H_    0.474593 0.803805 0.167381 0.275257
H18   H     H_    0.386592 0.799361 0.100765 0.255779
H19   H     H_    0.433833 0.949841 0.124736 0.251382
H20   H     H_    0.376907 0.771909 0.340007 0.211300
H21   H     H_    0.345531 0.923962 0.301773 0.193285
H22   H     H_    0.602831 0.100936 0.917165 0.150524
H23   H     H_    0.523620 0.920590 0.967990 0.139413
H24   H     H_    0.579254 0.641483 0.129776 0.148889
H25   H     H_    0.406480 0.327327 0.241405 0.202132
H26   H     H_    0.327829 0.188149 0.114775 0.152162
H27   H     H_    0.325672 0.191119 0.866800 0.154971
H28   H     H_    0.403203 0.329566 0.748350 0.205968
N1    N     N_R   0.033387 0.404266 0.378903 -0.179503
N2    N     N_R   0.963885 0.404598 0.378804 -0.179210
N3    N     N_R   0.963713 0.403994 0.614081 -0.179101
N4    N     N_R   0.033219 0.403678 0.614180 -0.179355
N5    N     N_R   0.499340 0.498800 0.142780 -0.116707
N6    N     N_R   0.499320 0.498720 0.857170 -0.124033
O1    O     O_R   0.500000 0.316780 0.614690 -0.630991
O2    O     O_R   0.499990 0.316750 0.385360 -0.631463
O3    O     O_R   0.398140 0.500000 0.614700 -0.649884
O4    O     O_R   0.398130 0.499970 0.385370 -0.641067
O5    O     O_R   0.500010 0.683250 0.614640 -0.627028
O6    O     O_R   0.500000 0.683220 0.385310 -0.594681
O7    O     O_R   0.601870 0.500030 0.614630 -0.616904
O8    O     O_R   0.601860 0.500000 0.385300 -0.611787
Zn1   Zn    Zn3+2 0.500000 0.500020 0.653130 0.916340
Zn2   Zn    Zn3+2 0.500000 0.499980 0.346870 0.929996

loop_
_geom_bond_atom_site_label_1
_geom_bond_atom_site_label_2
_ccdc_geom_bond_type
C30   H5    S    
C19   C20   A    
N6    Zn1   S    
O6    Zn2   S    
C24   N6    A    
O2    Zn2   S    
C7    C8    A    
C4    O4    A    
C17   H26   S    
C29   C30   A    
C35   H18   S    
C36   C37   A    
C5    C6    A    
O3    Zn1   S    
C40   H9    S    
C15   H25   S    
C21   N5    A    
C35   H19   S    
C18   C19   A    
C8    C9    A    
C36   H6    S    
C31   H16   S    
C4    C12   S    
C9    C10   A    
N5    Zn2   S    
C28   C34   S    
C13   C14   A    
C25   O7    A    
C23   N2    A    
C32   H14   S    
O7    Zn1   S    
C7    C31   S    
C1    O1    A    
C23   N3    A    
C39   C40   A    
C18   H27   S    
C12   C26   A    
C16   O6    A    
C6    H23   S    
C32   H11   S    
C13   C33   S    
C37   C38   A    
C3    C9    A    
O4    Zn2   S    
C25   C38   S    
C31   C32   S    
C17   C18   A    
C26   C27   A    
C20   N6    A    
C19   H28   S    
C34   N1    A    
C33   H20   S    
O8    Zn2   S    
C29   H4    S    
C25   O8    A    
C14   C16   S    
C37   H7    S    
C34   N4    A    
C32   H13   S    
C2    C23   S    
C2    C36   A    
C15   C17   A    
C28   C29   A    
C8    C14   A    
C12   C30   A    
C1    O2    A    
C1    C10   S    
C3    C5    A    
C3    H12   S    
C6    C7    A    
C35   H17   S    
C16   O5    A    
C4    O3    A    
C11   H10   S    
O5    Zn1   S    
C11   C13   A    
C27   H2    S    
O1    Zn1   S    
C38   C39   A    
C33   C35   S    
C5    H22   S    
C22   C24   A    
N1    N2    A    
C10   C11   A    
C22   H24   S    
C2    C40   A    
C15   C21   A    
N3    N4    A    
C20   C21   A    
C33   H21   S    
C27   C28   A    
C24   H3    S    
C22   N5    A    
C31   H15   S    
C26   H1    S    
C39   H8    S    
