data_mof_unit_50507.cif
_audit_creation_date              2012-12-10T17:33:47-0500
_audit_creation_method            fapswitch 2.2
_symmetry_space_group_name_H-M    P1
_symmetry_Int_Tables_number       1
_space_group_crystal_system       triclinic
_cell_length_a                    11.668716
_cell_length_b                    12.494201
_cell_length_c                    13.178215
_cell_angle_alpha                 117.862059
_cell_angle_beta                  75.038768
_cell_angle_gamma                 101.002928
_cell_volume                      1635.41367936

loop_
_atom_site_label
_atom_site_type_symbol
_atom_type_description
_atom_site_fract_x
_atom_site_fract_y
_atom_site_fract_z
_atom_type_partial_charge
C1    C     C_R   0.517737 0.854744 0.285582 1.008366
C2    C     C_R   0.450426 0.229027 0.838000 -0.169467
C3    C     C_R   0.642819 0.796459 0.087933 0.235978
C4    C     C_R   0.672015 0.713009 0.969098 0.237295
C5    C     C_R   0.611397 0.595908 0.928484 0.436864
C6    C     C_R   0.517313 0.564355 0.006179 -0.089507
C7    C     C_R   0.470291 0.659133 0.114476 -0.155427
C8    C     C_R   0.461992 0.443892 0.975692 0.043646
C9    C     C_R   0.347366 0.425293 0.039927 -0.010123
C10   C     C_R   0.292917 0.524749 0.139239 0.072738
C11   C     C_R   0.353328 0.642087 0.173322 0.405142
C12   C     C_R   0.715510 0.000118 0.499717 0.829497
C13   C     C_R   0.518892 0.340045 0.885437 0.468556
C14   C     C_R   0.337388 0.211954 0.898722 -0.256098
C15   C     C_R   0.539734 0.771464 0.159347 -0.147834
C16   C     C_R   0.701829 0.340789 0.332450 -0.213411
C17   C     C_R   0.344372 0.768429 0.653705 0.042196
C18   C     C_R   0.325293 0.690410 0.704725 -0.278701
C19   C     C_R   0.395053 0.592268 0.658412 0.249218
C20   C     C_R   0.473563 0.560913 0.546341 -0.101435
C21   C     C_R   0.500113 0.651727 0.503914 0.157495
C22   C     C_R   0.534147 0.449891 0.480011 -0.129850
C23   C     C_R   0.482613 0.145189 0.714089 0.752049
C24   C     C_R   0.632792 0.440996 0.388400 0.010558
C25   C     C_R   0.658918 0.527779 0.347662 0.274278
C26   C     C_R   0.598791 0.633962 0.406514 0.311197
C27   C     C_R   0.495789 0.342020 0.493239 0.577109
C28   C     C_R   0.668888 0.245774 0.361774 0.008627
C29   C     C_R   0.284431 0.000263 0.500814 0.832785
C30   C     C_1   0.837515 0.000403 0.499586 -0.171739
C31   C     C_1   0.940109 0.000113 0.499740 0.008962
C32   C     C_1   0.059907 0.999713 0.500176 0.004817
C33   C     C_1   0.162477 0.999695 0.500591 -0.133811
C34   C     C_R   0.288711 0.307081 0.001340 -0.177422
Cu1   Cu    Cu3+1 0.526510 0.098270 0.475420 0.990513
Cu2   Cu    Cu3+1 0.473490 0.901730 0.524580 0.991524
H1    H     H_    0.284184 0.126361 0.863803 0.160553
H2    H     H_    0.780820 0.335017 0.265827 0.198643
H3    H     H_    0.294808 0.848008 0.695173 0.134912
H4    H     H_    0.263306 0.714129 0.787456 0.157946
H5    H     H_    0.201058 0.287407 0.044430 0.165844
H6    H     H_    0.722141 0.168867 0.320396 0.175853
N1    N     N_R   0.566700 0.246290 0.438210 -0.222748
N2    N     N_R   0.434010 0.754320 0.561170 -0.173134
O1    O     O_R   0.533340 0.972510 0.318140 -0.547138
O2    O     O_R   0.488570 0.806530 0.359650 -0.496137
O3    O     O_R   0.685190 0.083000 0.479260 -0.575774
O4    O     O_R   0.640410 0.917020 0.520770 -0.528678
O5    O     O_R   0.511430 0.193470 0.640350 -0.584090
O6    O     O_R   0.466660 0.027490 0.681860 -0.585949
O7    O     O_R   0.359590 0.082980 0.479230 -0.571297
O8    O     O_R   0.314810 0.917000 0.520740 -0.571704
O9    O     O_3   0.743271 0.505876 0.245808 -0.753132
H7    H     H_    0.720616 0.542290 0.201861 0.350084
O10   O     O_3   0.381144 0.328100 0.548437 -0.734804
H8    H     H_    0.383378 0.286967 0.595862 0.353687
C35   C     C_3   0.403423 0.548112 0.745785 -0.335865
C36   C     C_3   0.283374 0.497087 0.794258 -0.793977
H9    H     H_    0.230757 0.572080 0.865102 0.234677
H10   H     H_    0.230174 0.442126 0.725151 0.288635
H11   H     H_    0.298543 0.439036 0.831806 0.241675
H12   H     H_    0.470346 0.481736 0.710276 0.241199
H13   H     H_    0.436656 0.626611 0.820808 0.195637
O11   O     O_3   0.643628 0.720438 0.368425 -0.701036
H14   H     H_    0.732033 0.724056 0.350102 0.321533
C37   C     C_3   0.175170 0.506368 0.215288 -0.424698
C38   C     C_3   0.068483 0.500320 0.164940 -0.794649
H15   H     H_    0.985117 0.484058 0.221318 0.276479
H16   H     H_    0.065381 0.587055 0.162029 0.247392
H17   H     H_    0.072684 0.425668 0.075063 0.253477
H18   H     H_    0.172443 0.423526 0.227059 0.205291
H19   H     H_    0.165939 0.580274 0.306034 0.228626
O12   O     O_3   0.641698 0.345762 0.852358 -0.679184
H20   H     H_    0.667800 0.263033 0.799846 0.311296
O13   O     O_3   0.714475 0.901821 0.136898 -0.738378
H21   H     H_    0.797167 0.889366 0.092093 0.333961
O14   O     O_3   0.632824 0.516488 0.810557 -0.710046
H22   H     H_    0.701033 0.548376 0.767024 0.374430
O15   O     O_3   0.759064 0.743323 0.891058 -0.751748
H23   H     H_    0.765168 0.832454 0.918753 0.340990
O16   O     O_3   0.296922 0.743612 0.258908 -0.758343
H24   H     H_    0.211528 0.730956 0.255236 0.325102

loop_
_geom_bond_atom_site_label_1
_geom_bond_atom_site_label_2
_ccdc_geom_bond_type
C16   C28   A    
C21   C26   A    
C8    C13   A    
O12   H20   S    
C19   C20   A    
C12   O4    A    
Cu1   O3    S    
O16   H24   S    
Cu2   O6    S    
C35   H12   S    
O14   H22   S    
C19   C35   S    
C7    C11   A    
C25   O9    S    
C5    C6    A    
C27   O10   S    
C1    O2    A    
C23   O5    A    
C36   H10   S    
C29   C33   S    
C18   C19   A    
C17   H3    S    
C2    C13   A    
C18   H4    S    
C26   O11   S    
C37   H19   S    
C31   C32   S    
C8    C9    A    
Cu1   O5    S    
Cu2   O2    S    
C1    C15   S    
Cu1   N1    S    
C9    C10   A    
Cu2   O8    S    
C36   H11   S    
C7    C15   A    
C37   C38   S    
C16   C24   A    
C34   H5    S    
C12   O3    A    
C35   H13   S    
C10   C37   S    
C38   H15   S    
C24   C25   A    
C4    O15   S    
C23   O6    A    
C6    C8    A    
C25   C26   A    
O9    H7    S    
C11   O16   S    
C38   H16   S    
Cu1   Cu2   S    
O13   H21   S    
C21   N2    A    
C37   H18   S    
O10   H8    S    
C17   C18   A    
C13   O12   S    
C22   C27   A    
Cu1   O7    S    
C9    C34   A    
C22   C24   A    
Cu2   N2    S    
C5    O14   S    
C3    C4    A    
Cu1   O1    S    
C3    C15   A    
C3    O13   S    
C29   O7    A    
C12   C30   S    
C20   C22   A    
C4    C5    A    
C14   C34   A    
C6    C7    A    
C28   N1    A    
C38   H17   S    
C32   C33   T    
C36   H9    S    
C17   N2    A    
O11   H14   S    
C14   H1    S    
C1    O1    A    
C35   C36   S    
C30   C31   T    
C28   H6    S    
Cu2   O4    S    
C2    C14   A    
C10   C11   A    
O15   H23   S    
C27   N1    A    
C20   C21   A    
C2    C23   S    
C16   H2    S    
C29   O8    A    
