data_mof_unit_67508.cif
_audit_creation_date              2012-12-10T16:47:25-0500
_audit_creation_method            fapswitch 2.2
_symmetry_space_group_name_H-M    P1
_symmetry_Int_Tables_number       1
_space_group_crystal_system       triclinic
_cell_length_a                    10.561917
_cell_length_b                    8.796766
_cell_length_c                    7.641752
_cell_angle_alpha                 104.139996
_cell_angle_beta                  95.687972
_cell_angle_gamma                 94.506511
_cell_volume                      681.201126295

loop_
_atom_site_label
_atom_site_type_symbol
_atom_type_description
_atom_site_fract_x
_atom_site_fract_y
_atom_site_fract_z
_atom_type_partial_charge
C1    C     C_R   0.494246 0.200391 0.453103 0.716998
C2    C     C_R   0.506671 0.799976 0.546768 0.771917
C3    C     C_R   0.260068 0.501158 0.499658 0.752801
C4    C     C_R   0.739841 0.497046 0.500063 0.742258
C5    C     C_3   0.038172 0.363845 0.530945 -0.163826
C6    C     C_3   0.962093 0.631567 0.468636 -0.160351
C7    C     C_3   0.941529 0.373422 0.369414 -0.169153
C8    C     C_3   0.058414 0.621701 0.630209 -0.166146
C9    C     C_3   0.877093 0.494956 0.501447 0.021888
C10   C     C_3   0.122753 0.500615 0.498038 0.030769
C11   C     C_3   0.971247 0.484832 0.663472 -0.108867
C12   C     C_3   0.028669 0.510216 0.336083 -0.104441
C13   C     C_2   0.476735 0.030917 0.430838 0.186469
C14   C     C_2   0.525384 0.968690 0.567241 0.234062
Cu1   Cu    Cu3+1 0.514140 0.517380 0.684380 1.145855
Cu2   Cu    Cu3+1 0.485860 0.482620 0.315620 1.150916
H1    H     H_    0.890526 0.271480 0.263419 0.154839
H2    H     H_    0.110659 0.722694 0.735986 0.146970
H3    H     H_    0.078281 0.256447 0.552332 0.169101
H4    H     H_    0.925799 0.741283 0.447813 0.174938
H5    H     H_    0.945253 0.473639 0.797281 0.175093
H6    H     H_    0.054007 0.518598 0.201115 0.182219
N1    N     N_2   0.464560 0.456420 0.038510 0.116480
N2    N     N_2   0.535440 0.543580 0.961490 0.116343
O1    O     O_R   0.509190 0.286130 0.619780 -0.541071
O2    O     O_R   0.490810 0.713870 0.380220 -0.530701
O3    O     O_R   0.485310 0.256770 0.308360 -0.541413
O4    O     O_R   0.514690 0.743230 0.691640 -0.532372
O5    O     O_R   0.328790 0.514640 0.655680 -0.515347
O6    O     O_R   0.671210 0.485360 0.344320 -0.510384
O7    O     O_R   0.304910 0.485280 0.344260 -0.563224
O8    O     O_R   0.695090 0.514720 0.655740 -0.580654
S1    S     S_3+6 0.312593 0.366727 0.940720 0.121050
O9    O     O_2   0.223404 0.490855 0.935991 -0.357775
O10   O     O_2   0.309822 0.259166 0.755094 -0.309188
O11   O     O_3   0.255985 0.253033 0.068334 -0.547964
H7    H     H_    0.161695 0.242380 0.039674 0.335508
S2    S     S_3+6 0.687125 0.632702 0.058722 0.127670
O12   O     O_2   0.691506 0.737909 0.246011 -0.300528
O13   O     O_2   0.776658 0.507936 0.058495 -0.367510
O14   O     O_3   0.739957 0.749957 0.932842 -0.518388
H8    H     H_    0.830712 0.732141 0.923716 0.334089
O15   O     O_3   0.415363 0.933690 0.267611 -0.580422
C15   C     C_3   0.291071 0.974639 0.225198 0.145956
H9    H     H_    0.280458 0.973718 0.078905 0.217003
H10   H     H_    0.270904 0.092616 0.304306 0.141600
C16   C     C_3   0.190039 0.852653 0.253911 -0.401572
H11   H     H_    0.210881 0.733360 0.183189 0.278672
H12   H     H_    0.192735 0.859253 0.401405 0.203273
C17   C     C_3   0.057167 0.881463 0.178746 -0.917351
H13   H     H_    0.030427 0.995685 0.257350 0.253390
H14   H     H_    0.985653 0.785512 0.186556 0.283671
H15   H     H_    0.054844 0.882704 0.033823 0.247306
O16   O     O_3   0.596144 0.060390 0.726553 -0.568673
C18   C     C_3   0.721162 0.107722 0.692380 0.090806
H16   H     H_    0.747783 0.232075 0.771005 0.200282
H17   H     H_    0.729450 0.104954 0.547027 0.095571
C19   C     C_3   0.816900 0.006361 0.757488 -0.321227
H18   H     H_    0.816395 0.021048 0.905972 0.261203
H19   H     H_    0.788890 0.881100 0.683546 0.232662
C20   C     C_3   0.951752 0.053578 0.722110 -0.970000
H20   H     H_    0.954844 0.035686 0.573833 0.261693
H21   H     H_    0.019427 0.979245 0.772240 0.256184
H22   H     H_    0.982017 0.178712 0.794274 0.271042

loop_
_geom_bond_atom_site_label_1
_geom_bond_atom_site_label_2
_ccdc_geom_bond_type
C20   H22   S    
N2    S2    S    
O15   C15   S    
Cu1   O5    S    
C5    H3    S    
C16   H12   S    
C19   C20   S    
C6    H4    S    
O14   H8    S    
C17   H14   S    
C16   H11   S    
C15   C16   S    
C16   C17   S    
C18   H16   S    
C7    C9    S    
Cu2   O3    S    
C17   H13   S    
C4    C9    S    
Cu1   O8    S    
C2    O2    A    
C3    C10   S    
C13   C14   D    
Cu2   O7    S    
C1    O1    A    
C9    C11   S    
C3    O5    A    
Cu1   O4    S    
C4    O8    A    
C10   C12   S    
C6    C9    S    
C8    C11   S    
C6    C8    S    
C3    O7    A    
C5    C10   S    
O11   H7    S    
S2    O13   D    
S1    O9    D    
C5    C11   S    
Cu2   N1    S    
C5    C7    S    
C18   H17   S    
C6    C12   S    
C20   H20   S    
C2    C14   S    
C8    H2    S    
C7    C12   S    
Cu1   O1    S    
C17   H15   S    
C1    C13   S    
N1    N2    D    
Cu2   O6    S    
Cu1   Cu2   S    
C14   O16   S    
C12   H6    S    
C13   O15   S    
S1    O11   S    
S2    O12   D    
C15   H9    S    
N1    S1    S    
S2    O14   S    
C1    O3    A    
C18   C19   S    
C20   H21   S    
O16   C18   S    
Cu1   N2    S    
C2    O4    A    
S1    O10   D    
C19   H18   S    
C19   H19   S    
C11   H5    S    
C8    C10   S    
C4    O6    A    
C15   H10   S    
C7    H1    S    
Cu2   O2    S    
