data_mof_unit_62536.cif
_audit_creation_date              2012-12-10T21:21:39-0500
_audit_creation_method            fapswitch 2.2
_symmetry_space_group_name_H-M    P1
_symmetry_Int_Tables_number       1
_space_group_crystal_system       triclinic
_cell_length_a                    17.614079
_cell_length_b                    16.763535
_cell_length_c                    23.476443
_cell_angle_alpha                 89.876685
_cell_angle_beta                  91.173983
_cell_angle_gamma                 89.995363
_cell_volume                      6930.51742568

loop_
_atom_site_label
_atom_site_type_symbol
_atom_type_description
_atom_site_fract_x
_atom_site_fract_y
_atom_site_fract_z
_atom_type_partial_charge
C1    C     C_R   0.353012 0.500003 0.499935 1.031703
C2    C     C_R   0.646932 0.500000 0.499239 1.030259
C3    C     C_R   0.494008 0.426217 0.238373 0.745967
C4    C     C_R   0.506627 0.573811 0.761616 0.745778
C5    C     C_R   0.494150 0.427370 0.297480 -0.355536
C6    C     C_R   0.506254 0.572649 0.702506 -0.355219
C7    C     C_R   0.500664 0.500108 0.326822 -0.278360
C8    C     C_R   0.499685 0.499897 0.673184 -0.277942
C9    C     C_R   0.507759 0.571857 0.296019 0.649170
C10   C     C_R   0.492887 0.428134 0.704012 0.649686
C11   C     C_R   0.507584 0.570264 0.236917 -0.253349
C12   C     C_R   0.493291 0.429738 0.763116 -0.253426
C13   C     C_R   0.500579 0.497721 0.208232 0.074827
C14   C     C_R   0.500258 0.502302 0.791780 0.075212
C15   C     C_R   0.847393 0.572448 0.484109 0.573531
C16   C     C_R   0.151526 0.427596 0.487423 0.573911
C17   C     C_R   0.151525 0.572444 0.487119 0.576075
C18   C     C_R   0.847435 0.427591 0.484410 0.575682
C19   C     C_R   0.769345 0.572785 0.490591 0.515573
C20   C     C_R   0.229886 0.427261 0.494242 0.512384
C21   C     C_R   0.229885 0.572772 0.493936 0.503382
C22   C     C_R   0.769388 0.427241 0.490893 0.505949
C23   C     C_R   0.729503 0.500009 0.494291 -0.537830
C24   C     C_R   0.270051 0.500013 0.496705 -0.536510
C25   C     C_R   0.885878 0.500023 0.481117 -0.435137
C26   C     C_R   0.112970 0.500022 0.483453 -0.435414
C27   C     C_R   0.500198 0.500127 0.389065 0.950055
C28   C     C_R   0.499876 0.499874 0.610936 0.954014
C29   C     C_1   0.965718 0.500031 0.478841 0.294013
C30   C     C_1   0.033069 0.500029 0.479590 0.293890
C31   C     C_R   0.452042 0.832994 0.462875 0.525694
C32   C     C_R   0.548082 0.167093 0.537194 0.525291
C33   C     C_R   0.548046 0.832696 0.537182 0.526556
C34   C     C_R   0.452038 0.167215 0.462916 0.527107
C35   C     C_R   0.452790 0.748678 0.463346 -0.077013
C36   C     C_R   0.547382 0.251411 0.536579 -0.074797
C37   C     C_R   0.547381 0.748387 0.536569 -0.078657
C38   C     C_R   0.452750 0.251523 0.463386 -0.080137
C39   C     C_R   0.499991 0.875860 0.500089 -0.184687
C40   C     C_R   0.500033 0.124139 0.500103 -0.184846
C41   C     C_1   0.500014 0.963524 0.500122 0.247244
C42   C     C_1   0.500036 0.036475 0.500132 0.247285
C43   C     C_R   0.568249 0.511314 0.881195 0.592551
C44   C     C_R   0.432611 0.488758 0.118812 0.592671
C45   C     C_R   0.433548 0.493988 0.879433 0.578308
C46   C     C_R   0.567313 0.506075 0.120581 0.578493
C47   C     C_R   0.432294 0.492561 0.938762 -0.036730
C48   C     C_R   0.568569 0.507517 0.061250 -0.036771
C49   C     C_R   0.500983 0.500848 0.969992 -0.011182
C50   C     C_R   0.499880 0.499233 0.030018 -0.011225
C51   C     C_R   0.570562 0.510663 0.941277 -0.075060
C52   C     C_R   0.430299 0.489418 0.058732 -0.074950
C53   C     C_R   0.363738 0.482816 0.967034 -0.159191
C54   C     C_R   0.637123 0.517268 0.032977 -0.158993
C55   C     C_R   0.361855 0.481092 0.026267 -0.032874
C56   C     C_R   0.639005 0.518995 0.973742 -0.032898
H1    H     H_    0.310913 0.476354 0.942894 0.201269
H2    H     H_    0.689949 0.523731 0.057117 0.201333
H3    H     H_    0.489072 0.371358 0.320138 0.219754
H4    H     H_    0.511191 0.628663 0.679825 0.219593
H5    H     H_    0.512885 0.625387 0.213178 0.208132
H6    H     H_    0.488162 0.374611 0.786875 0.207844
N1    N     N_R   0.500651 0.503040 0.852355 -0.325320
N2    N     N_R   0.500209 0.497012 0.147656 -0.325303
N3    N     N_R   0.500000 0.707230 0.500000 -0.189013
N4    N     N_R   0.500000 0.292770 0.500000 -0.189076
O1    O     O_R   0.389110 0.566570 0.500000 -0.590559
O2    O     O_R   0.610890 0.433430 0.500000 -0.590461
O3    O     O_R   0.610890 0.566570 0.500000 -0.575295
O4    O     O_R   0.389110 0.433430 0.500000 -0.575382
O5    O     O_R   0.499970 0.566560 0.416150 -0.581698
O6    O     O_R   0.500030 0.433440 0.583850 -0.580818
O7    O     O_R   0.500030 0.566560 0.583850 -0.653158
O8    O     O_R   0.499970 0.433440 0.416150 -0.653692
O9    O     O_2   0.632415 0.519499 0.851346 -0.513742
O10   O     O_2   0.368439 0.480583 0.148657 -0.513902
O11   O     O_2   0.368271 0.486490 0.848728 -0.514536
O12   O     O_2   0.632589 0.513563 0.151289 -0.514525
Zn1   Zn    Zn3+2 0.500000 0.588860 0.500000 1.028706
Zn2   Zn    Zn3+2 0.500000 0.411140 0.500000 1.028855
C57   C     C_1   0.403181 0.706636 0.424320 0.555636
N5    N     N_1   0.363135 0.673309 0.392733 -0.116267
C58   C     C_1   0.597598 0.293574 0.575100 0.549621
N6    N     N_1   0.638187 0.327027 0.606225 -0.117127
C59   C     C_1   0.597768 0.706039 0.574997 0.476774
N7    N     N_1   0.638543 0.672462 0.606023 -0.133654
C60   C     C_1   0.402919 0.293752 0.424487 0.482041
N8    N     N_1   0.362638 0.327202 0.393029 -0.133752
C61   C     C_1   0.288238 0.470513 0.051375 0.331284
N9    N     N_1   0.229161 0.462026 0.071225 -0.098262
C62   C     C_1   0.712621 0.529578 0.948633 0.331212
N10   N     N_1   0.771697 0.538068 0.928782 -0.098480
F1    F     F_    0.487743 0.355760 0.210320 -0.603606
F2    F     F_    0.512875 0.644284 0.789651 -0.603995
F3    F     F_    0.515536 0.643312 0.322597 -0.622147
F4    F     F_    0.485197 0.356651 0.677456 -0.622323
F5    F     F_    0.885628 0.642705 0.481431 -0.530564
F6    F     F_    0.113109 0.357350 0.485248 -0.530523
F7    F     F_    0.113108 0.642697 0.484645 -0.531846
F8    F     F_    0.885711 0.357342 0.482027 -0.531844
F9    F     F_    0.733380 0.644307 0.493022 -0.567276
F10   F     F_    0.265767 0.355777 0.498711 -0.568826
F11   F     F_    0.265766 0.644255 0.498086 -0.580466
F12   F     F_    0.733469 0.355712 0.493640 -0.579051
F13   F     F_    0.404819 0.872893 0.426216 -0.582021
F14   F     F_    0.595464 0.127283 0.573787 -0.583145
F15   F     F_    0.595436 0.872299 0.573758 -0.582589
F16   F     F_    0.404764 0.127523 0.426305 -0.581335

loop_
_geom_bond_atom_site_label_1
_geom_bond_atom_site_label_2
_ccdc_geom_bond_type
O2    Zn2   S    
C60   N8    T    
N3    Zn1   S    
C19   F9    S    
C41   C42   T    
C33   F15   S    
C16   F6    S    
O5    Zn1   S    
C57   N5    T    
C35   C57   S    
C43   N1    A    
C39   C41   S    
C59   N7    T    
C44   N2    A    
C15   C19   A    
C33   C39   A    
C34   C40   A    
C17   C26   A    
C32   C36   A    
C37   C59   S    
C2    O2    A    
C36   N4    A    
C15   C25   A    
C20   F10   S    
C35   N3    A    
C36   C58   S    
C7    C27   S    
C51   C56   A    
C45   C47   A    
C44   O10   S    
C56   C62   S    
C20   C24   A    
C49   C51   A    
C37   N3    A    
C50   C52   A    
C27   O8    A    
C9    F3    S    
C3    C13   A    
C52   C55   A    
C47   C53   A    
C44   C52   A    
C48   C50   A    
C32   F14   S    
C43   O9    S    
C31   F13   S    
C28   O6    A    
C18   C25   A    
C18   F8    S    
C15   F5    S    
C28   O7    A    
C46   C48   A    
C53   C55   A    
C25   C29   S    
C54   C56   A    
C5    H3    S    
O4    Zn2   S    
C6    H4    S    
O1    Zn1   S    
C4    C6    A    
C62   N10   T    
C46   O12   S    
C53   H1    S    
C6    C8    A    
C3    C5    A    
C17   F7    S    
C33   C37   A    
C46   N2    A    
C48   C54   A    
C19   C23   A    
C29   C30   T    
C12   H6    S    
C58   N6    T    
C10   F4    S    
C16   C20   A    
O7    Zn1   S    
C3    F1    S    
C9    C11   A    
C10   C12   A    
C4    F2    S    
C8    C10   A    
C12   C14   A    
C26   C30   S    
C8    C28   S    
C31   C35   A    
O3    Zn1   S    
C2    O3    A    
C27   O5    A    
C5    C7    A    
C54   H2    S    
C7    C9    A    
C38   N4    A    
C34   C38   A    
C11   H5    S    
C16   C26   A    
C47   C49   A    
N4    Zn2   S    
C1    O4    A    
C38   C60   S    
C34   F16   S    
C18   C22   A    
C22   F12   S    
O6    Zn2   S    
C11   C13   A    
C43   C51   A    
C13   N2    S    
C45   N1    A    
C14   N1    S    
C40   C42   S    
C1    O1    A    
C31   C39   A    
C32   C40   A    
C4    C14   A    
C17   C21   A    
C21   F11   S    
C1    C24   S    
C55   C61   S    
C49   C50   A    
O8    Zn2   S    
C21   C24   A    
C2    C23   S    
C22   C23   A    
C45   O11   S    
C61   N9    T    
