data_mof_unit_39102.cif
_audit_creation_date              2012-12-11T15:55:43-0500
_audit_creation_method            fapswitch 2.2
_symmetry_space_group_name_H-M    P1
_symmetry_Int_Tables_number       1
_space_group_crystal_system       triclinic
_cell_length_a                    6.951163
_cell_length_b                    14.536143
_cell_length_c                    16.101429
_cell_angle_alpha                 89.999807
_cell_angle_beta                  90.108776
_cell_angle_gamma                 90.047137
_cell_volume                      1626.93480811

loop_
_atom_site_label
_atom_site_type_symbol
_atom_type_description
_atom_site_fract_x
_atom_site_fract_y
_atom_site_fract_z
_atom_type_partial_charge
O1    O     O_R   0.505680 0.583900 0.413320 -0.539527
O2    O     O_R   0.176010 0.594950 0.586080 -0.543591
O3    O     O_R   0.005680 0.416100 0.586680 -0.535467
C1    C     C_R   0.345142 0.617119 0.615007 0.684828
O4    O     O_R   0.175960 0.594930 0.413930 -0.543374
O5    O     O_R   0.005640 0.416080 0.413300 -0.539498
C2    C     C_R   0.344951 0.617115 0.385010 0.687963
O6    O     O_R   0.505720 0.583920 0.586700 -0.540056
O7    O     O_3   0.339190 0.441320 0.500000 -0.375150
V1    V     V_3+5 0.064350 0.510890 0.500000 1.394888
O8    O     O_R   0.675920 0.405050 0.413920 -0.544469
C3    C     C_R   0.844713 0.382986 0.385011 0.714567
O9    O     O_R   0.675960 0.405070 0.586070 -0.549739
C4    C     C_R   0.845166 0.382400 0.614321 0.703723
V2    V     V_3+5 0.564340 0.489110 0.500000 1.385835
O10   O     O_3   0.839370 0.558680 0.500000 -0.370506
C5    C     C_R   0.017080 0.310448 0.735520 0.050995
C6    C     C_R   0.855184 0.315719 0.684008 -0.069001
C7    C     C_R   0.703722 0.254780 0.700291 -0.159651
H1    H     H_    0.583023 0.253562 0.658846 0.123866
C8    C     C_R   0.714237 0.190639 0.765665 -0.097730
H2    H     H_    0.599182 0.141221 0.772911 0.128294
C9    C     C_R   0.876284 0.186797 0.818135 -0.114360
C10   C     C_R   0.024827 0.249714 0.803182 0.008117
C11   C     C_3   0.230501 0.227263 0.787083 0.012951
C12   C     C_3   0.218122 0.287906 0.710013 0.027203
H3    H     H_    0.256397 0.152840 0.775417 0.133702
H4    H     H_    0.315793 0.348682 0.709454 0.126755
C13   C     C_R   0.041646 0.242131 0.204963 0.420626
C14   C     C_R   0.028844 0.303524 0.272059 -0.231979
H5    H     H_    0.155262 0.343127 0.288743 0.137343
C15   C     C_R   0.855823 0.315462 0.315729 -0.112224
C16   C     C_R   0.695024 0.263121 0.291942 -0.151411
H6    H     H_    0.559285 0.270526 0.324162 0.144447
C17   C     C_R   0.708003 0.199361 0.226998 -0.202618
H7    H     H_    0.581719 0.159093 0.211663 0.184898
C18   C     C_R   0.880847 0.187318 0.182696 -0.158063
C19   C     C_R   0.188505 0.724345 0.717596 -0.157979
H8    H     H_    0.048091 0.705692 0.693700 0.117046
C20   C     C_R   0.199487 0.787933 0.782798 -0.153779
H9    H     H_    0.067023 0.816441 0.806920 0.118297
C21   C     C_R   0.378591 0.814385 0.816212 -0.045906
C22   C     C_R   0.546400 0.775464 0.782506 -0.158558
H10   H     H_    0.686814 0.794118 0.806401 0.116556
C23   C     C_R   0.535418 0.711877 0.717304 -0.152585
H11   H     H_    0.667883 0.683375 0.693178 0.118754
C24   C     C_R   0.356316 0.685438 0.683878 -0.046527
C25   C     C_R   0.188499 0.724401 0.282126 -0.158487
H12   H     H_    0.048045 0.705831 0.305802 0.116794
C26   C     C_R   0.199736 0.787963 0.216925 -0.150131
H13   H     H_    0.067324 0.816528 0.192589 0.118787
C27   C     C_R   0.378954 0.814330 0.183785 -0.048033
C28   C     C_R   0.546609 0.775299 0.217745 -0.157537
H14   H     H_    0.687058 0.793864 0.194059 0.116274
C29   C     C_R   0.535371 0.711733 0.282948 -0.151052
H15   H     H_    0.667775 0.683157 0.307281 0.118711
C30   C     C_R   0.356155 0.685413 0.316121 -0.047430
O11   O     O_R   0.229200 0.915950 0.913350 -0.542580
O12   O     O_R   0.559090 0.905000 0.086080 -0.543703
O13   O     O_R   0.729280 0.083880 0.086680 -0.543754
C31   C     C_R   0.390121 0.882729 0.114976 0.692295
O14   O     O_R   0.558920 0.904980 0.913920 -0.544615
O15   O     O_R   0.729110 0.083860 0.913300 -0.538262
C32   C     C_R   0.389777 0.882754 0.885041 0.677004
O16   O     O_R   0.229360 0.915970 0.086730 -0.539622
O17   O     O_3   0.395680 0.058580 0.000030 -0.367099
V3    V     V_3+5 0.670570 0.989070 0.999990 1.397028
O18   O     O_R   0.058820 0.094950 0.913870 -0.548546
C33   C     C_R   0.889631 0.116929 0.885097 0.682801
O19   O     O_R   0.058990 0.094970 0.086020 -0.511428
C34   C     C_R   0.890420 0.117894 0.114436 0.714232
V4    V     V_3+5 0.170560 0.010930 0.999930 1.423582
O20   O     O_3   0.895590 0.941310 0.999960 -0.374468
N1    N     N_3   0.357592 0.265587 0.851000 -0.677415
H16   H     H_    0.315972 0.332776 0.865956 0.222480
H17   H     H_    0.341561 0.225860 0.904608 0.252223
N2    N     N_3   0.216689 0.234768 0.632402 -0.665753
H18   H     H_    0.266280 0.277240 0.584645 0.245562
H19   H     H_    0.311335 0.179131 0.636298 0.214170
O21   O     O_3   0.215569 0.234001 0.164149 -0.552949
C35   C     C_3   0.225854 0.302571 0.102098 0.099337
H20   H     H_    0.184460 0.371815 0.126033 0.101015
H21   H     H_    0.130164 0.284130 0.049115 0.110498
C36   C     C_3   0.431582 0.309289 0.070605 -0.716214
H22   H     H_    0.481839 0.241086 0.048549 0.238724
H23   H     H_    0.439098 0.359184 0.018514 0.170451
H24   H     H_    0.527741 0.333499 0.121211 0.219202

loop_
_geom_bond_atom_site_label_1
_geom_bond_atom_site_label_2
_ccdc_geom_bond_type
C14   C15   A    
C29   H15   S    
C4    C6    S    
C17   H7    S    
C36   H24   S    
C1    O6    A    
C35   H20   S    
C25   C30   A    
C18   C34   S    
C28   H14   S    
N1    H17   S    
O14   V3    S    
C5    C12   S    
C7    C8    A    
C36   H23   S    
C6    C7    A    
C27   C31   S    
O5    C3    A    
C14   H5    S    
V2    O10   S    
C5    C6    A    
C11   N1    S    
C23   C24   A    
C9    C33   S    
O14   C32   A    
O12   V3    S    
O8    V2    S    
O17   V4    S    
O15   C33   A    
O13   V3    S    
O18   C33   A    
C26   C27   A    
C9    C10   A    
O19   C34   A    
V3    O20   S    
O7    V1    S    
N2    H18   S    
N2    H19   S    
O17   V3    S    
O9    C4    A    
C3    C15   S    
C35   H21   S    
C26   H13   S    
C28   C29   A    
C8    C9    A    
O11   C32   A    
O15   V3    S    
O12   C31   A    
C5    C10   A    
N1    H16   S    
C12   N2    S    
C10   C11   S    
O4    C2    A    
V4    O20   S    
O13   C34   A    
C11   C12   S    
C23   H11   S    
O2    C1    A    
C22   H10   S    
C13   C14   A    
C20   C21   A    
O18   V4    S    
C16   H6    S    
C36   H22   S    
C22   C23   A    
C19   C24   A    
O3    C4    A    
O1    V2    S    
C20   H9    S    
O6    V2    S    
C29   C30   A    
C21   C22   A    
O2    V1    S    
C21   C32   S    
C35   C36   S    
C27   C28   A    
C25   H12   S    
C17   C18   A    
O1    C2    A    
O21   C35   S    
O5    V1    S    
O8    C3    A    
C11   H3    S    
O16   V4    S    
C12   H4    S    
C15   C16   A    
C7    H1    S    
O9    V2    S    
O7    V2    S    
O4    V1    S    
O3    V1    S    
V1    O10   S    
C19   C20   A    
O11   V4    S    
C19   H8    S    
C13   O21   S    
C25   C26   A    
C16   C17   A    
C31   O16   A    
C13   C18   A    
O19   V4    S    
C8    H2    S    
C2    C30   S    
C1    C24   S    
