data_mof_unit_58980.cif
_audit_creation_date              2013-03-05T15:45:56-0500
_audit_creation_method            fapswitch 2.2
_symmetry_space_group_name_H-M    P1
_symmetry_Int_Tables_number       1
_space_group_crystal_system       triclinic
_cell_length_a                    18.416337
_cell_length_b                    18.432852
_cell_length_c                    18.307171
_cell_angle_alpha                 120.668309
_cell_angle_beta                  120.502202
_cell_angle_gamma                 59.52491
_cell_volume                      4339.5582212

loop_
_atom_site_label
_atom_site_type_symbol
_atom_site_description
_atom_site_fract_x
_atom_site_fract_y
_atom_site_fract_z
_atom_type_partial_charge
Zn1   Zn    Zn3+2 0.956630 0.130130 0.543370 0.940674
Zn2   Zn    Zn3+2 0.130140 0.956620 0.543380 0.983967
Zn3   Zn    Zn3+2 0.956630 0.956620 0.369870 0.977051
Zn4   Zn    Zn3+2 0.956610 0.956630 0.543370 0.972311
O1    O     O_3   1.000000 0.000000 0.500000 -0.481762
O2    O     O_R   0.055060 0.884200 0.615800 -0.654819
O3    O     O_R   0.884210 0.176520 0.444920 -0.652419
O4    O     O_R   0.176540 0.055080 0.615800 -0.637926
O5    O     O_R   0.884190 0.884200 0.323480 -0.640185
O6    O     O_R   0.176540 0.884190 0.444930 -0.639790
O7    O     O_R   0.884180 0.055090 0.615790 -0.614146
O8    O     O_R   0.055100 0.884190 0.323490 -0.636900
O9    O     O_R   0.884190 0.176530 0.615790 -0.687687
O10   O     O_R   0.055100 0.176520 0.615800 -0.640346
O11   O     O_R   0.884180 0.884200 0.444920 -0.645041
O12   O     O_R   0.176510 0.884190 0.615800 -0.622745
O13   O     O_R   0.884210 0.055080 0.323480 -0.635361
C1    C     C_R   0.140209 0.861435 0.641381 0.848339
C2    C     C_R   0.854652 0.140184 0.359819 0.802770
C3    C     C_R   0.140055 0.139987 0.639817 0.790304
C4    C     C_R   0.862066 0.857859 0.358932 0.789690
C5    C     C_R   0.139814 0.861572 0.359791 0.797753
C6    C     C_R   0.864485 0.140998 0.644286 0.812730
C7    C     C_R   0.679202 0.168518 0.561775 -0.213439
C8    C     C_R   0.588574 0.181582 0.516744 -0.035011
C9    C     C_R   0.528787 0.239097 0.564459 0.016333
C10   C     C_R   0.560167 0.282457 0.658375 0.040229
C11   C     C_R   0.655092 0.266498 0.706864 0.012967
C12   C     C_R   0.713743 0.210873 0.655953 0.050952
C13   C     C_R   0.694442 0.302242 0.802873 -0.116655
C14   C     C_R   0.788367 0.287638 0.845932 0.010317
C15   C     C_R   0.840368 0.250153 0.790990 -0.036752
C16   C     C_R   0.805575 0.201791 0.698204 -0.116626
C17   C     C_R   0.833029 0.311207 0.942002 -0.001027
C18   C     C_R   0.922338 0.305647 0.979269 -0.278105
C19   C     C_R   0.967209 0.285261 0.925654 0.179151
C20   C     C_R   0.925783 0.261849 0.832326 0.111678
H1    H     H_    0.722206 0.125968 0.521002 0.141239
H2    H     H_    0.956190 0.322551 0.051626 0.151737
H3    H     H_    0.794260 0.086002 0.178311 0.183683
C21   C     C_R   0.745653 0.338148 0.429571 0.145771
C22   C     C_R   0.740722 0.427864 0.473450 -0.179283
H4    H     H_    0.734397 0.463807 0.539816 0.154432
C23   C     C_R   0.746548 0.470774 0.433342 -0.180714
H5    H     H_    0.751483 0.537222 0.471493 0.144015
C24   C     C_R   0.745062 0.428829 0.344112 0.137195
C25   C     C_R   0.735531 0.342772 0.294335 0.039039
C26   C     C_R   0.756514 0.291619 0.343314 0.044692
C27   C     C_R   0.789889 0.197068 0.304054 -0.099840
C28   C     C_R   0.772517 0.158024 0.210761 -0.192661
H6    H     H_    0.707299 0.179963 0.085444 0.180345
C29   C     C_R   0.726080 0.211636 0.158034 -0.196250
C30   C     C_R   0.706325 0.304629 0.198696 -0.103036
C31   C     C_R   0.893861 0.709154 0.406441 0.131425
C32   C     C_R   0.882545 0.677086 0.453743 0.179069
C33   C     C_R   0.800558 0.667786 0.425214 -0.222756
H7    H     H_    0.788719 0.647908 0.463518 0.144126
C34   C     C_R   0.734799 0.679471 0.344501 -0.200799
H8    H     H_    0.672408 0.673607 0.327526 0.183408
C35   C     C_R   0.748104 0.704353 0.292091 0.087393
C36   C     C_R   0.820075 0.735642 0.332749 0.010632
C37   C     C_R   0.813359 0.794361 0.299801 -0.129573
C38   C     C_R   0.751141 0.799291 0.213896 -0.017682
H9    H     H_    0.652157 0.748015 0.095847 0.173549
C39   C     C_R   0.696068 0.747874 0.163694 -0.246936
C40   C     C_R   0.692940 0.700669 0.201513 -0.089734
C41   C     C_R   0.155329 0.938540 0.837740 -0.001381
C42   C     C_R   0.159517 0.969022 0.927307 0.071301
C43   C     C_R   0.210401 0.909980 0.975861 0.012986
C44   C     C_R   0.257422 0.821770 0.935927 -0.226832
H10   H     H_    0.297973 0.779365 0.977013 0.141451
C45   C     C_R   0.253280 0.788784 0.845715 0.023853
C46   C     C_R   0.200415 0.846674 0.794166 -0.040834
C47   C     C_R   0.197151 0.810063 0.702516 -0.087204
C48   C     C_R   0.247941 0.720869 0.665959 0.044022
C49   C     C_R   0.301622 0.665626 0.718701 0.043572
C50   C     C_R   0.303259 0.699164 0.807248 -0.057033
H11   H     H_    0.133157 0.708939 0.227527 0.152517
C51   C     C_R   0.269271 0.923167 0.379277 -0.220010
H12   H     H_    0.226249 0.968378 0.419889 0.148832
C52   C     C_R   0.332927 0.951222 0.390155 0.017352
C53   C     C_R   0.387646 0.896296 0.336297 0.025842
C54   C     C_R   0.377921 0.814117 0.272060 -0.224242
H13   H     H_    0.419164 0.775062 0.229707 0.146117
C55   C     C_R   0.315219 0.783884 0.261693 0.039664
C56   C     C_R   0.260162 0.839245 0.316037 0.083072
C57   C     C_R   0.195423 0.810270 0.303550 -0.071987
C58   C     C_R   0.183420 0.730093 0.236802 -0.258170
C59   C     C_R   0.237506 0.674986 0.183569 0.087628
C60   C     C_R   0.304181 0.700867 0.196593 -0.059819
H14   H     H_    0.176221 0.226778 0.591966 0.150151
C61   C     C_R   0.222827 0.167417 0.830349 -0.153512
H15   H     H_    0.184285 0.122751 0.788196 0.144014
C62   C     C_R   0.258234 0.182675 0.922151 -0.167753
H16   H     H_    0.246786 0.150256 0.948906 0.151597
C63   C     C_R   0.306805 0.240687 0.979847 -0.105185
H17   H     H_    0.332223 0.253315 0.051616 0.150080
C64   C     C_R   0.322563 0.283375 0.947016 0.094986
C65   C     C_R   0.289010 0.266588 0.851593 0.037473
C66   C     C_R   0.236321 0.209220 0.793824 0.074479
C67   C     C_R   0.196315 0.195900 0.700549 -0.065444
C68   C     C_R   0.208128 0.237308 0.663670 -0.231141
C69   C     C_R   0.261426 0.290857 0.717472 -0.011555
C70   C     C_R   0.303174 0.304951 0.810717 -0.106357
Zn5   Zn    Zn3+2 0.543340 0.369890 0.956600 0.980275
Zn6   Zn    Zn3+2 0.543340 0.543410 0.130100 0.946150
Zn7   Zn    Zn3+2 0.369830 0.543410 0.956590 0.978280
Zn8   Zn    Zn3+2 0.543370 0.543400 0.956600 0.979754
O14   O     O_3   0.499970 0.500030 0.999970 -0.483245
O15   O     O_R   0.615800 0.615830 0.055050 -0.631899
O16   O     O_R   0.444880 0.323510 0.884180 -0.647503
O17   O     O_R   0.615760 0.444950 0.176490 -0.655642
O18   O     O_R   0.323460 0.615830 0.884170 -0.643490
O19   O     O_R   0.444880 0.615840 0.176480 -0.656863
O20   O     O_R   0.615800 0.444940 0.884180 -0.635325
O21   O     O_R   0.323440 0.615840 0.055040 -0.624851
O22   O     O_R   0.615780 0.323500 0.884180 -0.634772
O23   O     O_R   0.615760 0.323500 0.055050 -0.634383
O24   O     O_R   0.444910 0.615830 0.884180 -0.634681
O25   O     O_R   0.615780 0.615830 0.176490 -0.679165
O26   O     O_R   0.323430 0.444950 0.884170 -0.632521
C71   C     C_R   0.638613 0.641968 0.141611 0.815493
C72   C     C_R   0.359960 0.360192 0.862301 0.785566
C73   C     C_R   0.644243 0.360107 0.140862 0.828627
C74   C     C_R   0.359875 0.639616 0.859880 0.830323
C75   C     C_R   0.360144 0.641073 0.140255 0.822251
C76   C     C_R   0.638170 0.359703 0.858525 0.802182
N1    N     N_3   0.054842 0.291474 0.966250 -0.434446
H18   H     H_    0.051214 0.356694 0.011346 0.184974
H19   H     H_    0.096813 0.248054 0.003333 0.179316
N2    N     N_3   0.725585 0.301611 0.467620 -0.454081
H20   H     H_    0.777918 0.294048 0.527264 0.229737
H21   H     H_    0.717074 0.239777 0.423224 0.176606
N3    N     N_3   0.769256 0.467692 0.312426 -0.448711
H22   H     H_    0.784454 0.422711 0.253396 0.195810
H23   H     H_    0.715238 0.523870 0.299540 0.225848
C77   C     C_1   0.740415 0.857257 0.175303 0.221501
N4    N     N_1   0.731642 0.903619 0.144310 -0.194447
N5    N     N_3   0.983189 0.701370 0.425888 -0.448224
H24   H     H_    0.001782 0.751072 0.486790 0.223129
H25   H     H_    0.987965 0.707204 0.374778 0.160290
N6    N     N_3   0.955096 0.653722 0.530244 -0.434153
H26   H     H_    0.965817 0.712883 0.581319 0.188715
H27   H     H_    0.937360 0.627157 0.555092 0.182505
N7    N     N_3   0.242991 0.686623 0.573838 -0.463408
H28   H     H_    0.219367 0.632678 0.538092 0.188449
H29   H     H_    0.307054 0.664273 0.572254 0.194428
C78   C     C_1   0.107359 0.005319 0.795307 0.186423
N8    N     N_1   0.068798 0.058930 0.761413 -0.252382
N9    N     N_3   0.112358 0.061042 0.968685 -0.461499
H30   H     H_    0.158618 0.089954 0.025992 0.181533
H31   H     H_    0.067402 0.062902 0.988912 0.200259
C79   C     C_1   0.216572 0.939452 0.068020 0.136976
N10   N     N_1   0.221553 0.962973 0.141840 -0.196590
N11   N     N_3   0.353694 0.574196 0.682483 -0.460588
H32   H     H_    0.398224 0.573057 0.662287 0.191358
H33   H     H_    0.310853 0.540245 0.626329 0.198096
C80   C     C_1   0.340194 0.037177 0.456407 0.166214
N12   N     N_1   0.345979 0.105995 0.509511 -0.186954
C81   C     C_1   0.558033 0.137251 0.420161 0.172995
N13   N     N_1   0.533700 0.101867 0.342881 -0.187684
C82   C     C_1   0.453891 0.923120 0.345182 0.161641
N14   N     N_1   0.507094 0.944379 0.352258 -0.182782
N15   N     N_3   0.226402 0.591067 0.117608 -0.449181
H34   H     H_    0.235353 0.553217 0.150684 0.181520
H35   H     H_    0.160646 0.603917 0.072886 0.199995
N16   N     N_3   0.369357 0.345422 0.014115 -0.480689
H36   H     H_    0.432116 0.321914 0.009335 0.204222
H37   H     H_    0.330906 0.408843 0.008281 0.198768
C83   C     C_1   0.272195 0.331357 0.675094 0.193897
N17   N     N_1   0.280670 0.363993 0.641379 -0.182452
C84   C     C_1   0.433698 0.254969 0.516704 0.224865
N18   N     N_1   0.357862 0.267552 0.478384 -0.177206
N19   N     N_3   0.492487 0.344178 0.699730 -0.460053
H38   H     H_    0.496727 0.408359 0.731520 0.200575
H39   H     H_    0.494664 0.320461 0.741993 0.207845
C85   C     C_1   0.793631 0.337574 0.006584 0.165852
N20   N     N_1   0.763328 0.359090 0.059475 -0.224510
N21   N     N_3   0.962178 0.271783 0.786126 -0.429336
H40   H     H_    0.911301 0.308383 0.743631 0.211757
H41   H     H_    0.000528 0.210121 0.752636 0.223225

loop_
_geom_bond_atom_site_label_1
_geom_bond_atom_site_label_2
_geom_bond_distance
_ccdc_geom_bond_type
C57   C58   1.393242 A    
C38   C39   1.382671 A    
C67   C68   1.388867 A    
C12   C16   1.415443 A    
N11   H33   1.045041 S    
Zn7   O14   1.945758 S    
C21   C22   1.398170 A    
C31   C32   1.404654 A    
C18   C19   1.385510 A    
C32   C33   1.397364 A    
N1    H18   1.045629 S    
C52   C53   1.402907 A    
N16   H37   1.044221 S    
C70   C72   1.455648 S    
Zn6   O17   1.939384 S    
C55   C56   1.413537 A    
C48   N7    1.437783 S    
C9    C10   1.409576 A    
O4    C3    1.274955 A    
Zn6   O19   1.934507 S    
C54   H13   1.081745 S    
Zn1   O1    1.944114 S    
Zn8   O20   1.927676 S    
C11   C12   1.417890 A    
O17   C73   1.273188 A    
C13   C14   1.430336 A    
O19   C75   1.272497 A    
O18   C74   1.280466 A    
C83   N17   1.157161 T    
C34   C35   1.411595 A    
C64   C65   1.440836 A    
O8    C5    1.272728 A    
O20   C76   1.282935 A    
Zn8   O14   1.961679 S    
O9    C6    1.270679 A    
C17   C18   1.393693 A    
C46   C47   1.434535 A    
O7    C6    1.295395 A    
N19   H38   1.043824 S    
Zn7   O18   1.941347 S    
Zn3   O8    1.934652 S    
C69   C70   1.410848 A    
C45   C50   1.414575 A    
C13   C76   1.446190 S    
C25   C26   1.408375 A    
O25   C71   1.268304 A    
C42   C43   1.399829 A    
C6    C16   1.460355 S    
C63   C64   1.398474 A    
C69   C83   1.447683 S    
C7    H1    1.082757 S    
C40   C71   1.465679 S    
C44   H10   1.082545 S    
C41   C46   1.435774 A    
Zn2   O12   1.941495 S    
C59   N15   1.434389 S    
C64   N16   1.432329 S    
C25   C30   1.421619 A    
C36   C37   1.416017 A    
C65   C70   1.432906 A    
Zn5   O16   1.937080 S    
C9    C84   1.450396 S    
C1    C47   1.459963 S    
C32   N6    1.436730 S    
O21   C75   1.270904 A    
C38   C77   1.447162 S    
Zn8   O24   1.933360 S    
Zn5   O22   1.936647 S    
C19   N1    1.432861 S    
C22   C23   1.390959 A    
O2    C1    1.281387 A    
C10   N19   1.435972 S    
N7    H29   1.045009 S    
C23   C24   1.398093 A    
N7    H28   1.045110 S    
N19   H39   1.042664 S    
C20   N21   1.433912 S    
N11   H32   1.045025 S    
C47   C48   1.406773 A    
O16   C72   1.277197 A    
C68   C69   1.384699 A    
O10   C3    1.276595 A    
C7    C8    1.386125 A    
Zn4   O2    1.933418 S    
N16   H36   1.042708 S    
C21   N2    1.437969 S    
C56   C57   1.415492 A    
Zn4   O1    1.961528 S    
N3    H23   1.040992 S    
C3    C67   1.454873 S    
C53   C82   1.444857 S    
Zn3   O1    1.930200 S    
C8    C9    1.395338 A    
C15   C20   1.436213 A    
C53   C54   1.397780 A    
O6    C5    1.270283 A    
C41   C42   1.409274 A    
C35   C36   1.406923 A    
C18   H2    1.085402 S    
C48   C49   1.399809 A    
C37   C38   1.416099 A    
Zn3   O5    1.944922 S    
C24   N3    1.434661 S    
C2    C27   1.466844 S    
C28   C29   1.384768 A    
C31   N5    1.439378 S    
O11   C4    1.284415 A    
N5    H24   1.043212 S    
C63   H17   1.083409 S    
C8    C81   1.446773 S    
C61   C62   1.385697 A    
C60   C75   1.451892 S    
C14   C17   1.439801 A    
C62   H16   1.082925 S    
O23   C73   1.280437 A    
C5    C57   1.448452 S    
C49   C50   1.399230 A    
Zn4   O7    1.927677 S    
C62   C63   1.384960 A    
O22   C76   1.277256 A    
C4    C37   1.460502 S    
O24   C74   1.279803 A    
O12   C1    1.282507 A    
C26   C27   1.419815 A    
C54   C55   1.415028 A    
C85   N20   1.156976 T    
O3    C2    1.271437 A    
C80   N12   1.157356 T    
N9    H31   1.045597 S    
Zn5   O23   1.932260 S    
Zn2   O1    1.945758 S    
Zn1   O9    1.936599 S    
C33   H7    1.082525 S    
Zn7   O26   1.936534 S    
H14   C68   1.085741 S    
N2    H20   1.044653 S    
Zn2   O6    1.926816 S    
C10   C11   1.449162 A    
C50   C74   1.455524 S    
C84   N18   1.157279 T    
C61   C66   1.411079 A    
C51   C52   1.397959 A    
C82   N14   1.157234 T    
H11   C58   1.084766 S    
Zn5   O14   1.944263 S    
C24   C25   1.422286 A    
N15   H34   1.045757 S    
C52   C80   1.445430 S    
Zn6   O25   1.944921 S    
Zn1   O3    1.932261 S    
C14   C15   1.415614 A    
Zn2   O4    1.936536 S    
C23   H5    1.082614 S    
C45   C46   1.420527 A    
N2    H21   1.044557 S    
C30   C73   1.470940 S    
N1    H19   1.045467 S    
C44   C45   1.413448 A    
C55   C60   1.418622 A    
Zn8   O15   1.929065 S    
N3    H22   1.044632 S    
C31   C36   1.429317 A    
N21   H40   1.045248 S    
C77   N4    1.157527 T    
C49   N11   1.437277 S    
N9    H30   1.045613 S    
C65   C66   1.427018 A    
C15   C16   1.421403 A    
Zn4   O11   1.929064 S    
N15   H35   1.045611 S    
C34   H8    1.075961 S    
H6    C29   1.083176 S    
O15   C71   1.292460 A    
N5    H25   1.044315 S    
O5    C4    1.270272 A    
H3    C28   1.083248 S    
H9    C39   1.085464 S    
C11   C13   1.434748 A    
C61   H15   1.079700 S    
O13   C2    1.279297 A    
C21   C26   1.426263 A    
C33   C34   1.392822 A    
Zn3   O13   1.939384 S    
N6    H27   1.045809 S    
C78   N8    1.154238 T    
C39   C40   1.394877 A    
C43   C44   1.389238 A    
C81   N13   1.157302 T    
C43   C79   1.444818 S    
Zn7   O21   1.926708 S    
O26   C72   1.273966 A    
C42   N9    1.438065 S    
C35   C40   1.425267 A    
C51   H12   1.082211 S    
C7    C12   1.415640 A    
C58   C59   1.386712 A    
C19   C20   1.395004 A    
C27   C28   1.400809 A    
C22   H4    1.083010 S    
C41   C78   1.440424 S    
N6    H26   1.045595 S    
C17   C85   1.444803 S    
C66   C67   1.413389 A    
Zn1   O10   1.937329 S    
N21   H41   1.039730 S    
C59   C60   1.404666 A    
C51   C56   1.414400 A    
C29   C30   1.401931 A    
C79   N10   1.157398 T    
Zn6   O14   1.930198 S    
