data_mof_unit_18435.cif
_audit_creation_date              2012-10-26T19:52:26-0400
_audit_creation_method            fapswitch 2.2
_symmetry_space_group_name_H-M    P1
_symmetry_Int_Tables_number       1
_space_group_crystal_system       triclinic
_cell_length_a                    9.59181
_cell_length_b                    10.877217
_cell_length_c                    13.511377
_cell_angle_alpha                 92.201861
_cell_angle_beta                  71.779968
_cell_angle_gamma                 91.15345
_cell_volume                      1337.9571188

loop_
_atom_site_label
_atom_site_type_symbol
_atom_type_description
_atom_site_fract_x
_atom_site_fract_y
_atom_site_fract_z
_atom_type_partial_charge
C1    C     C_R   0.499342 0.737453 0.504506 0.546270
C2    C     C_R   0.373135 0.492951 0.815113 -0.000024
C3    C     C_R   0.365992 0.933183 0.529573 0.021398
C4    C     C_R   0.420954 0.494339 0.699993 0.530621
C5    C     C_R   0.495280 0.870489 0.519118 0.010325
C6    C     C_R   0.618941 0.938660 0.524350 -0.155116
C7    C     C_R   0.617616 0.067215 0.523262 -0.148054
C8    C     C_R   0.493761 0.128793 0.515129 0.010867
C9    C     C_R   0.365635 0.059917 0.526198 0.019660
C10   C     C_3   0.266062 0.054155 0.460753 -0.275098
C11   C     C_3   0.262564 0.916214 0.467817 -0.261239
C12   C     C_R   0.433767 0.498836 0.979063 0.036433
C13   C     C_R   0.934141 0.393324 0.480640 0.153480
C14   C     C_R   0.912796 0.600473 0.534086 -0.010609
C15   C     C_R   0.060627 0.599679 0.535643 -0.016098
C16   C     C_R   0.498155 0.262078 0.502575 0.555087
C17   C     C_R   0.082223 0.396023 0.476170 0.122205
C18   C     C_3   0.130587 0.320597 0.378646 -0.234262
C19   C     C_3   0.969680 0.298837 0.391514 -0.040041
C20   C     C_R   0.578624 0.505065 0.300043 0.564644
C21   C     C_R   0.800964 0.473916 0.016581 -0.121471
C22   C     C_R   0.621054 0.507615 0.185493 0.004380
C23   C     C_R   0.472179 0.466614 0.871025 0.028569
C24   C     C_R   0.232087 0.535887 0.869765 -0.134971
C25   C     C_R   0.192064 0.561075 0.976354 -0.131265
C26   C     C_R   0.291638 0.545187 0.030406 -0.102662
C27   C     C_R   0.542108 0.489943 0.030179 0.029308
C28   C     C_R   0.688528 0.461168 0.971186 0.049840
C29   C     C_R   0.719805 0.417013 0.868742 -0.139184
C30   C     C_R   0.610185 0.411722 0.821864 -0.117900
C31   C     C_R   0.509755 0.506591 0.138319 -0.133097
C32   C     C_R   0.767459 0.504768 0.122398 -0.113797
Cu1   Cu    Cu3+1 0.359330 0.500020 0.500010 0.938880
Cu2   Cu    Cu3+1 0.640670 0.499980 0.499990 0.969248
H1    H     H_    0.855375 0.520929 0.155275 0.157846
H2    H     H_    0.828551 0.384171 0.825389 0.110342
H3    H     H_    0.934355 0.205747 0.421332 0.108144
H4    H     H_    0.914077 0.458643 0.970326 0.118384
H5    H     H_    0.397472 0.512881 0.187513 0.124156
H6    H     H_    0.154591 0.556472 0.829221 0.127879
H7    H     H_    0.255714 0.574699 0.111410 0.111399
H8    H     H_    0.085294 0.599320 0.016746 0.117151
H9    H     H_    0.636881 0.365406 0.746278 0.147263
H10   H     H_    0.718799 0.893254 0.523460 0.124941
H11   H     H_    0.311962 0.867222 0.391348 0.150786
H12   H     H_    0.715919 0.117277 0.523622 0.127667
H13   H     H_    0.157649 0.095984 0.502006 0.129636
H14   H     H_    0.323520 0.082507 0.379845 0.141472
H15   H     H_    0.153604 0.881106 0.515135 0.121780
H16   H     H_    0.848247 0.682626 0.560247 0.112056
H17   H     H_    0.104302 0.680246 0.564882 0.115088
H18   H     H_    0.189076 0.377603 0.311288 0.165520
H19   H     H_    0.189123 0.238017 0.383675 0.114889
I1    I     I_    0.930956 0.317216 0.247256 -0.421380
N1    N     N_R   0.852320 0.499070 0.499340 -0.219541
N2    N     N_R   0.148230 0.499110 0.499340 -0.232714
O1    O     O_R   0.381190 0.680360 0.500000 -0.511944
O2    O     O_R   0.618780 0.680320 0.499990 -0.514627
O3    O     O_R   0.323230 0.500000 0.650990 -0.502979
O4    O     O_R   0.560820 0.499960 0.650980 -0.513187
O5    O     O_R   0.381220 0.319680 0.500010 -0.499056
O6    O     O_R   0.618810 0.319640 0.500000 -0.498601
O7    O     O_R   0.439180 0.500040 0.349020 -0.511656
O8    O     O_R   0.676770 0.500000 0.349010 -0.457041

loop_
_geom_bond_atom_site_label_1
_geom_bond_atom_site_label_2
_ccdc_geom_bond_type
C25   H8    S    
C20   O8    A    
C2    C4    S    
C7    H12   S    
C23   C30   A    
C6    C7    A    
C3    C9    A    
C15   H17   S    
C9    C10   S    
C2    C24   A    
C29   H2    S    
C13   C17   A    
Cu1   O7    S    
C15   N2    A    
C4    O4    A    
C20   O7    A    
Cu2   O8    S    
C14   N1    A    
C18   H18   S    
Cu2   N1    S    
Cu1   O3    S    
Cu2   O6    S    
C6    H10   S    
C1    O2    A    
C24   C25   A    
Cu2   O4    S    
C12   C23   A    
C29   C30   A    
C22   C32   A    
Cu1   N2    S    
C1    C5    S    
C16   O5    A    
C4    O3    A    
Cu1   O5    S    
C28   C29   A    
C24   H6    S    
C21   C28   A    
C31   H5    S    
C17   C18   S    
C17   N2    A    
C2    C23   A    
C10   H14   S    
C5    C6    A    
C21   C32   A    
C30   H9    S    
C11   H11   S    
C3    C11   S    
C22   C31   A    
C14   H16   S    
C12   C27   A    
C27   C31   A    
C32   H1    S    
C7    C8    A    
Cu1   Cu2   S    
C11   H15   S    
C19   I1    S    
C8    C16   S    
C18   C19   S    
C10   C11   S    
C12   C26   A    
C27   C28   A    
Cu2   O2    S    
C13   C19   S    
C14   C15   A    
Cu1   O1    S    
C19   H3    S    
C18   H19   S    
C3    C5    A    
C25   C26   A    
C10   H13   S    
C16   O6    A    
C21   H4    S    
C26   H7    S    
C20   C22   S    
C8    C9    A    
C13   N1    A    
C1    O1    A    
