data_mof_unit_24732.cif
_audit_creation_date              2012-12-11T21:12:36-0500
_audit_creation_method            fapswitch 2.2
_symmetry_space_group_name_H-M    P1
_symmetry_Int_Tables_number       1
_space_group_crystal_system       triclinic
_cell_length_a                    8.221673
_cell_length_b                    18.803228
_cell_length_c                    26.956663
_cell_angle_alpha                 99.317737
_cell_angle_beta                  92.725843
_cell_angle_gamma                 88.291521
_cell_volume                      4106.66584874

loop_
_atom_site_label
_atom_site_type_symbol
_atom_type_description
_atom_site_fract_x
_atom_site_fract_y
_atom_site_fract_z
_atom_type_partial_charge
Ba1   Ba    Ba6+2 0.160810 0.465630 0.521640 1.641493
Ba2   Ba    Ba6+2 0.649380 0.534380 0.478400 1.639728
C1    C     C_3   0.582565 0.215028 0.662703 -0.371216
C2    C     C_R   0.060863 0.094983 0.445380 -0.087250
C3    C     C_R   0.186433 0.947318 0.446303 -0.069528
C4    C     C_3   0.966372 0.270298 0.619829 0.382314
C5    C     C_R   0.041322 0.973432 0.469683 0.038886
C6    C     C_R   0.244944 0.877458 0.447073 -0.105342
C7    C     C_R   0.161685 0.829572 0.470826 -0.025750
C8    C     C_R   0.017208 0.853976 0.495505 0.007522
C9    C     C_R   0.956751 0.926114 0.494999 0.035037
C10   C     C_R   0.218225 0.757760 0.470439 -0.013083
C11   C     C_R   0.124566 0.709772 0.490836 -0.294052
C12   C     C_3   0.486510 0.280092 0.647080 0.396339
C13   C     C_R   0.985645 0.732918 0.517214 0.041493
C14   C     C_R   0.934655 0.806627 0.521388 -0.032044
C15   C     C_R   0.836252 0.069399 0.494635 -0.012710
C16   C     C_3   0.998638 0.194455 0.632229 -0.374327
C17   C     C_R   0.781379 0.142862 0.497239 -0.004127
C18   C     C_R   0.871981 0.192479 0.475676 -0.025526
C19   C     C_R   0.005920 0.165941 0.447611 -0.028951
C20   C     C_R   0.806782 0.835185 0.551561 -0.032970
C21   C     C_R   0.749905 0.905800 0.551847 -0.108269
C22   C     C_R   0.813153 0.950422 0.520290 0.009083
C23   C     C_3   0.468580 0.314026 0.398244 0.307242
C24   C     C_R   0.744204 0.020152 0.516173 -0.057537
C25   C     C_R   0.584674 0.042829 0.531838 0.360984
C26   C     C_R   0.634212 0.166395 0.520499 -0.109834
C27   C     C_R   0.536239 0.115169 0.536063 -0.071440
C28   C     C_3   0.841723 0.622364 0.632121 0.299084
C29   C     C_R   0.585966 0.240066 0.525527 -0.000810
C30   C     C_R   0.684477 0.289205 0.508104 -0.291823
C31   C     C_R   0.824165 0.266712 0.482129 0.041609
C32   C     C_R   0.305613 0.452003 0.175259 0.587192
C33   C     C_R   0.164686 0.565199 0.174285 0.581519
C34   C     C_3   0.467877 0.232559 0.382854 -0.388973
C35   C     C_2   0.026169 0.523620 0.268822 -0.070895
C36   C     C_3   0.990675 0.518319 0.322958 -0.051760
C37   C     C_1   0.278237 0.492181 0.336511 0.010930
C38   C     C_2   0.313646 0.496088 0.289760 -0.095712
C39   C     C_2   0.180195 0.511331 0.252456 0.201238
C40   C     C_3   0.845251 0.640670 0.689175 -0.359400
C41   C     C_R   0.301904 0.507339 0.099345 -0.078745
C42   C     C_R   0.352218 0.451011 0.125516 -0.031481
C43   C     C_R   0.449859 0.394874 0.101764 -0.062403
C44   C     C_R   0.205990 0.564464 0.123814 -0.030613
C45   C     C_3   0.857295 0.722431 0.377096 0.349389
C46   C     C_2   0.145432 0.523624 0.355732 -0.288011
C47   C     C_2   0.647224 0.470634 0.637466 -0.282500
C48   C     C_R   0.482315 0.445105 0.973375 0.021031
C49   C     C_R   0.348315 0.564095 0.972684 0.019929
C50   C     C_R   0.437754 0.503895 0.947950 0.049246
C51   C     C_R   0.564055 0.384848 0.946298 -0.103294
C52   C     C_3   0.979611 0.368616 0.365555 0.298984
C53   C     C_R   0.603187 0.383051 0.896634 -0.063231
C54   C     C_R   0.563943 0.441297 0.871532 -0.024209
C55   C     C_R   0.482575 0.502133 0.897110 -0.081523
C56   C     C_3   0.862463 0.796735 0.361956 -0.362400
C57   C     C_R   0.445314 0.560855 0.871761 -0.036078
C58   C     C_R   0.492780 0.558364 0.821590 0.596470
C59   C     C_R   0.602571 0.438708 0.820946 0.575723
C60   C     C_2   0.747383 0.459940 0.725502 -0.095528
C61   C     C_3   0.753381 0.429012 0.670486 -0.050010
C62   C     C_1   0.521782 0.509928 0.656688 0.037144
C63   C     C_2   0.485400 0.516197 0.704933 -0.109715
C64   C     C_3   0.014590 0.338098 0.311130 -0.365259
C65   C     C_2   0.607499 0.492650 0.743060 0.185657
C66   C     C_R   0.442507 0.447729 0.024519 0.020835
C67   C     C_3   0.343174 0.696624 0.349975 0.294896
C68   C     C_R   0.347544 0.506410 0.048680 0.049829
C69   C     C_R   0.297917 0.564093 0.022779 0.019887
C70   C     C_R   0.495162 0.393475 0.052680 -0.101803
C71   C     C_R   0.154111 0.619871 0.097420 -0.061524
C72   C     C_R   0.313082 0.622429 0.946189 -0.099589
C73   C     C_R   0.361292 0.620877 0.897097 -0.060426
C74   C     C_R   0.198333 0.619676 0.048100 -0.100572
C75   C     C_3   0.334066 0.685589 0.591267 0.308012
C76   C     C_3   0.342216 0.766957 0.606603 -0.372810
C77   C     C_3   0.414932 0.329435 0.692536 -0.153559
C78   C     C_3   0.368399 0.711600 0.297234 -0.350938
C79   C     C_3   0.323678 0.290896 0.728396 -0.327292
C80   C     C_R   0.981843 0.045680 0.470027 0.033046
H1    H     H_    0.756544 0.685199 0.700992 0.136852
H2    H     H_    0.406039 0.669653 0.557245 0.068808
H3    H     H_    0.498198 0.176368 0.674928 0.126492
H4    H     H_    0.268292 0.784558 0.640027 0.128987
H5    H     H_    0.294486 0.794701 0.575461 0.066339
H6    H     H_    0.470421 0.782743 0.615948 0.122054
H7    H     H_    0.574756 0.314248 0.631518 -0.056708
H8    H     H_    0.672297 0.233660 0.693933 0.104023
H9    H     H_    0.596302 0.330923 0.406984 0.023616
H10   H     H_    0.396764 0.327931 0.432483 0.060304
H11   H     H_    0.540916 0.216410 0.349086 0.133060
H12   H     H_    0.813263 0.593074 0.705672 0.068223
H13   H     H_    0.521343 0.206072 0.414000 0.059540
H14   H     H_    0.340920 0.214230 0.374159 0.114839
H15   H     H_    0.650097 0.185904 0.630490 0.087751
H16   H     H_    0.936337 0.154593 0.603294 0.075804
H17   H     H_    0.745782 0.719721 0.398292 0.117841
H18   H     H_    0.966105 0.715001 0.401757 -0.037348
H19   H     H_    0.848186 0.838949 0.395659 0.074916
H20   H     H_    0.981375 0.803595 0.345263 0.113716
H21   H     H_    0.761452 0.803428 0.333889 0.140401
H22   H     H_    0.213743 0.708563 0.358697 -0.015187
H23   H     H_    0.969076 0.657515 0.703688 0.133107
H24   H     H_    0.372009 0.638842 0.350503 0.066260
H25   H     H_    0.288133 0.676904 0.269875 0.128305
H26   H     H_    0.497059 0.699804 0.287414 0.143913
H27   H     H_    0.023853 0.273805 0.583791 0.099247
H28   H     H_    0.338336 0.768935 0.295008 0.118189
H29   H     H_    0.164948 0.654046 0.488269 0.069713
H30   H     H_    0.357318 0.861923 0.428718 0.107099
H31   H     H_    0.072182 0.199568 0.427124 0.100450
H32   H     H_    0.749952 0.803733 0.575820 0.093455
H33   H     H_    0.416824 0.129932 0.550038 0.132560
H34   H     H_    0.093551 0.389317 0.385378 0.024312
H35   H     H_    0.646757 0.345417 0.512293 0.070420
H36   H     H_    0.260830 0.979709 0.427423 0.066930
H37   H     H_    0.166433 0.080782 0.423498 0.057274
H38   H     H_    0.657701 0.925162 0.578255 0.125678
H39   H     H_    0.832648 0.277971 0.614731 -0.084453
H40   H     H_    0.437712 0.487888 0.278594 0.122572
H41   H     H_    0.493417 0.351628 0.121333 0.122936
H42   H     H_    0.842804 0.444342 0.751044 0.123694
H43   H     H_    0.665255 0.335185 0.877867 0.121386
H44   H     H_    0.596963 0.336818 0.961857 0.068725
H45   H     H_    0.886815 0.412728 0.366631 0.038431
H46   H     H_    0.574367 0.349304 0.038368 0.069641
H47   H     H_    0.925299 0.530975 0.242512 0.106806
H48   H     H_    0.078156 0.664017 0.114881 0.121934
H49   H     H_    0.250075 0.671062 0.962539 0.069530
H50   H     H_    0.130787 0.180603 0.632412 0.155167
H51   H     H_    0.330843 0.667136 0.878793 0.121890
H52   H     H_    0.363560 0.533035 0.716318 0.130461
H53   H     H_    0.150092 0.663773 0.030660 0.069617
H54   H     H_    0.146247 0.549969 0.394701 0.070688
H55   H     H_    0.652603 0.454190 0.597135 0.086073
H56   H     H_    0.097271 0.290086 0.309816 0.146960
H57   H     H_    0.951928 0.190310 0.669791 0.111911
H58   H     H_    0.717087 0.607592 0.618115 0.010726
H59   H     H_    0.926770 0.576121 0.621396 0.076517
H60   H     H_    0.241184 0.250108 0.707618 0.159688
H61   H     H_    0.411277 0.263721 0.752154 0.121324
H62   H     H_    0.251230 0.331389 0.753645 0.132291
H63   H     H_    0.515032 0.357918 0.714276 0.102917
H64   H     H_    0.333477 0.370509 0.678792 0.149374
H65   H     H_    0.481226 0.951076 0.514678 0.302826
H66   H     H_    0.074054 0.378326 0.292832 0.079340
H67   H     H_    0.899208 0.321995 0.289704 0.117458
H68   H     H_    0.205897 0.670616 0.582931 0.003282
N1    N     N_R   0.215674 0.509460 0.199731 -0.425495
N2    N     N_R   0.569163 0.497194 0.796142 -0.420504
O1    O     O_2   0.106080 0.324280 0.466820 -0.470624
O2    O     O_2   0.659866 0.563936 0.331865 -0.493591
O3    O     O_3   0.857624 0.669726 0.333693 -0.594343
O4    O     O_3   0.859130 0.413620 0.470620 -0.482038
O5    O     O_3   0.459240 0.537930 0.559910 -0.491587
O6    O     O_2   0.583120 0.462390 0.379940 -0.464422
O7    O     O_3   0.400067 0.346621 0.358500 -0.632472
O8    O     O_2   0.559200 0.757515 0.477479 -0.495354
O9    O     O_3   0.446851 0.740136 0.384173 -0.610381
O10   O     O_2   0.344334 0.401121 0.196695 -0.599884
O11   O     O_2   0.664090 0.383409 0.798835 -0.623287
O12   O     O_3   0.396001 0.652857 0.631371 -0.622962
O13   O     O_2   0.085229 0.615956 0.195688 -0.599015
O14   O     O_2   0.467078 0.611008 0.800851 -0.596291
O15   O     O_3   0.376230 0.370290 0.556910 -0.471800
O16   O     O_2   0.246899 0.243297 0.519728 -0.497624
O17   O     O_3   0.918764 0.313222 0.387312 -0.644181
O18   O     O_3   0.358453 0.255098 0.612399 -0.596771
O19   O     O_2   0.227190 0.537650 0.620070 -0.462536
O20   O     O_3   0.971110 0.406970 0.583250 -0.484934
O21   O     O_2   0.089794 0.460977 0.674916 -0.499711
O22   O     O_3   0.466195 0.995704 0.539071 -0.741756
O23   O     O_3   0.031490 0.322260 0.658725 -0.590895
O24   O     O_2   0.704230 0.675760 0.533200 -0.467611
O25   O     O_3   0.951180 0.586390 0.529420 -0.488996
O26   O     O_3   0.434080 0.629720 0.443130 -0.472340
O27   O     O_3   0.887919 0.683176 0.612953 -0.639530
O28   O     O_3   0.351080 0.462080 0.440130 -0.477515
O29   O     O_3   0.839200 0.593040 0.416790 -0.487021
P1    P     P_3+3 0.929380 0.335110 0.452880 0.974153
P2    P     P_3+3 0.398530 0.559060 0.613740 0.998865
P3    P     P_3+3 0.962509 0.407575 0.647656 0.947253
P4    P     P_3+3 0.880940 0.664900 0.547160 0.977552
P5    P     P_3+3 0.835040 0.584740 0.351089 0.973758
P6    P     P_3+3 0.392619 0.276447 0.552813 0.941916
P7    P     P_3+3 0.399850 0.440283 0.376976 0.961060
P8    P     P_3+3 0.414460 0.722483 0.444639 0.925044

loop_
_geom_bond_atom_site_label_1
_geom_bond_atom_site_label_2
_ccdc_geom_bond_type
C76   H5    S    
C53   C54   A    
C47   C61   S    
C47   H55   S    
C1    H3    S    
C16   H50   S    
C17   C18   A    
C49   C72   A    
C30   H35   S    
C12   O18   S    
C60   H42   S    
Ba1   P2    S    
H65   O22   S    
O25   P4    S    
O24   P4    D    
C77   H63   S    
C75   C76   S    
C43   H41   S    
C5    C9    A    
C10   P8    S    
C13   P4    S    
C78   H25   S    
C24   C25   A    
C60   C61   S    
C28   H59   S    
Ba2   O28   S    
C60   C65   D    
C70   H46   S    
C1    H8    S    
C15   C24   A    
O19   P2    D    
C26   C27   A    
C67   O9    S    
O8    P8    D    
Ba1   Ba2   S    
C6    H30   S    
C69   C74   A    
Ba1   O28   S    
C55   C57   A    
C25   C27   A    
C4    O23   S    
Ba1   O15   S    
C13   C14   A    
C9    C22   A    
C45   H17   S    
C54   C55   A    
C15   C80   A    
C58   N2    Am   
C33   N1    Am   
O20   P3    S    
O28   P7    S    
Ba2   O24   S    
C62   P2    S    
Ba1   O25   S    
C34   H11   S    
C79   H62   S    
C53   H43   S    
O21   P3    D    
C6    C7    A    
C63   C65   S    
C52   H34   S    
O18   P6    S    
C23   O7    S    
C48   C50   A    
C21   C22   A    
C2    H37   S    
C68   C69   A    
C56   H20   S    
Ba2   O25   S    
C7    C8    A    
C64   H66   S    
C63   H52   S    
Ba2   O6    S    
Ba2   O4    S    
C76   H4    S    
C75   O12   S    
C27   H33   S    
C57   C58   A    
C47   C62   D    
C59   O11   D    
C72   H49   S    
C43   C70   A    
C52   O17   S    
C49   C69   A    
C25   O22   S    
C7    C10   A    
C74   H53   S    
C77   H64   S    
C51   C53   A    
C4    C16   S    
C23   H9    S    
C48   C51   A    
C28   H58   S    
C72   C73   A    
C49   C50   A    
C32   C42   A    
C64   H67   S    
C19   H31   S    
C50   C55   A    
C21   H38   S    
C3    C5    A    
O26   P8    S    
O4    P1    S    
C15   C17   A    
C75   H2    S    
C36   P5    S    
C67   H24   S    
Ba1   O19   S    
C58   O14   D    
C45   H18   S    
Ba2   O29   S    
O7    P7    S    
Ba1   O4    S    
C41   C42   A    
C12   H7    S    
C35   C36   S    
O2    P5    D    
C1    H15   S    
C29   C30   A    
C64   H56   S    
C20   H32   S    
C66   C70   A    
O15   P6    S    
O1    P1    D    
C54   C59   A    
C56   H19   S    
C12   C77   S    
C10   C11   A    
Ba1   O1    S    
C17   C26   A    
C59   N2    Am   
C1    C12   S    
C52   C64   S    
C18   C31   A    
C32   N1    Am   
O9    P8    S    
C79   H60   S    
C41   C68   A    
C8    C9    A    
C11   C13   A    
C71   C74   A    
C37   P7    S    
C78   H28   S    
C57   C73   A    
C37   C38   D    
C42   C43   A    
C77   C79   S    
C67   H22   S    
C76   H6    S    
C71   H48   S    
C38   C39   S    
C23   H10   S    
C14   C20   A    
C61   P3    S    
C65   N2    S    
C40   H12   S    
C36   C46   S    
C46   H54   S    
C26   C29   A    
C40   H1    S    
C22   C24   A    
C32   O10   D    
O3    P5    S    
O6    P7    D    
C75   H68   S    
C3    C6    A    
O29   P5    S    
C73   H51   S    
O27   P4    S    
C4    H27   S    
C38   H40   S    
C52   H45   S    
C78   H26   S    
Ba1   O20   S    
C3    H36   S    
C62   C63   D    
Ba1   O5    S    
C39   N1    S    
Ba2   P4    S    
C11   H29   S    
O12   P2    S    
C8    C14   A    
C30   C31   A    
C45   C56   S    
C2    C19   A    
C34   H13   S    
C28   O27   S    
C45   O3    S    
Ba2   O5    S    
C34   H14   S    
C33   O13   D    
C35   H47   S    
C35   C39   D    
C16   H57   S    
C16   H16   S    
C41   C44   A    
O17   P1    S    
C51   H44   S    
C23   C34   S    
C79   H61   S    
C5    C80   A    
C2    C80   A    
C18   C19   A    
C66   C68   A    
C40   H23   S    
C29   P6    S    
C31   P1    S    
O16   P6    D    
C20   C21   A    
C28   C40   S    
C67   C78   S    
C56   H21   S    
Ba2   O26   S    
C4    H39   S    
C33   C44   A    
C48   C66   A    
C44   C71   A    
Ba1   P1    S    
O5    P2    S    
C37   C46   D    
O23   P3    S    
