data_mof_unit_12622.cif
_audit_creation_date              2013-03-05T15:53:16-0500
_audit_creation_method            fapswitch 2.2
_symmetry_space_group_name_H-M    P1
_symmetry_Int_Tables_number       1
_space_group_crystal_system       triclinic
_cell_length_a                    17.443993
_cell_length_b                    24.705267
_cell_length_c                    14.934081
_cell_angle_alpha                 89.494625
_cell_angle_beta                  125.579841
_cell_angle_gamma                 90.67396
_cell_volume                      5234.03174425

loop_
_atom_site_label
_atom_site_type_symbol
_atom_site_description
_atom_site_fract_x
_atom_site_fract_y
_atom_site_fract_z
_atom_type_partial_charge
C1    C     C_R   0.318137 0.367873 0.912324 -0.114921
C2    C     C_R   0.655790 0.352427 0.093999 -0.124805
C3    C     C_R   0.819134 0.866170 0.912974 -0.112950
C4    C     C_R   0.176098 0.863156 0.092861 -0.101440
H1    H     H_    0.269143 0.350390 0.832057 0.115934
H2    H     H_    0.702081 0.340994 0.179880 0.111790
H3    H     H_    0.766742 0.851688 0.831160 0.110774
H4    H     H_    0.229502 0.853225 0.178087 0.106703
N1    N     N_R   0.395410 0.396350 0.944340 -0.046034
N2    N     N_R   0.604590 0.396350 0.055660 -0.043430
N3    N     N_R   0.895410 0.896350 0.944340 -0.045508
N4    N     N_R   0.104590 0.896350 0.055660 -0.045608
C5    C     C_R   0.435963 0.648577 0.089117 0.345126
C6    C     C_R   0.559485 0.651034 0.910769 0.350225
C7    C     C_R   0.928757 0.145049 0.090251 0.335418
C8    C     C_R   0.062573 0.149984 0.911412 0.359474
N5    N     N_R   0.449930 0.602500 0.055880 -0.099769
N6    N     N_R   0.550070 0.602500 0.944120 -0.091972
N7    N     N_R   0.949930 0.102500 0.055880 -0.095401
N8    N     N_R   0.050070 0.102500 0.944120 -0.095796
C9    C     C_R   0.551556 0.453405 0.303379 -0.179005
C10   C     C_R   0.520473 0.453722 0.754049 -0.171351
C11   C     C_R   0.050123 0.954207 0.304371 -0.135424
C12   C     C_R   0.013996 0.954302 0.745165 -0.124048
H5    H     H_    0.574822 0.412601 0.331833 0.148368
H6    H     H_    0.533252 0.411969 0.747463 0.110153
H7    H     H_    0.069833 0.913056 0.333605 0.093256
H8    H     H_    0.016838 0.913141 0.725715 0.128132
N9    N     N_R   0.525080 0.471030 0.205650 -0.052324
N10   N     N_R   0.474920 0.471030 0.794350 -0.055313
N11   N     N_R   0.025080 0.971030 0.205650 -0.052488
N12   N     N_R   0.974920 0.971030 0.794350 -0.053973
C13   C     C_R   0.232677 0.544741 0.750646 -0.088026
C14   C     C_R   0.762084 0.544829 0.294193 -0.056324
C15   C     C_R   0.732170 0.044438 0.748955 -0.093486
C16   C     C_R   0.260507 0.045019 0.295926 -0.076086
H9    H     H_    0.210874 0.586231 0.742397 0.102457
H10   H     H_    0.778422 0.586215 0.323050 0.132941
H11   H     H_    0.709298 0.085723 0.738985 0.100178
H12   H     H_    0.275769 0.086427 0.324694 0.130296
N13   N     N_R   0.320260 0.527820 0.794570 -0.034479
N14   N     N_R   0.679740 0.527820 0.205430 -0.049180
N15   N     N_R   0.820260 0.027820 0.794570 -0.036806
N16   N     N_R   0.179740 0.027820 0.205430 -0.047684
C17   C     C_R   0.547208 0.543271 0.303884 -0.022798
C18   C     C_R   0.518120 0.544386 0.748025 0.001718
C19   C     C_R   0.047748 0.044137 0.303224 -0.040375
C20   C     C_R   0.019286 0.044688 0.749648 -0.021762
H13   H     H_    0.560439 0.584333 0.332709 0.203177
H14   H     H_    0.526665 0.585708 0.732172 0.188405
H15   H     H_    0.062430 0.085370 0.330141 0.212318
H16   H     H_    0.030438 0.086224 0.738271 0.184489
N17   N     N_R   0.524590 0.527840 0.205200 -0.063060
N18   N     N_R   0.475410 0.527840 0.794800 -0.052271
N19   N     N_R   0.024590 0.027840 0.205200 -0.063717
N20   N     N_R   0.975410 0.027840 0.794800 -0.052359
C21   C     C_R   0.231173 0.454284 0.741915 -0.112664
C22   C     C_R   0.760409 0.453785 0.294123 -0.127418
C23   C     C_R   0.731450 0.954018 0.740772 -0.106411
C24   C     C_R   0.258926 0.954102 0.296619 -0.141418
H17   H     H_    0.206312 0.413473 0.717019 0.097410
H18   H     H_    0.775282 0.412132 0.321442 0.102253
H19   H     H_    0.707240 0.913216 0.715342 0.096425
H20   H     H_    0.272699 0.912611 0.324927 0.091563
N21   N     N_R   0.320750 0.471000 0.795020 -0.052296
N22   N     N_R   0.679250 0.471000 0.204980 -0.049172
N23   N     N_R   0.820750 0.971000 0.795020 -0.051299
N24   N     N_R   0.179250 0.971000 0.204980 -0.048557
C25   C     C_R   0.347403 0.648607 0.906204 -0.179266
C26   C     C_R   0.650974 0.649774 0.093609 -0.137876
C27   C     C_R   0.839789 0.146041 0.906505 -0.166204
C28   C     C_R   0.155231 0.147972 0.094757 -0.157352
H21   H     H_    0.303560 0.661669 0.821204 0.168147
H22   H     H_    0.689417 0.661898 0.178666 0.158149
H23   H     H_    0.795163 0.159682 0.821959 0.157391
H24   H     H_    0.200295 0.159933 0.180328 0.157966
N25   N     N_R   0.393620 0.602490 0.942710 -0.063385
N26   N     N_R   0.606380 0.602490 0.057290 -0.068765
N27   N     N_R   0.893620 0.102490 0.942710 -0.063686
N28   N     N_R   0.106380 0.102490 0.057290 -0.064765
C29   C     C_R   0.407368 0.374099 0.095986 -0.132438
C30   C     C_R   0.563206 0.350109 0.909940 -0.134725
C31   C     C_R   0.909127 0.871281 0.096366 -0.114509
C32   C     C_R   0.079082 0.859220 0.907933 -0.159735
H25   H     H_    0.436893 0.366872 0.181774 0.099094
H26   H     H_    0.523910 0.335530 0.826147 0.099231
H27   H     H_    0.938027 0.867336 0.182467 0.099918
H28   H     H_    0.042254 0.843590 0.825271 0.118591
N29   N     N_R   0.451720 0.396350 0.057510 -0.042001
N30   N     N_R   0.548280 0.396350 0.942490 -0.041994
N31   N     N_R   0.951720 0.896350 0.057510 -0.045783
N32   N     N_R   0.048280 0.896350 0.942490 -0.039788
C33   C     C_R   0.322576 0.356908 0.005857 0.070818
C34   C     C_R   0.632077 0.323405 0.004155 0.078032
C35   C     C_R   0.823481 0.853249 0.006652 0.071856
C36   C     C_R   0.161275 0.840820 0.000457 0.074260
C37   C     C_R   0.373248 0.677994 0.996515 -0.105964
C38   C     C_R   0.621289 0.682443 0.003557 -0.082777
C39   C     C_R   0.858704 0.172397 0.997574 -0.101632
C40   C     C_R   0.127547 0.178636 0.004596 -0.104008
C41   C     C_R   0.565942 0.497223 0.367049 0.119920
C42   C     C_R   0.547315 0.498440 0.722562 0.134911
C43   C     C_R   0.066819 0.999034 0.368254 0.083626
C44   C     C_R   0.047161 0.999188 0.721184 0.088368
C45   C     C_R   0.176377 0.499334 0.721046 0.101714
C46   C     C_R   0.813129 0.499244 0.351048 0.113310
C47   C     C_R   0.676253 0.998858 0.719113 0.096551
C48   C     C_R   0.310542 0.999688 0.354431 0.116848
Ni1   Ni    Ni4+2 0.435420 0.434270 0.870230 0.218382
Ni2   Ni    Ni4+2 0.564580 0.434270 0.129770 0.218978
Ni3   Ni    Ni4+2 0.935420 0.934270 0.870230 0.235120
Ni4   Ni    Ni4+2 0.064580 0.934270 0.129770 0.210178
Ni5   Ni    Ni4+2 0.563430 0.564580 0.128740 0.277589
Ni6   Ni    Ni4+2 0.436570 0.564580 0.871260 0.296795
Ni7   Ni    Ni4+2 0.063430 0.064580 0.128740 0.274716
Ni8   Ni    Ni4+2 0.936570 0.064580 0.871260 0.291259
C49   C     C_2   0.925791 0.459664 0.531577 -0.065967
C50   C     C_2   0.022692 0.456076 0.629830 -0.118124
C51   C     C_2   0.425274 0.958860 0.532317 -0.032368
C52   C     C_2   0.523384 0.955063 0.626656 -0.105109
C53   C     C_2   0.900889 0.500115 0.459138 -0.130718
C54   C     C_2   0.076216 0.500659 0.671685 -0.174261
C55   C     C_2   0.396866 0.001164 0.463527 -0.135645
C56   C     C_2   0.576474 0.999575 0.671315 -0.169450
H29   H     H_    0.879341 0.425181 0.511558 0.133884
H30   H     H_    0.053169 0.415996 0.653699 0.125728
H31   H     H_    0.381817 0.922778 0.509668 0.106971
H32   H     H_    0.554529 0.915383 0.643153 0.111368
H33   H     H_    0.947114 0.534253 0.476064 0.131202
H34   H     H_    0.044295 0.540371 0.654423 0.149492
H35   H     H_    0.440424 0.036942 0.482816 0.126749
H36   H     H_    0.544611 0.038909 0.659443 0.147057
C57   C     C_R   0.361209 0.768920 0.046200 0.200522
C58   C     C_R   0.612403 0.768432 0.913125 0.298985
C59   C     C_R   0.839213 0.248705 0.080076 0.276863
C60   C     C_R   0.130614 0.274663 0.966967 0.198777
C61   C     C_R   0.320003 0.721080 0.991160 0.061889
C62   C     C_R   0.645081 0.739838 0.009862 -0.003232
C63   C     C_R   0.799914 0.211941 0.994756 0.022862
C64   C     C_R   0.175401 0.225796 0.011276 0.081938
C65   C     C_R   0.222699 0.712590 0.936840 -0.176160
C66   C     C_R   0.721843 0.760800 0.110399 -0.153595
C67   C     C_R   0.701725 0.204518 0.923320 -0.166444
C68   C     C_R   0.272720 0.221834 0.062888 -0.151954
H37   H     H_    0.188701 0.675045 0.894210 0.147824
H38   H     H_    0.747428 0.741736 0.188302 0.148664
H39   H     H_    0.670331 0.172884 0.861669 0.142023
H40   H     H_    0.309687 0.184065 0.098560 0.152123
C69   C     C_R   0.643644 0.238800 0.930792 -0.186059
C70   C     C_R   0.321884 0.266309 0.064032 -0.192094
C71   C     C_R   0.169561 0.752281 0.940825 -0.183632
C72   C     C_R   0.776209 0.802175 0.110816 -0.178518
H41   H     H_    0.567852 0.235690 0.871688 0.149522
H42   H     H_    0.396443 0.262582 0.100298 0.150910
H43   H     H_    0.094567 0.745846 0.899472 0.158281
H44   H     H_    0.840105 0.813452 0.188965 0.139111
C73   C     C_R   0.685013 0.279201 0.010751 0.022811
C74   C     C_R   0.273332 0.314489 0.013595 0.019268
C75   C     C_R   0.214582 0.799720 0.999904 0.010727
C76   C     C_R   0.753436 0.823494 0.010798 0.024760
C77   C     C_R   0.782355 0.281961 0.088678 0.143961
C78   C     C_R   0.178302 0.317620 0.967504 0.138678
C79   C     C_R   0.310136 0.806737 0.051497 0.140213
C80   C     C_R   0.667420 0.809784 0.912991 0.135588
C81   C     C_3   0.847973 0.329298 0.120842 -0.509825
C82   C     C_3   0.094090 0.353001 0.906264 -0.485176
C83   C     C_3   0.390729 0.845252 0.115183 -0.498247
C84   C     C_3   0.585258 0.846905 0.850167 -0.503536
C85   C     C_3   0.450108 0.801414 0.109899 -0.434090
C86   C     C_3   0.526293 0.803041 0.852880 -0.464993
C87   C     C_3   0.910615 0.292092 0.110290 -0.465099
C88   C     C_3   0.038966 0.303830 0.906465 -0.439376
H45   H     H_    0.816878 0.362397 0.058572 0.213231
H46   H     H_    0.099178 0.387381 0.957020 0.205005
H47   H     H_    0.381419 0.882308 0.067131 0.203330
H48   H     H_    0.592727 0.883687 0.897183 0.216438
H49   H     H_    0.880023 0.342400 0.206904 0.211465
H50   H     H_    0.074613 0.363883 0.823098 0.205345
H51   H     H_    0.410125 0.852250 0.199467 0.212807
H52   H     H_    0.565678 0.854731 0.766131 0.200264
H53   H     H_    0.475368 0.813314 0.059199 0.177216
H54   H     H_    0.500914 0.813496 0.903757 0.181642
H55   H     H_    0.915396 0.303099 0.041303 0.185388
H56   H     H_    0.012832 0.309668 0.958078 0.180253
H57   H     H_    0.504214 0.783392 0.191342 0.252236
H58   H     H_    0.470718 0.787081 0.769811 0.236560
H59   H     H_    0.979127 0.283900 0.190196 0.241150
H60   H     H_    0.986235 0.287391 0.822953 0.247050
C89   C     C_R   0.564401 0.447731 0.595926 0.080494
C90   C     C_R   0.576071 0.445553 0.513245 0.193188
C91   C     C_R   0.085578 0.948381 0.612797 0.131412
C92   C     C_R   0.090431 0.948796 0.523207 0.078316
C93   C     C_R   0.584845 0.494637 0.657772 -0.115103
C94   C     C_R   0.599078 0.492784 0.481510 -0.144471
C95   C     C_R   0.093784 0.996914 0.665271 -0.159106
C96   C     C_R   0.102188 0.997439 0.484420 -0.113432
C97   C     C_R   0.633707 0.537406 0.646922 0.202650
C98   C     C_R   0.640489 0.536644 0.556500 0.200690
C99   C     C_R   0.127974 0.043793 0.643612 0.219431
C100  C     C_R   0.132006 0.044137 0.551604 0.240257
C101  C     C_3   0.494934 0.406173 0.447355 -0.294468
C102  C     C_3   0.480171 0.410093 0.537754 -0.349641
C103  C     C_3   0.155956 0.901265 0.566174 -0.303817
C104  C     C_3   0.152333 0.901423 0.665052 -0.271862
H61   H     H_    0.436341 0.422476 0.365993 0.146526
H62   H     H_    0.493098 0.371677 0.583886 0.114483
H63   H     H_    0.121905 0.865405 0.511614 0.139056
H64   H     H_    0.219758 0.912555 0.744471 0.150046
N33   N     N_R   0.676693 0.579927 0.727185 0.246574
O1    O     O_R   0.729926 0.567809 0.831474 -0.395523
O2    O     O_R   0.651440 0.629931 0.697947 -0.293020
N34   N     N_R   0.691042 0.578221 0.542687 0.249285
O3    O     O_R   0.667370 0.628720 0.533962 -0.289560
O4    O     O_R   0.751520 0.564862 0.522481 -0.402045
N35   N     N_R   0.165143 0.088363 0.719319 0.245274
O5    O     O_R   0.221941 0.079154 0.824662 -0.393747
O6    O     O_R   0.133867 0.137136 0.685157 -0.298588
N36   N     N_R   0.175182 0.088622 0.533540 0.248226
O7    O     O_R   0.139970 0.136957 0.514241 -0.293233
O8    O     O_R   0.241961 0.079402 0.521433 -0.380119
C105  C     C_2   0.523729 0.350041 0.439393 0.497574
H65   H     H_    0.470149 0.318641 0.397440 0.019620
O9    O     O_2   0.605932 0.339186 0.479462 -0.564323
C106  C     C_2   0.387749 0.436152 0.499184 0.586892
H66   H     H_    0.339689 0.415099 0.511586 0.000107
O10   O     O_2   0.365976 0.480377 0.453900 -0.555504
C107  C     C_2   0.252577 0.912914 0.593463 0.573328
H67   H     H_    0.280151 0.886667 0.560819 -0.024521
O11   O     O_2   0.300324 0.951070 0.651794 -0.546407
C108  C     C_2   0.108562 0.850758 0.674566 0.492160
H68   H     H_    0.148725 0.826486 0.748963 0.013769
O12   O     O_2   0.029191 0.836144 0.599527 -0.563735
N37   N     N_R   0.494090 0.668680 0.199146 0.210541
O13   O     O_R   0.456212 0.691151 0.242966 -0.385797
O14   O     O_R   0.585326 0.665789 0.255129 -0.430036
N38   N     N_R   0.495486 0.670345 0.800335 0.200248
O15   O     O_R   0.528608 0.690710 0.748538 -0.378874
O16   O     O_R   0.407851 0.654586 0.743173 -0.441874
N39   N     N_R   0.987127 0.165806 0.199752 0.206821
O17   O     O_R   0.952410 0.173414 0.255635 -0.392282
O18   O     O_R   0.077248 0.171763 0.247834 -0.422007
N40   N     N_R   0.000771 0.171497 0.802509 0.211377
O19   O     O_R   0.033251 0.204189 0.763006 -0.364333
O20   O     O_R   0.914486 0.153659 0.738119 -0.430224

loop_
_geom_bond_atom_site_label_1
_geom_bond_atom_site_label_2
_geom_bond_distance
_ccdc_geom_bond_type
C22   H18   1.080918 S    
C83   H51   1.111570 S    
C103  C104  1.514335 S    
C72   C76   1.402447 A    
C57   C61   1.377981 A    
C30   C34   1.376044 A    
N12   Ni3   1.859952 S    
C73   C77   1.393360 A    
C26   N26   1.327686 A    
C81   H49   1.111814 S    
C101  C102  1.518454 S    
C66   H38   1.079624 S    
C25   N25   1.320775 A    
N39   O17   1.300813 A    
C14   N14   1.333014 A    
C3    N3    1.342864 A    
C101  C105  1.509406 S    
N13   Ni6   1.877208 S    
C96   C100  1.416780 A    
C106  H66   1.084621 S    
N6    Ni6   1.857149 S    
C108  O12   1.221880 D    
C103  C107  1.510306 S    
N5    Ni5   1.870911 S    
C83   C85   1.541138 S    
C60   C78   1.337897 A    
C67   H39   1.083639 S    
C18   C42   1.392493 A    
N9    N17   1.403563 A    
C59   C87   1.492323 S    
C38   C62   1.461062 S    
C77   C81   1.499074 S    
C99   N35   1.436391 S    
C92   C96   1.393525 A    
C87   H55   1.112136 S    
C29   C33   1.363240 A    
C20   H16   1.072567 S    
C3    H3    1.075497 S    
C8    N40   1.430987 S    
N35   O6    1.300219 A    
C32   C36   1.367646 A    
C15   H11   1.076755 S    
C16   C48   1.377577 A    
C81   H45   1.112529 S    
C20   C44   1.393763 A    
C7    N39   1.427881 S    
C28   N28   1.317398 A    
C100  N36   1.435134 S    
N38   O15   1.300656 A    
C56   H36   1.086132 S    
C20   N20   1.342331 A    
C50   C54   1.335837 D    
C66   C72   1.383733 A    
C4    H4    1.080794 S    
C49   C53   1.342404 D    
C51   C55   1.339425 D    
C69   H41   1.083430 S    
C40   C64   1.395169 S    
C23   N23   1.334535 A    
C4    C36   1.367669 A    
C63   C67   1.405403 A    
C60   C64   1.382851 A    
C22   N22   1.329827 A    
C11   C43   1.381731 A    
C72   H44   1.080145 S    
N16   Ni7   1.890478 S    
C58   C80   1.394235 A    
C26   H22   1.078741 S    
N40   O20   1.300764 A    
N11   Ni4   1.877543 S    
C25   H21   1.081326 S    
C82   H50   1.111520 S    
N7    Ni7   1.870911 S    
C4    N4    1.321630 A    
C15   N15   1.336295 A    
N37   O13   1.300484 A    
C70   H42   1.084257 S    
C18   N18   1.342965 A    
C24   C48   1.383166 A    
C16   N16   1.331291 A    
C68   H40   1.084412 S    
C9    C41   1.368588 A    
N21   Ni1   1.869882 S    
C24   N24   1.330066 A    
C19   N19   1.336678 A    
C17   N17   1.342636 A    
C99   C100  1.416085 A    
C45   C54   1.448903 S    
C78   C82   1.486983 S    
C82   C88   1.541488 S    
C86   H54   1.112470 S    
C5    C37   1.370378 A    
C59   C77   1.358145 A    
C39   C63   1.407305 S    
C2    H2    1.081927 S    
C26   C38   1.381469 A    
C47   C56   1.447078 S    
C10   C42   1.376868 A    
C57   C79   1.332572 A    
C57   C85   1.490549 S    
N17   Ni5   1.858567 S    
C29   H25   1.081115 S    
C6    C38   1.394802 A    
C95   C99   1.415378 A    
N1    Ni1   1.858731 S    
C2    C34   1.359989 A    
C82   H46   1.111388 S    
C19   C43   1.381728 A    
C21   C45   1.386285 A    
N8    N28   1.374561 A    
N10   Ni1   1.859952 S    
N3    Ni3   1.858731 S    
C91   C92   1.388860 A    
C14   C46   1.381683 A    
C1    N1    1.331982 A    
C102  C106  1.510879 S    
N9    Ni2   1.877543 S    
C16   H12   1.081758 S    
C15   C47   1.376683 A    
C62   C66   1.404773 A    
C68   C70   1.379930 A    
N8    Ni8   1.857149 S    
C90   C94   1.395632 A    
C8    C40   1.373077 A    
C19   H15   1.070576 S    
C30   H26   1.081434 S    
C27   C39   1.367811 A    
N29   Ni2   1.849395 S    
C23   C47   1.383929 A    
C27   N27   1.324552 A    
C35   C76   1.450272 S    
N12   N20   1.403481 A    
C12   C44   1.382626 A    
C11   N11   1.334597 A    
N31   Ni4   1.849395 S    
C7    N7    1.320657 A    
N35   O5    1.301354 A    
C12   N12   1.330262 A    
N15   N23   1.403813 A    
C105  H65   1.085347 S    
C103  H63   1.113003 S    
C10   N10   1.321206 A    
N3    N31   1.374561 A    
N15   Ni8   1.877208 S    
N10   N18   1.403481 A    
C88   H56   1.111371 S    
N14   Ni5   1.890478 S    
N36   O8    1.301388 A    
C107  H67   1.084100 S    
N28   Ni7   1.863659 S    
C17   H13   1.074368 S    
C79   C83   1.488267 S    
C8    N8    1.330481 A    
C31   H27   1.077796 S    
C31   C35   1.375195 A    
C55   H35   1.084256 S    
C86   H58   1.111048 S    
N5    N25   1.374562 A    
N33   O1    1.301132 A    
N20   Ni8   1.876105 S    
C13   C45   1.376958 A    
C28   H24   1.081923 S    
N39   O18   1.300577 A    
N22   Ni2   1.856614 S    
N7    N27   1.374562 A    
N37   O14   1.300103 A    
C85   H53   1.111372 S    
C17   C41   1.386332 A    
C81   C87   1.513387 S    
C104  H64   1.113793 S    
C80   C84   1.492112 S    
N23   Ni3   1.869882 S    
N6    N26   1.374561 A    
C107  O11   1.221836 D    
C25   C37   1.360666 A    
N34   O4    1.301289 A    
C34   C73   1.403928 S    
C11   H7    1.080777 S    
C61   C65   1.405517 A    
C33   C74   1.393468 S    
N32   Ni3   1.863162 S    
C10   H6    1.075230 S    
C1    H1    1.078053 S    
N16   N24   1.403730 A    
N26   Ni5   1.863659 S    
C43   C96   1.464809 S    
C48   C55   1.438108 S    
N1    N29   1.374561 A    
N25   Ni6   1.881888 S    
C2    N2    1.311414 A    
C42   C93   1.453883 S    
C76   C80   1.394986 A    
C6    N38   1.431785 S    
N4    Ni4   1.876760 S    
C98   N34   1.435928 S    
C41   C94   1.454823 S    
C65   C71   1.382338 A    
C12   H8    1.069585 S    
C5    N37   1.427788 S    
C28   C40   1.361644 A    
C102  H62   1.113078 S    
C89   C90   1.364893 A    
C84   H48   1.112553 S    
C9    H5    1.078371 S    
C53   H33   1.084420 S    
C70   C74   1.402488 A    
N40   O19   1.300432 A    
C14   H10   1.081834 S    
C6    N6    1.338944 A    
N4    N32   1.374560 A    
C64   C68   1.401980 A    
C7    C39   1.378466 A    
C106  O10   1.221954 D    
C9    N9    1.319904 A    
C58   C62   1.394368 A    
C92   C103  1.503971 S    
N13   N21   1.403813 A    
C51   C52   1.455439 S    
C52   H32   1.081381 S    
C90   C101  1.510581 S    
C21   H17   1.073105 S    
C65   H37   1.084208 S    
C89   C102  1.508292 S    
C31   N31   1.325465 A    
C18   H14   1.074078 S    
C23   H19   1.071809 S    
C71   H43   1.083851 S    
C30   N30   1.331629 A    
C5    N5    1.326175 A    
C24   H20   1.080337 S    
C59   C63   1.381222 A    
C13   N13   1.335354 A    
N11   N19   1.403563 A    
C29   N29   1.316310 A    
C108  H68   1.084988 S    
C105  O9    1.222265 D    
C84   H52   1.107935 S    
C49   C50   1.460532 S    
C27   H23   1.081054 S    
N36   O7    1.300567 A    
C94   C98   1.418360 A    
C32   H28   1.079576 S    
N19   Ni7   1.858567 S    
C88   H60   1.109806 S    
C93   C97   1.416249 A    
N18   Ni6   1.876105 S    
C46   C53   1.440131 S    
C84   C86   1.501815 S    
N33   O2    1.300129 A    
C44   C95   1.467645 S    
N38   O16   1.300195 A    
C13   H9    1.078393 S    
N2    Ni2   1.876760 S    
C83   H47   1.111629 S    
C75   C79   1.379554 A    
C104  C108  1.506822 S    
C97   C98   1.422770 A    
C50   H30   1.084341 S    
C91   C95   1.397949 A    
C37   C61   1.391914 S    
C97   N33   1.435373 S    
C91   C104  1.506395 S    
C74   C78   1.379137 A    
C85   H57   1.110333 S    
C89   C93   1.396048 A    
C67   C69   1.381911 A    
C36   C75   1.388192 S    
C60   C88   1.492030 S    
N34   O3    1.300236 A    
N2    N30   1.374560 A    
C1    C33   1.377846 A    
C58   C86   1.496934 S    
N14   N22   1.403730 A    
C101  H61   1.113182 S    
C3    C35   1.390713 A    
C32   N32   1.318748 A    
N30   Ni1   1.863162 S    
C22   C46   1.382948 A    
N27   Ni8   1.881888 S    
C49   H29   1.085358 S    
C69   C73   1.394358 A    
C87   H59   1.111365 S    
C54   H34   1.086450 S    
N24   Ni4   1.856614 S    
C52   C56   1.334902 D    
C71   C75   1.399655 A    
C21   N21   1.337800 A    
C51   H31   1.083840 S    
