data_mof_unit_43614.cif
_audit_creation_date              2012-10-26T20:02:34-0400
_audit_creation_method            fapswitch 2.2
_symmetry_space_group_name_H-M    P1
_symmetry_Int_Tables_number       1
_space_group_crystal_system       triclinic
_cell_length_a                    19.058
_cell_length_b                    18.457804
_cell_length_c                    12.352488
_cell_angle_alpha                 90.000076
_cell_angle_beta                  129.150816
_cell_angle_gamma                 90.0
_cell_volume                      3369.66072389

loop_
_atom_site_label
_atom_site_type_symbol
_atom_type_description
_atom_site_fract_x
_atom_site_fract_y
_atom_site_fract_z
_atom_type_partial_charge
C1    C     C_R   0.612251 0.898242 0.652969 0.532577
C2    C     C_R   0.660245 0.721074 0.014440 0.051136
C3    C     C_R   0.160246 0.778884 0.014513 0.051134
C4    C     C_R   0.160249 0.221106 0.014495 0.051135
C5    C     C_R   0.583417 0.245721 0.897573 -0.139249
C6    C     C_R   0.583416 0.754255 0.897530 -0.139242
C7    C     C_R   0.083422 0.745672 0.897653 -0.139259
C8    C     C_R   0.083423 0.254308 0.897618 -0.139253
C9    C     C_R   0.587519 0.209885 0.803147 -0.122694
C10   C     C_R   0.587529 0.790100 0.803123 -0.122694
C11   C     C_R   0.087505 0.709859 0.803188 -0.122695
C12   C     C_R   0.612245 0.101763 0.652963 0.532578
C13   C     C_R   0.087515 0.290129 0.803170 -0.122695
C14   C     C_R   0.317109 0.814540 0.151027 -0.135450
C15   C     C_R   0.317123 0.185474 0.151054 -0.135446
C16   C     C_R   0.817132 0.314515 0.151074 -0.135441
C17   C     C_R   0.817146 0.685502 0.151105 -0.135437
C18   C     C_R   0.230697 0.850072 0.224620 -0.136728
C19   C     C_R   0.230688 0.149912 0.224591 -0.136724
C20   C     C_R   0.730671 0.350118 0.224546 -0.136722
C21   C     C_R   0.730658 0.649863 0.224510 -0.136717
C22   C     C_R   0.677854 0.159423 0.740462 -0.002910
C23   C     C_R   0.112242 0.398234 0.652958 0.532591
C24   C     C_R   0.677878 0.840598 0.740494 -0.002905
C25   C     C_R   0.177816 0.659455 0.740410 -0.002921
C26   C     C_R   0.177839 0.340564 0.740441 -0.002916
C27   C     C_R   0.684249 0.000001 0.286236 -0.146631
C28   C     C_R   0.184249 0.500000 0.286236 -0.146640
C29   C     C_R   0.343757 0.999999 0.627438 0.046169
C30   C     C_R   0.843757 0.499999 0.627438 0.046177
C31   C     C_R   0.309503 0.999999 0.699165 -0.158120
C32   C     C_R   0.809503 0.499999 0.699165 -0.158114
C33   C     C_R   0.384243 0.098684 0.342438 0.543940
C34   C     C_R   0.112237 0.601770 0.652951 0.532592
C35   C     C_R   0.384243 0.901315 0.342437 0.543941
C36   C     C_R   0.884243 0.598684 0.342437 0.543934
C37   C     C_R   0.884243 0.401316 0.342437 0.543937
C38   C     C_R   0.368178 0.999999 0.844768 -0.135369
C39   C     C_R   0.868178 0.499999 0.844768 -0.135354
C40   C     C_R   0.462631 1.000000 0.921275 -0.007290
C41   C     C_R   0.962632 0.500000 0.921275 -0.007286
C42   C     C_R   0.494671 1.000000 0.842843 0.178538
C43   C     C_R   0.994671 0.500000 0.842843 0.178525
C44   C     C_R   0.526366 1.000000 0.072007 -0.015085
C45   C     C_R   0.241798 0.779584 0.033093 0.028828
C46   C     C_R   0.026366 0.500000 0.072007 -0.015084
C47   C     C_R   0.620197 0.000000 0.140052 0.037251
C48   C     C_R   0.120197 0.500000 0.140052 0.037249
C49   C     C_R   0.649912 0.000001 0.062159 -0.166643
C50   C     C_R   0.149912 0.500000 0.062159 -0.166642
C51   C     C_R   0.588781 0.000000 0.917411 -0.091158
C52   C     C_R   0.088781 0.500000 0.917410 -0.091167
C53   C     C_R   0.501807 1.000000 0.159533 0.038134
C54   C     C_R   0.001807 0.500000 0.159533 0.038145
C55   C     C_R   0.655741 0.000000 0.365689 0.040599
C56   C     C_R   0.241814 0.220429 0.033113 0.028830
C57   C     C_R   0.155740 0.500000 0.365689 0.040580
C58   C     C_R   0.655803 0.313091 0.111456 -0.131742
C59   C     C_R   0.655791 0.686882 0.111407 -0.131741
C60   C     C_R   0.155832 0.813033 0.111553 -0.131744
C61   C     C_R   0.155822 0.186945 0.111513 -0.131743
C62   C     C_R   0.310766 0.852222 0.242258 -0.002267
C63   C     C_R   0.310767 0.147778 0.242260 -0.002263
C64   C     C_R   0.810764 0.352227 0.242254 -0.002256
C65   C     C_R   0.810765 0.647773 0.242255 -0.002252
C66   C     C_R   0.754864 0.164857 0.749555 -0.132240
C67   C     C_R   0.741822 0.279568 0.033120 0.028832
C68   C     C_R   0.754910 0.835199 0.749642 -0.132231
C69   C     C_R   0.254793 0.664943 0.749423 -0.132253
C70   C     C_R   0.254835 0.335108 0.749502 -0.132245
C71   C     C_R   0.324944 0.711123 0.845536 -0.141733
C72   C     C_R   0.325003 0.288950 0.845649 -0.141734
C73   C     C_R   0.825044 0.211001 0.845728 -0.141734
C74   C     C_R   0.825109 0.789082 0.845855 -0.141735
C75   C     C_R   0.321599 0.749814 0.938642 -0.121645
C76   C     C_R   0.321649 0.250246 0.938736 -0.121644
C77   C     C_R   0.821686 0.249712 0.938803 -0.121644
C78   C     C_R   0.741839 0.720446 0.033140 0.028834
C79   C     C_R   0.821743 0.750358 0.938910 -0.121642
C80   C     C_R   0.745535 0.244853 0.934147 0.032744
C81   C     C_R   0.745567 0.755177 0.934195 0.032747
C82   C     C_R   0.245487 0.744898 0.934075 0.032738
C83   C     C_R   0.245516 0.255129 0.934118 0.032741
C84   C     C_R   0.669646 0.204142 0.825253 0.022500
C85   C     C_R   0.669668 0.795869 0.825271 0.022499
C86   C     C_R   0.169613 0.704158 0.825225 0.022499
C87   C     C_R   0.169633 0.295852 0.825243 0.022499
C88   C     C_R   0.660243 0.278914 0.014463 0.051136
Cu1   Cu    Cu3+1 0.526340 1.000000 0.421010 0.923515
Cu2   Cu    Cu3+1 0.026340 0.500000 0.421010 0.923512
Cu3   Cu    Cu3+1 0.473640 0.000000 0.578990 0.905080
Cu4   Cu    Cu3+1 0.973640 0.500000 0.578990 0.905065
H1    H     H_    0.224818 0.879398 0.294525 0.120323
H2    H     H_    0.931996 0.500000 0.116566 0.120626
H3    H     H_    0.297524 0.999999 0.514519 0.119677
H4    H     H_    0.797524 0.499999 0.514519 0.119675
H5    H     H_    0.337898 0.999998 0.894685 0.102923
H6    H     H_    0.837898 0.499998 0.894685 0.102932
H7    H     H_    0.237062 0.999998 0.641568 0.103929
H8    H     H_    0.737062 0.499999 0.641568 0.103927
H9    H     H_    0.618772 0.000000 0.868230 0.186540
H10   H     H_    0.118772 0.500000 0.868230 0.186548
H11   H     H_    0.519742 0.247383 0.878921 0.099985
H12   H     H_    0.224800 0.120574 0.294476 0.120319
H13   H     H_    0.519732 0.752572 0.878846 0.099975
H14   H     H_    0.019764 0.747299 0.879057 0.100005
H15   H     H_    0.019757 0.252663 0.878994 0.099994
H16   H     H_    0.593646 0.312930 0.097502 0.104184
H17   H     H_    0.593622 0.687026 0.097420 0.104193
H18   H     H_    0.093695 0.812837 0.097658 0.104169
H19   H     H_    0.093675 0.187126 0.097590 0.104180
H20   H     H_    0.381859 0.814243 0.174175 0.117915
H21   H     H_    0.381879 0.185779 0.174225 0.117906
H22   H     H_    0.881896 0.314195 0.174272 0.117893
H23   H     H_    0.724773 0.379469 0.294409 0.120307
H24   H     H_    0.881920 0.685832 0.174333 0.117883
H25   H     H_    0.762019 0.131962 0.684395 0.125752
H26   H     H_    0.762069 0.868107 0.684498 0.125743
H27   H     H_    0.261942 0.632066 0.684237 0.125769
H28   H     H_    0.261988 0.367997 0.684333 0.125761
H29   H     H_    0.378897 0.784205 0.010606 0.103273
H30   H     H_    0.378963 0.215874 0.010728 0.103265
H31   H     H_    0.879009 0.284069 0.010818 0.103260
H32   H     H_    0.879085 0.716024 0.010961 0.103252
H33   H     H_    0.383698 0.715274 0.850867 0.107110
H34   H     H_    0.724751 0.620499 0.294351 0.120301
H35   H     H_    0.383775 0.284825 0.851022 0.107104
H36   H     H_    0.883828 0.215107 0.851130 0.107101
H37   H     H_    0.883915 0.785007 0.851305 0.107093
H38   H     H_    0.524647 0.188419 0.710995 0.151840
H39   H     H_    0.524658 0.811558 0.710956 0.151820
H40   H     H_    0.024631 0.688380 0.711061 0.151872
H41   H     H_    0.024642 0.311600 0.711028 0.151854
H42   H     H_    0.705044 0.000001 0.478457 0.114314
H43   H     H_    0.205044 0.500000 0.478457 0.114325
H44   H     H_    0.721694 0.000001 0.113849 0.111931
H45   H     H_    0.221694 0.500000 0.113849 0.111929
H46   H     H_    0.756129 0.000001 0.338851 0.092508
H47   H     H_    0.256129 0.500000 0.338851 0.092508
H48   H     H_    0.431996 0.999999 0.116566 0.120613
N1    N     N_R   0.566260 0.000000 0.302220 -0.231898
N2    N     N_R   0.066260 0.500000 0.302220 -0.231903
N3    N     N_R   0.434410 0.000000 0.697680 -0.236237
N4    N     N_R   0.934410 0.500000 0.697680 -0.236245
O1    O     O_R   0.608610 0.924520 0.551740 -0.500998
O2    O     O_R   0.435880 0.924530 0.314850 -0.505321
O3    O     O_R   0.935880 0.575470 0.314850 -0.505316
O4    O     O_R   0.935880 0.424530 0.314850 -0.505318
O5    O     O_R   0.391380 0.075460 0.448260 -0.510884
O6    O     O_R   0.391380 0.924540 0.448260 -0.510883
O7    O     O_R   0.891380 0.575460 0.448260 -0.510886
O8    O     O_R   0.891380 0.424540 0.448260 -0.510886
O9    O     O_R   0.608610 0.075480 0.551740 -0.501005
O10   O     O_R   0.108610 0.424520 0.551740 -0.500999
O11   O     O_R   0.108610 0.575480 0.551740 -0.501006
O12   O     O_R   0.564110 0.924510 0.685150 -0.524865
O13   O     O_R   0.564110 0.075490 0.685150 -0.524875
O14   O     O_R   0.064110 0.424510 0.685150 -0.524875
O15   O     O_R   0.064110 0.575490 0.685150 -0.524883
O16   O     O_R   0.435880 0.075470 0.314850 -0.505321

loop_
_geom_bond_atom_site_label_1
_geom_bond_atom_site_label_2
_ccdc_geom_bond_type
C30   C32   A    
C5    H11   S    
C10   C85   A    
C8    C13   A    
C55   N1    A    
C53   H48   S    
C1    O1    A    
C45   C82   A    
C12   O9    A    
C80   C84   A    
C11   H40   S    
C50   H45   S    
C82   C86   A    
C39   C41   A    
C28   C57   A    
C14   H20   S    
C52   H10   S    
C67   C88   A    
C57   N2    A    
Cu1   O16   S    
Cu4   O15   S    
C2    C78   A    
C38   C40   A    
C21   C59   A    
C3    C7    A    
C27   C55   A    
C43   C52   A    
C23   C26   S    
C11   C86   A    
C68   C74   A    
C14   C62   A    
C23   O14   A    
C12   C22   S    
C30   N4    A    
Cu4   O14   S    
C32   C39   A    
C69   C71   A    
C10   H39   S    
C22   C66   A    
Cu2   O4    S    
C68   H26   S    
C5    C88   A    
Cu2   Cu4   S    
C44   C53   A    
C19   C63   A    
C26   C87   A    
C49   C51   A    
C66   H25   S    
Cu4   O8    S    
C50   C52   A    
C41   C46   A    
C15   H21   S    
C35   O6    A    
C31   H7    S    
C12   O13   A    
Cu1   Cu3   S    
C24   C85   A    
C53   N1    A    
C44   C47   A    
C4    C8    A    
C42   C51   A    
C3    C60   A    
C40   C42   A    
Cu1   O1    S    
C4    C56   A    
C41   C43   A    
C13   C87   A    
C43   N4    A    
C2    C6    A    
C28   H47   S    
C38   H5    S    
C76   C83   A    
C14   C45   A    
Cu3   N3    S    
Cu1   O2    S    
C46   C48   A    
C27   H46   S    
Cu3   O13   S    
C72   H35   S    
C47   C49   A    
C70   H28   S    
C29   H3    S    
C2    C59   A    
C18   C62   A    
C39   H6    S    
C34   O11   A    
C66   C73   A    
C4    C61   A    
C3    C45   A    
C32   H8    S    
C16   H22   S    
C35   O2    A    
C22   C84   A    
C20   C64   A    
C1    O12   A    
C7    C11   A    
C29   N3    A    
C5    C9    A    
Cu2   O3    S    
C77   H31   S    
C20   H23   S    
C19   H12   S    
C36   O3    A    
Cu1   O9    S    
C33   C63   S    
C46   C54   A    
Cu4   O7    S    
C7    H14   S    
C72   C76   A    
C75   C82   A    
C16   C67   A    
Cu2   N2    S    
C18   C60   A    
C54   N2    A    
C49   H44   S    
C74   C79   A    
C26   C70   A    
C25   C86   A    
C23   O10   A    
Cu2   O10   S    
C37   O8    A    
C20   C58   A    
C73   H36   S    
C8    H15   S    
C37   C64   S    
C56   C83   A    
Cu3   O5    S    
C77   C80   A    
C27   C47   A    
C28   C48   A    
C15   C63   A    
C21   C65   A    
C75   H29   S    
C13   H41   S    
C57   H43   S    
C67   C80   A    
C58   C88   A    
C83   C87   A    
C6    C10   A    
Cu3   O6    S    
C33   O16   A    
C36   O7    A    
C51   H9    S    
C55   H42   S    
C79   H32   S    
C25   C34   S    
C17   C65   A    
C31   C38   A    
C76   H30   S    
C15   C56   A    
C36   C65   S    
C21   H34   S    
Cu3   O12   S    
C29   C31   A    
C33   O5    A    
C34   O15   A    
C71   C75   A    
C78   C81   A    
C19   C61   A    
Cu1   N1    S    
C48   C50   A    
C17   C78   A    
C59   H17   S    
C6    H13   S    
C69   H27   S    
C35   C62   S    
C58   H16   S    
C37   O4    A    
C79   C81   A    
Cu4   N4    S    
C54   H2    S    
C60   H18   S    
C24   C68   A    
C9    C84   A    
C30   H4    S    
C9    H38   S    
C40   C44   A    
C25   C69   A    
C1    C24   S    
C74   H37   S    
C42   N3    A    
C18   H1    S    
C73   C77   A    
C71   H33   S    
C70   C72   A    
C16   C64   A    
Cu2   O11   S    
C81   C85   A    
C17   H24   S    
C61   H19   S    
