data_mof_unit_54402.cif
_audit_creation_date              2012-12-10T19:54:47-0500
_audit_creation_method            fapswitch 2.2
_symmetry_space_group_name_H-M    P1
_symmetry_Int_Tables_number       1
_space_group_crystal_system       triclinic
_cell_length_a                    29.980471
_cell_length_b                    30.576642
_cell_length_c                    30.132018
_cell_angle_alpha                 117.948403
_cell_angle_beta                  115.508637
_cell_angle_gamma                 117.226253
_cell_volume                      12380.5510344

loop_
_atom_site_label
_atom_site_type_symbol
_atom_type_description
_atom_site_fract_x
_atom_site_fract_y
_atom_site_fract_z
_atom_type_partial_charge
C1    C     C_R   0.110537 0.429875 0.682901 0.950481
C2    C     C_R   0.756489 0.032002 0.831326 -0.053969
C3    C     C_R   0.782748 0.065983 0.902515 0.031752
C4    C     C_R   0.927871 0.868807 0.064652 0.032983
C5    C     C_R   0.086436 0.927670 0.849838 0.029425
C6    C     C_R   0.776897 0.046898 0.970987 0.032415
C7    C     C_R   0.120047 0.014044 0.846423 0.031141
C8    C     C_R   0.998142 0.858195 0.051190 0.026076
C9    C     C_R   0.835680 0.152079 0.973301 0.029415
C10   C     C_R   0.010933 0.956010 0.154699 0.027111
C11   C     C_R   0.138742 0.998474 0.935829 0.035017
C12   C     C_R   0.945946 0.284344 0.132824 0.459229
C13   C     C_R   0.850507 0.825378 0.029199 -0.064592
C14   C     C_R   0.202961 0.134244 0.046488 0.432200
C15   C     C_R   0.173114 0.090205 0.274931 0.450570
C16   C     C_R   0.711496 0.931653 0.835350 0.432540
C17   C     C_R   0.838008 0.742730 0.917466 0.431588
C18   C     C_R   0.006276 0.854713 0.710710 0.454410
C19   C     C_R   0.972760 0.317857 0.203132 -0.205277
C20   C     C_R   0.244359 0.211193 0.085751 -0.208125
C21   C     C_R   0.247332 0.122316 0.316688 -0.200152
C22   C     C_R   0.684594 0.898401 0.765047 -0.214047
C23   C     C_R   0.762430 0.699130 0.883941 -0.193003
C24   C     C_R   0.050696 0.852225 0.812011 -0.052895
C25   C     C_R   0.975389 0.782948 0.675869 -0.203353
C26   C     C_R   0.938737 0.263969 0.199169 -0.104081
C27   C     C_R   0.248421 0.225427 0.048999 -0.086472
C28   C     C_R   0.240060 0.067577 0.272430 -0.093186
C29   C     C_R   0.705611 0.946981 0.761801 -0.096332
C30   C     C_R   0.767961 0.738286 0.939362 -0.105506
C31   C     C_R   0.998148 0.781670 0.726017 -0.103768
C32   C     C_3   0.051678 0.354228 0.159260 0.071730
C33   C     C_3   0.141937 0.430492 0.256699 -0.348061
C34   C     C_3   0.205433 0.446488 0.270025 -0.914050
C35   C     C_R   0.843080 0.120548 0.120199 -0.090404
C36   C     C_3   0.114129 0.069941 0.038173 0.076937
C37   C     C_3   0.101089 0.041413 0.066775 -0.287145
C38   C     C_3   0.016147 0.991320 0.026294 -1.046596
C39   C     C_3   0.162624 0.161666 0.279230 0.084755
C40   C     C_3   0.241770 0.235713 0.317868 -0.364331
C41   C     C_3   0.220969 0.256462 0.282822 -0.922000
C42   C     C_3   0.767940 0.911867 0.886505 0.074788
C43   C     C_3   0.752810 0.864611 0.896830 -0.275205
C44   C     C_3   0.827985 0.890039 0.946334 -0.996844
C45   C     C_3   0.859482 0.755256 0.857752 0.052592
C46   C     C_R   0.208541 0.173162 0.930010 -0.075734
C47   C     C_3   0.854240 0.716087 0.796979 -0.281966
C48   C     C_3   0.890995 0.770956 0.797051 -0.951666
C49   C     C_3   0.911037 0.834477 0.633310 0.078955
C50   C     C_3   0.818516 0.736564 0.553709 -0.347041
C51   C     C_3   0.750382 0.721197 0.522155 -0.919324
C52   C     C_2   0.718101 0.966293 0.026381 0.473580
C53   C     C_2   0.161894 0.111743 0.801508 0.487711
C54   C     C_2   0.053335 0.773768 0.997760 0.468518
C55   C     C_2   0.856507 0.225030 0.902972 0.473087
C56   C     C_2   0.951239 0.997344 0.239395 0.480720
C57   C     C_R   0.151757 0.927751 0.135965 -0.054074
C58   C     C_2   0.164694 0.930532 0.010309 0.482685
C59   C     C_2   0.883573 0.221254 0.314511 0.480763
C60   C     C_2   0.189309 0.321769 0.017959 0.467488
C61   C     C_2   0.323877 0.972035 0.291459 0.497505
C62   C     C_2   0.772920 0.940171 0.655797 0.496848
C63   C     C_2   0.657528 0.680490 0.006141 0.489146
C64   C     C_2   0.091233 0.712386 0.800519 0.470550
C65   C     C_3   0.968529 0.214943 0.437982 0.133125
C66   C     C_3   0.873368 0.122195 0.341988 -0.330680
C67   C     C_3   0.849928 0.051689 0.316526 -0.930792
C68   C     C_R   0.780677 0.082628 0.829391 -0.092381
C69   C     C_3   0.290418 0.505092 0.171425 0.027297
C70   C     C_3   0.355723 0.601783 0.250615 -0.272307
C71   C     C_3   0.366721 0.625655 0.315245 -0.917315
C72   C     C_3   0.422921 0.957413 0.270007 0.116112
C73   C     C_3   0.414682 0.898796 0.258512 -0.323412
C74   C     C_3   0.369866 0.826039 0.172567 -0.930968
C75   C     C_3   0.619655 0.758314 0.421884 0.145542
C76   C     C_3   0.609790 0.722781 0.445114 -0.457142
C77   C     C_3   0.542269 0.625197 0.366139 -0.846844
C78   C     C_3   0.535220 0.678856 0.012830 0.097567
C79   C     C_R   0.855392 0.867940 0.083410 -0.090586
C80   C     C_3   0.631052 0.757694 0.106967 -0.323696
C81   C     C_3   0.651757 0.820040 0.174032 -0.955381
C82   C     C_3   0.016907 0.574451 0.793508 0.135629
C83   C     C_3   0.104198 0.671803 0.889122 -0.313797
C84   C     C_3   0.118797 0.684876 0.951706 -0.946436
C85   C     C_3   0.273406 0.556225 0.610632 0.125779
C86   C     C_3   0.373664 0.640895 0.691197 -0.229484
C87   C     C_3   0.406357 0.717989 0.725092 -0.940635
C88   C     C_3   0.487489 0.550606 0.118900 0.174165
C89   C     C_3   0.567627 0.617334 0.154420 -0.340987
C90   C     C_R   0.068007 0.847444 0.860042 -0.090622
C91   C     C_3   0.541856 0.585243 0.080117 -0.873671
C92   C     C_3   0.666475 0.341428 0.543721 0.157202
C93   C     C_3   0.652769 0.385481 0.567170 -0.340009
C94   C     C_3   0.725885 0.467490 0.666401 -0.888295
C95   C     C_3   0.573916 0.946412 0.485338 0.159155
C96   C     C_3   0.515619 0.938233 0.436219 -0.320908
C97   C     C_3   0.570609 0.025432 0.481199 -0.913763
C98   C     C_3   0.351892 0.486863 0.668830 0.131463
C99   C     C_3   0.357303 0.472879 0.616541 -0.282998
C100  C     C_3   0.282326 0.375167 0.527165 -0.838196
C101  C     C_R   0.767974 0.027965 0.038745 -0.034293
C102  C     C_3   0.708995 0.353400 0.421321 0.192412
C103  C     C_3   0.679456 0.369450 0.384075 -0.316791
C104  C     C_3   0.655367 0.327916 0.308811 -0.936022
C105  C     C_2   0.138013 0.371211 0.402188 0.473896
C106  C     C_2   0.465339 0.457009 0.157771 0.488502
C107  C     C_2   0.444491 0.192864 0.335777 0.515656
C108  C     C_2   0.556644 0.901035 0.568873 0.503692
C109  C     C_2   0.582029 0.698356 0.836255 0.552665
C110  C     C_2   0.790245 0.540620 0.586663 0.468184
C111  C     C_R   0.430941 0.683966 0.111093 0.932288
C112  C     C_R   0.168386 0.107299 0.850579 -0.039310
C113  C     C_R   0.067673 0.838118 0.047612 -0.008507
C114  C     C_R   0.826941 0.165670 0.897137 -0.036833
C115  C     C_R   0.939016 0.953156 0.174875 -0.017137
C116  C     C_R   0.129008 0.922751 0.949745 -0.050816
C117  C     C_R   0.735262 0.992674 0.965202 -0.156165
C118  C     C_R   0.128810 0.031377 0.812927 -0.163713
C119  C     C_R   0.992974 0.805198 0.007305 -0.165456
C120  C     C_R   0.848778 0.196004 0.964471 -0.165253
C121  C     C_R   0.014647 0.995159 0.208594 -0.169218
C122  C     C_R   0.683013 0.110354 0.429616 0.927893
C123  C     C_R   0.163962 0.996927 0.986069 -0.163575
C124  C     C_R   0.975074 0.300390 0.274165 0.533061
C125  C     C_R   0.291186 0.303395 0.089642 0.614618
C126  C     C_R   0.314086 0.098626 0.316047 0.526055
C127  C     C_R   0.676923 0.912062 0.690077 0.609494
C128  C     C_R   0.692155 0.692910 0.906221 0.528827
C129  C     C_R   0.966749 0.709407 0.690568 0.535311
C130  C     C_R   0.892331 0.163506 0.201305 0.470992
C131  C     C_R   0.253643 0.253737 0.974746 0.542569
C132  C     C_R   0.230929 0.967539 0.180728 0.526200
C133  C     C_R   0.569940 0.889386 0.316613 0.928070
C134  C     C_R   0.752165 0.044890 0.756431 0.543595
C135  C     C_R   0.775742 0.822585 0.043122 0.486629
C136  C     C_R   0.023077 0.766934 0.815355 0.459532
C137  C     C_R   0.974360 0.276013 0.375876 -0.052206
C138  C     C_R   0.281209 0.396288 0.075093 -0.090757
C139  C     C_R   0.392301 0.042870 0.321335 -0.072730
C140  C     C_R   0.698610 0.910488 0.594721 -0.058238
C141  C     C_R   0.600356 0.666868 0.948695 -0.065942
C142  C     C_R   0.995033 0.629858 0.729193 -0.056186
C143  C     C_R   0.025986 0.310499 0.452371 0.403411
C144  C     C_R   0.317275 0.570473 0.889636 0.910584
C145  C     C_R   0.319931 0.472662 0.113484 0.320461
C146  C     C_R   0.463748 0.070432 0.355739 0.382498
C147  C     C_R   0.660829 0.869913 0.517496 0.318530
C148  C     C_R   0.528139 0.631561 0.920530 0.413429
C149  C     C_R   0.956868 0.554878 0.693996 0.414393
C150  C     C_R   0.117775 0.381497 0.520814 -0.327097
C151  C     C_R   0.396064 0.533980 0.148319 -0.294432
C152  C     C_R   0.534568 0.147172 0.397695 -0.329887
C153  C     C_R   0.602830 0.857135 0.467958 -0.296843
C154  C     C_R   0.467528 0.605845 0.854772 -0.334464
C155  C     C_R   0.888998 0.316233 0.569158 0.943581
C156  C     C_R   0.865494 0.472362 0.611243 -0.366204
C157  C     C_R   0.156229 0.410941 0.509102 0.352695
C158  C     C_R   0.441049 0.525920 0.157776 0.370892
C159  C     C_R   0.533738 0.194818 0.402958 0.397380
C160  C     C_R   0.573995 0.873993 0.488981 0.383026
C161  C     C_R   0.479506 0.617045 0.819061 0.404516
C162  C     C_R   0.811670 0.466115 0.568903 0.366732
C163  C     C_R   0.392568 0.570382 0.824100 0.954109
C164  C     C_R   0.569537 0.823695 0.392442 0.910077
C165  C     C_R   0.825623 0.393263 0.571342 1.005854
C166  C     C_R   0.873339 0.173633 0.121843 -0.053020
C167  C     C_R   0.430598 0.608330 0.178275 0.919629
C168  C     C_R   0.172973 0.427961 0.606079 0.993128
C169  C     C_R   0.607138 0.175075 0.429827 0.990003
C170  C     C_R   0.101733 0.359947 0.424143 -0.067376
C171  C     C_R   0.412022 0.459238 0.135878 -0.120491
C172  C     C_R   0.455515 0.157411 0.352406 -0.074397
C173  C     C_R   0.598680 0.898486 0.555885 -0.139485
C174  C     C_R   0.559260 0.667491 0.858770 -0.052642
C175  C     C_R   0.847452 0.543301 0.616218 -0.059062
C176  C     C_R   0.011052 0.296031 0.359102 0.015585
C177  C     C_R   0.206992 0.159845 0.968927 -0.048582
C178  C     C_R   0.329583 0.391942 0.089842 0.103469
C179  C     C_R   0.386156 0.083536 0.315099 0.009662
C180  C     C_R   0.665156 0.922056 0.612039 0.095529
C181  C     C_R   0.618295 0.689549 0.921489 0.008801
C182  C     C_R   0.939808 0.624776 0.693798 0.016789
C183  C     C_1   0.358685 0.610634 0.968008 -0.198662
C184  C     C_1   0.608687 0.966655 0.356004 -0.199727
C185  C     C_1   0.965994 0.355595 0.606907 -0.154159
C186  C     C_1   0.393468 0.645139 0.034362 -0.199148
C187  C     C_1   0.032431 0.390268 0.641751 -0.145893
C188  C     C_R   0.157656 0.980530 0.182610 -0.044919
C189  C     C_1   0.642936 0.032623 0.390140 -0.203572
C190  C     C_R   0.873529 0.191617 0.050681 -0.083476
C191  C     C_R   0.168818 0.071122 0.970817 -0.074607
C192  C     C_R   0.088193 0.998287 0.190155 -0.089977
C193  C     C_R   0.755718 0.013670 0.902413 -0.072465
C194  C     C_R   0.921656 0.823363 0.010311 -0.085938
C195  C     C_R   0.070673 0.932318 0.801744 -0.083083
C196  C     C_R   0.840458 0.137128 0.047313 0.025456
C197  C     C_R   0.164761 0.081333 0.928413 0.029249
C198  C     C_R   0.081234 0.945893 0.140807 0.027551
H1    H     H_    0.026405 0.388281 0.263878 0.210190
H2    H     H_    0.876500 0.255158 0.010290 0.236734
H3    H     H_    0.721954 0.877299 0.241406 0.271203
H4    H     H_    0.610436 0.785727 0.170400 0.279409
H5    H     H_    0.015542 0.536041 0.790240 0.172720
H6    H     H_    0.961475 0.549884 0.773135 0.132077
H7    H     H_    0.159395 0.697243 0.908966 0.258961
H8    H     H_    0.103982 0.710382 0.895128 0.243083
H9    H     H_    0.064441 0.660066 0.933274 0.279888
H10   H     H_    0.181651 0.756125 0.020044 0.275612
H11   H     H_    0.122310 0.649482 0.949680 0.259661
H12   H     H_    0.251092 0.566415 0.630028 0.143271
H13   H     H_    0.076397 0.055738 0.279255 0.230299
H14   H     H_    0.246092 0.542509 0.559037 0.173245
H15   H     H_    0.401770 0.657375 0.744548 0.275720
H16   H     H_    0.397026 0.630759 0.673536 0.273508
H17   H     H_    0.380674 0.704036 0.673571 0.272313
H18   H     H_    0.479332 0.778271 0.783718 0.290413
H19   H     H_    0.384788 0.730186 0.744326 0.262688
H20   H     H_    0.439424 0.538717 0.080205 0.114095
H21   H     H_    0.456679 0.487660 0.074585 0.163120
H22   H     H_    0.600089 0.681068 0.200262 0.228773
H23   H     H_    0.615308 0.628347 0.191465 0.252632
H24   H     H_    0.216586 0.055930 0.056262 0.236744
H25   H     H_    0.507799 0.520748 0.032462 0.279165
H26   H     H_    0.601838 0.633562 0.107867 0.283173
H27   H     H_    0.497929 0.578440 0.045235 0.263595
H28   H     H_    0.734671 0.392081 0.585233 0.166146
H29   H     H_    0.661309 0.316440 0.561598 0.107713
H30   H     H_    0.651871 0.404851 0.543917 0.303953
H31   H     H_    0.588522 0.338108 0.533849 0.237679
H32   H     H_    0.728060 0.450008 0.691558 0.270910
H33   H     H_    0.713470 0.497195 0.681047 0.285296
H34   H     H_    0.790505 0.517040 0.700817 0.280673
H35   H     H_    0.060370 0.369577 0.134406 0.174379
H36   H     H_    0.615821 0.965167 0.485434 0.105889
H37   H     H_    0.616896 0.999369 0.554591 0.165728
H38   H     H_    0.473620 0.886880 0.367498 0.225000
H39   H     H_    0.472182 0.917888 0.434076 0.263337
H40   H     H_    0.613700 0.077939 0.550301 0.275594
H41   H     H_    0.526507 0.018115 0.445614 0.310184
H42   H     H_    0.611828 0.045184 0.480696 0.261517
H43   H     H_    0.284638 0.445040 0.626783 0.183421
H44   H     H_    0.361351 0.462597 0.684313 0.108404
H45   H     H_    0.354330 0.502322 0.606079 0.296701
H46   H     H_    0.023653 0.292868 0.120010 0.129068
H47   H     H_    0.420998 0.506335 0.654646 0.221014
H48   H     H_    0.284501 0.344361 0.535882 0.267652
H49   H     H_    0.288705 0.367396 0.491401 0.268186
H50   H     H_    0.217918 0.340775 0.486907 0.278842
H51   H     H_    0.655634 0.281249 0.366780 0.173981
H52   H     H_    0.767369 0.382028 0.445985 0.115693
H53   H     H_    0.621257 0.340723 0.359347 0.282794
H54   H     H_    0.733451 0.441389 0.436858 0.247871
H55   H     H_    0.712961 0.356505 0.332256 0.276111
H56   H     H_    0.634638 0.341033 0.283557 0.282964
H57   H     H_    0.169651 0.491417 0.294936 0.248540
H58   H     H_    0.600193 0.255526 0.254106 0.266937
H59   H     H_    0.095224 0.329360 0.335783 0.051146
H60   H     H_    0.439239 0.401648 0.134629 0.053595
H61   H     H_    0.383882 0.163710 0.296443 0.079410
H62   H     H_    0.576344 0.920426 0.620996 0.046318
H63   H     H_    0.642226 0.734546 0.864531 0.038494
H64   H     H_    0.819049 0.601021 0.624619 0.049714
H65   H     H_    0.134941 0.415243 0.282162 0.219915
H66   H     H_    0.179993 0.387031 0.234105 0.265561
H67   H     H_    0.270345 0.502488 0.341206 0.279968
H68   H     H_    0.214372 0.462759 0.245882 0.257860
H69   H     H_    0.272528 0.259478 0.145105 0.207390
H70   H     H_    0.059733 0.009383 0.965439 0.138385
H71   H     H_    0.111109 0.108626 0.054349 0.155191
H72   H     H_    0.098847 0.998418 0.045971 0.248621
H73   H     H_    0.157371 0.100276 0.139650 0.238706
H74   H     H_    0.018270 0.034148 0.048821 0.272881
H75   H     H_    0.007679 0.970012 0.046821 0.272811
H76   H     H_    0.959010 0.932183 0.953336 0.267605
H77   H     H_    0.141913 0.180722 0.293442 0.190514
H78   H     H_    0.105550 0.100299 0.206081 0.136299
H79   H     H_    0.298350 0.296053 0.390796 0.244921
H80   H     H_    0.311152 0.191287 0.383725 0.210579
H81   H     H_    0.260778 0.215950 0.300665 0.219211
H82   H     H_    0.164365 0.197102 0.209947 0.261503
H83   H     H_    0.278943 0.309065 0.310673 0.278516
H84   H     H_    0.205145 0.279747 0.302319 0.270349
H85   H     H_    0.829383 0.984246 0.953455 0.141410
H86   H     H_    0.775858 0.895954 0.851572 0.147396
H87   H     H_    0.746856 0.881858 0.933415 0.259024
H88   H     H_    0.690460 0.792227 0.830672 0.237997
H89   H     H_    0.832879 0.870333 0.909104 0.266315
H90   H     H_    0.815163 0.855421 0.953471 0.274357
H91   H     H_    0.648446 0.834424 0.713623 0.209545
H92   H     H_    0.891163 0.962129 0.013003 0.276801
H93   H     H_    0.929444 0.824235 0.924739 0.167304
H94   H     H_    0.819140 0.755431 0.833754 0.145097
H95   H     H_    0.892555 0.713672 0.819344 0.272566
H96   H     H_    0.784619 0.647753 0.728787 0.229170
H97   H     H_    0.853316 0.773808 0.774254 0.259959
H98   H     H_    0.885727 0.740573 0.751944 0.263870
H99   H     H_    0.961306 0.838967 0.864310 0.275301
H100  H     H_    0.909477 0.859590 0.616323 0.184267
H101  H     H_    0.931238 0.873138 0.690046 0.128766
H102  H     H_    0.699119 0.634984 0.813578 0.210955
H103  H     H_    0.800778 0.698476 0.498993 0.253954
H104  H     H_    0.817323 0.712077 0.571815 0.213664
H105  H     H_    0.766671 0.758639 0.575767 0.260526
H106  H     H_    0.684408 0.650019 0.465457 0.279392
H107  H     H_    0.748117 0.742220 0.500581 0.271439
H108  H     H_    0.722673 0.987230 0.070739 0.107593
H109  H     H_    0.146237 0.135439 0.793820 0.122642
H110  H     H_    0.096417 0.780418 0.031295 0.098617
H111  H     H_    0.886424 0.236309 0.890862 0.122230
H112  H     H_    0.905469 0.959343 0.229273 0.100992
H113  H     H_    0.930105 0.726417 0.607650 0.211001
H114  H     H_    0.168541 0.893978 0.999019 0.138492
H115  H     H_    0.841857 0.189564 0.252528 0.055564
H116  H     H_    0.154962 0.328352 0.009040 0.092958
H117  H     H_    0.269964 0.952250 0.266407 0.042433
H118  H     H_    0.789421 0.920379 0.635402 0.091693
H119  H     H_    0.716846 0.714155 0.033269 0.049479
H120  H     H_    0.122106 0.772891 0.834198 0.052601
H121  H     H_    0.976881 0.220445 0.480784 0.174001
H122  H     H_    0.013981 0.224145 0.447773 0.140923
H123  H     H_    0.827952 0.112449 0.332387 0.258280
H124  H     H_    0.674317 0.922041 0.902441 0.234669
H125  H     H_    0.864350 0.114157 0.297750 0.250428
H126  H     H_    0.894343 0.059917 0.325289 0.285237
H127  H     H_    0.781303 0.985544 0.246298 0.281292
H128  H     H_    0.855342 0.055766 0.357546 0.257966
H129  H     H_    0.311796 0.491111 0.195215 0.131008
H130  H     H_    0.225541 0.463596 0.136799 0.158629
H131  H     H_    0.420397 0.643720 0.285063 0.199654
H132  H     H_    0.332520 0.615109 0.227719 0.252304
H133  H     H_    0.302806 0.584926 0.282538 0.264730
H134  H     H_    0.414156 0.696033 0.371589 0.290543
H135  H     H_    0.105964 0.986331 0.757210 0.237025
H136  H     H_    0.392299 0.615146 0.340838 0.266263
H137  H     H_    0.461482 0.986887 0.269209 0.132627
H138  H     H_    0.355499 0.915364 0.213375 0.160601
H139  H     H_    0.481098 0.939438 0.314392 0.227738
H140  H     H_    0.375779 0.868510 0.258614 0.253912
H141  H     H_    0.303294 0.784602 0.115517 0.264923
H142  H     H_    0.363124 0.783539 0.165281 0.281587
H143  H     H_    0.409726 0.855028 0.172765 0.267953
H144  H     H_    0.637380 0.745557 0.397441 0.201320
H145  H     H_    0.555395 0.720783 0.366353 0.103702
H146  H     H_    0.930134 0.735104 0.943435 0.228411
H147  H     H_    0.674149 0.760291 0.500529 0.230657
H148  H     H_    0.587829 0.730814 0.465679 0.241355
H149  H     H_    0.476979 0.586280 0.310228 0.256317
H150  H     H_    0.536054 0.600996 0.384462 0.281550
H151  H     H_    0.563298 0.615103 0.345085 0.275437
H152  H     H_    0.491992 0.646521 0.008474 0.162043
H153  H     H_    0.523371 0.702627 0.998408 0.112107
H154  H     H_    0.643621 0.734178 0.120962 0.259006
H155  H     H_    0.675431 0.794298 0.114095 0.230607
H156  H     H_    0.639397 0.844390 0.161381 0.269574
N1    N     N_R   0.956412 0.251700 0.275791 -0.335498
N2    N     N_R   0.291337 0.314809 0.051120 -0.309833
N3    N     N_R   0.308443 0.048910 0.269677 -0.338553
N4    N     N_R   0.700709 0.961256 0.689042 -0.304488
N5    N     N_R   0.697402 0.735715 0.958086 -0.337726
N6    N     N_R   0.977847 0.702520 0.734518 -0.336603
O1    O     O_R   0.113790 0.385810 0.669360 -0.625245
O2    O     O_R   0.492620 0.825030 0.269500 -0.629225
O3    O     O_R   0.269500 0.492620 0.825030 -0.607834
O4    O     O_R   0.825030 0.269500 0.492620 -0.597151
O5    O     O_R   0.327770 0.492820 0.776380 -0.608607
O6    O     O_R   0.492820 0.776380 0.327770 -0.604208
O7    O     O_R   0.776380 0.327770 0.492820 -0.623453
O8    O     O_R   0.507180 0.672230 0.223620 -0.604556
O9    O     O_R   0.223620 0.507180 0.672230 -0.609832
O10   O     O_R   0.672230 0.223620 0.507180 -0.623975
O11   O     O_R   0.388950 0.614380 0.837520 -0.612192
O12   O     O_R   0.385810 0.669360 0.113790 -0.606885
O13   O     O_R   0.614380 0.837520 0.388950 -0.585688
O14   O     O_R   0.837520 0.388950 0.614380 -0.655912
O15   O     O_R   0.385620 0.611050 0.162480 -0.573219
O16   O     O_R   0.162480 0.385620 0.611050 -0.653972
O17   O     O_R   0.611050 0.162480 0.385620 -0.623536
O18   O     O_2   0.032898 0.385281 0.346859 -0.568944
O19   O     O_2   0.331556 0.367179 0.166484 -0.582670
O20   O     O_2   0.391575 0.178371 0.404014 -0.576089
O21   O     O_2   0.625069 0.829323 0.621333 -0.583201
O22   O     O_2   0.613416 0.607087 0.822354 -0.571360
O23   O     O_R   0.669360 0.113790 0.385810 -0.615533
O24   O     O_2   0.923734 0.645283 0.611870 -0.572695
O25   O     O_2   0.880027 0.119325 0.207219 -0.584324
O26   O     O_2   0.261592 0.272745 0.944055 -0.603406
O27   O     O_2   0.231773 0.926938 0.136654 -0.601274
O28   O     O_2   0.772546 0.089110 0.750232 -0.597484
O29   O     O_2   0.775345 0.864292 0.086918 -0.577250
O30   O     O_2   0.022447 0.751504 0.850435 -0.566227
O31   O     O_3   0.995941 0.345123 0.148884 -0.650659
O32   O     O_3   0.197391 0.122961 0.084134 -0.654197
O33   O     O_3   0.186374 0.150465 0.320118 -0.652971
O34   O     O_R   0.614190 0.886210 0.330640 -0.607892
O35   O     O_3   0.694486 0.882627 0.837103 -0.645195
O36   O     O_3   0.827310 0.703828 0.857503 -0.653036
O37   O     O_3   0.971048 0.846099 0.653371 -0.651719
O38   O     O_2   0.669495 0.890373 0.964989 -0.564937
O39   O     O_2   0.170786 0.085579 0.766051 -0.546483
O40   O     O_2   0.990958 0.710485 0.917621 -0.560030
O41   O     O_2   0.850813 0.264999 0.925028 -0.546594
O42   O     O_2   0.014556 0.077554 0.306354 -0.571882
O43   O     O_2   0.193008 0.980593 0.075735 -0.599708
O44   O     O_2   0.854978 0.213308 0.333607 -0.540471
O45   O     O_R   0.330640 0.614190 0.886210 -0.615348
O46   O     O_2   0.149254 0.251302 0.977920 -0.570221
O47   O     O_2   0.327557 0.936054 0.296268 -0.536399
O48   O     O_2   0.818650 0.989178 0.730447 -0.568466
O49   O     O_2   0.638134 0.652093 0.022047 -0.535919
O50   O     O_2   0.137115 0.713313 0.820527 -0.534323
O51   O     O_3   0.988008 0.280121 0.463467 -0.599558
O52   O     O_3   0.279982 0.484563 0.111548 -0.612688
O53   O     O_3   0.466097 0.024452 0.351078 -0.609611
O54   O     O_3   0.687552 0.850603 0.496009 -0.636151
O55   O     O_3   0.513050 0.615465 0.951704 -0.583064
O56   O     O_R   0.886210 0.330640 0.614190 -0.622729
O57   O     O_3   0.009151 0.561169 0.737273 -0.594115
O58   O     O_3   0.246801 0.486420 0.579788 -0.610369
O59   O     O_3   0.514782 0.584553 0.190431 -0.579126
O60   O     O_3   0.608610 0.276224 0.454329 -0.550706
O61   O     O_3   0.520114 0.864929 0.442725 -0.574245
O62   O     O_3   0.411505 0.576106 0.743276 -0.604070
O63   O     O_3   0.722768 0.384650 0.485114 -0.546344
O64   O     O_2   0.215699 0.425253 0.456989 -0.565090
O65   O     O_2   0.539979 0.517739 0.203779 -0.531204
O66   O     O_2   0.501635 0.253224 0.363024 -0.506332
O67   O     O_R   0.174970 0.507380 0.730500 -0.604921
O68   O     O_2   0.497872 0.879494 0.520453 -0.520568
O69   O     O_2   0.535395 0.686444 0.787968 -0.551430
O70   O     O_2   0.710266 0.471474 0.521108 -0.533615
O71   O     O_R   0.507380 0.730500 0.174970 -0.633571
O72   O     O_R   0.730500 0.174970 0.507380 -0.613368
Zn1   Zn    Zn3+2 0.210520 0.418930 0.712610 0.972601
Zn2   Zn    Zn3+2 0.418930 0.712610 0.210520 0.976508
Zn3   Zn    Zn3+2 0.712610 0.210520 0.418930 0.997367
Zn4   Zn    Zn3+2 0.581070 0.789480 0.287390 0.975099
Zn5   Zn    Zn3+2 0.287390 0.581070 0.789480 1.000469
Zn6   Zn    Zn3+2 0.789480 0.287390 0.581070 0.960590

loop_
_geom_bond_atom_site_label_1
_geom_bond_atom_site_label_2
_ccdc_geom_bond_type
C39   H78   S    
C13   C79   A    
C22   C29   A    
C46   C112  A    
C96   H39   S    
C154  C161  A    
C143  O51   S    
C78   H153  S    
C70   H131  S    
C6    C196  A    
C170  C176  A    
C4    C194  A    
C98   O62   S    
C155  O4    A    
C2    C29   A    
C75   O54   S    
C59   H115  S    
C83   H8    S    
C108  O68   D    
C165  O7    A    
C149  O57   S    
C138  C145  A    
C47   H96   S    
C16   C193  A    
C34   H67   S    
C51   H107  S    
C74   H142  S    
C16   C22   A    
C171  C178  A    
C90   C116  A    
C105  O64   D    
C65   O51   S    
C63   H119  S    
O45   Zn5   S    
C36   H70   S    
C18   C25   A    
C50   H103  S    
C20   H69   S    
C77   H151  S    
O11   Zn5   S    
C45   C47   S    
C74   H143  S    
C52   C101  S    
C159  C172  A    
C151  C158  A    
C78   O55   S    
C33   H57   S    
C66   H123  S    
C126  O20   S    
C159  O60   S    
C38   H76   S    
C60   H116  S    
C76   H148  S    
C7    C197  A    
C54   O40   D    
C75   C76   S    
C77   H150  S    
C37   C38   S    
C133  C184  S    
C188  C198  A    
C150  C168  S    
C108  C173  S    
C107  C172  S    
C129  N6    A    
C111  O71   A    
C172  C179  A    
C142  C182  A    
C21   C28   A    
C40   H79   S    
C71   H134  S    
C81   H156  S    
C118  H135  S    
C122  C189  S    
C69   H129  S    
C109  H63   S    
C145  O52   S    
C72   C73   S    
C24   C90   A    
C81   H4    S    
C117  H124  S    
C132  O27   S    
C131  O26   S    
C88   H21   S    
C103  H53   S    
C59   O44   D    
C92   O60   S    
C41   H82   S    
C51   H105  S    
C161  C174  A    
C136  N6    A    
C151  C167  S    
C140  C180  A    
C130  N1    A    
C141  C181  A    
C164  O6    A    
C69   C70   S    
C147  C153  A    
C98   H44   S    
C139  C179  A    
O5    Zn1   S    
C88   C89   S    
C98   C99   S    
C100  H49   S    
C91   H26   S    
C52   O38   D    
C23   H102  S    
C60   C138  S    
C53   O39   D    
C25   C31   A    
C115  C121  A    
C116  C123  A    
C79   C115  A    
C160  C173  A    
C178  N2    S    
O34   Zn4   S    
C39   O33   S    
C42   H85   S    
C94   H34   S    
C160  O61   S    
O72   Zn6   S    
C17   C23   A    
C142  C149  A    
C36   C37   S    
C166  C196  A    
C2    C68   A    
C134  N4    A    
C89   H23   S    
C78   C80   S    
C185  C187  T    
C16   O35   S    
C73   H140  S    
C107  H61   S    
C49   H101  S    
C92   C93   S    
C168  O16   A    
C42   O35   S    
C49   O37   S    
C47   C48   S    
C40   H81   S    
C87   H18   S    
O15   Zn2   S    
C89   C91   S    
C48   H98   S    
C65   H122  S    
C66   C67   S    
C152  C159  A    
C177  C197  A    
C32   H46   S    
C58   C116  S    
C46   C177  A    
C180  N4    S    
C17   C194  A    
C14   O32   S    
C140  C147  A    
C182  N6    S    
C17   O36   S    
C1    C187  S    
C56   O42   D    
C97   H41   S    
C41   H84   S    
C155  C185  S    
C183  C186  T    
C39   C40   S    
C57   C113  A    
C162  C175  A    
C104  H55   S    
C107  O66   D    
C75   H144  S    
C64   H120  S    
C86   H16   S    
C3    C9    A    
C18   O37   S    
C84   H10   S    
C83   C84   S    
C45   H93   S    
C135  N5    A    
C35   C130  A    
C56   H112  S    
C168  O9    A    
C95   H36   S    
C192  C198  A    
C133  O2    A    
C29   C127  A    
C109  O69   D    
C64   O50   D    
C94   H32   S    
C39   H77   S    
C44   H89   S    
C111  C186  S    
O67   Zn5   S    
O1    Zn1   S    
C70   H132  S    
C55   C114  S    
C80   H154  S    
C19   H1    S    
C161  O62   S    
C132  N3    A    
C153  C160  A    
C31   C129  A    
C85   O58   S    
C88   H20   S    
C11   C191  A    
C102  C103  S    
C47   H95   S    
C100  H48   S    
C72   H138  S    
C49   C50   S    
C9    C120  A    
C37   H73   S    
C62   C140  S    
C38   H74   S    
C1    O67   A    
C8    C119  A    
C128  O22   S    
C139  C146  A    
C144  O45   A    
C102  H51   S    
C73   C74   S    
C57   C132  A    
C50   H104  S    
C119  H146  S    
C148  C154  A    
C181  N5    S    
C167  O15   A    
C53   H109  S    
C150  C157  A    
C5    C11   A    
O12   Zn2   S    
C28   C188  A    
C82   H5    S    
C106  O65   D    
O6    Zn2   S    
C35   C166  A    
O56   Zn6   S    
C19   C26   A    
C77   H149  S    
C113  C119  A    
C8    C198  A    
O9    Zn5   S    
C25   H113  S    
C8    C194  A    
C70   C71   S    
C82   O57   S    
C99   H47   S    
C88   O59   S    
C6    C117  A    
C129  O24   S    
O8    Zn4   S    
C43   H88   S    
C144  C183  S    
C92   H28   S    
O3    Zn1   S    
C71   H133  S    
C26   C124  A    
C78   H152  S    
C28   C126  A    
C32   H35   S    
O14   Zn6   S    
C30   C128  A    
C105  C170  S    
C162  O63   S    
C14   C20   A    
C109  C174  S    
C81   H3    S    
C144  O3    A    
C85   C86   S    
C157  O58   S    
C71   H136  S    
C10   C192  A    
C165  O14   A    
O4    Zn3   S    
C1    O1    A    
O16   Zn1   S    
C100  H50   S    
C157  C170  A    
C13   C30   A    
C74   H141  S    
C50   C51   S    
C63   C141  S    
C146  O53   S    
C3    C193  A    
C62   O48   D    
C58   H114  S    
C72   H137  S    
C55   O41   D    
C42   C43   S    
C7    C195  A    
C48   H99   S    
C105  H59   S    
C18   C195  A    
C84   H11   S    
C11   C123  A    
C27   C177  A    
C35   C101  A    
C12   O31   S    
C42   H86   S    
C38   H75   S    
O71   Zn4   S    
C20   C27   A    
C79   C135  A    
C33   H65   S    
C173  C180  A    
C34   H66   S    
C76   H147  S    
C101  C117  A    
C32   C33   S    
C68   C134  A    
C55   H111  S    
C24   C31   A    
C127  O21   S    
C21   H80   S    
C89   H22   S    
C152  C169  S    
C27   C125  A    
C64   C142  S    
C156  C165  S    
C12   C19   A    
C73   H139  S    
C167  O8    A    
C120  H2    S    
C56   C115  S    
C135  O29   S    
C66   H125  S    
C110  O70   D    
C99   H45   S    
C49   H100  S    
C69   O52   S    
C61   H117  S    
C130  O25   S    
C63   O49   D    
C83   H7    S    
C82   C83   S    
C103  C104  S    
C176  N1    S    
C87   H17   S    
C58   O43   D    
C124  O18   S    
O2    Zn2   S    
C6    C193  A    
C114  C120  A    
C65   H121  S    
C69   H130  S    
C82   H6    S    
C15   C192  A    
C93   C94   S    
C179  N3    S    
C106  C171  S    
C95   C96   S    
C93   H30   S    
C43   C44   S    
C10   C121  A    
C85   H12   S    
O17   Zn3   S    
C60   O46   D    
C110  C175  S    
C97   H40   S    
C61   O47   D    
C102  O63   S    
C44   H92   S    
C158  O59   S    
C103  H54   S    
C75   H145  S    
C149  C156  A    
C54   H110  S    
C41   H83   S    
C51   H106  S    
C158  C171  A    
C59   C137  S    
C136  O30   S    
C54   C113  S    
C36   O32   S    
C104  H56   S    
C134  O28   S    
C4    C13   A    
C57   C188  A    
C141  C148  A    
C127  N4    A    
C67   H127  S    
C98   H43   S    
C32   O31   S    
C36   H71   S    
C190  C196  A    
C169  O10   A    
C5    C195  A    
C67   H128  S    
C121  H13   S    
C155  O56   A    
C156  C162  A    
C91   H27   S    
C7    C118  A    
C95   H37   S    
C122  O72   A    
C174  C181  A    
C94   H33   S    
C128  N5    A    
C143  C150  A    
C44   H90   S    
C123  H24   S    
C153  C164  S    
C23   C30   A    
C154  C163  S    
C124  N1    A    
C76   C77   S    
C92   H29   S    
C137  C176  A    
C169  O17   A    
C46   C131  A    
C61   C139  S    
O10   Zn6   S    
C147  O54   S    
C131  N2    A    
C15   O33   S    
C163  O11   A    
C80   H155  S    
C125  N2    A    
C90   C136  A    
C99   C100  S    
C163  O5    A    
C96   C97   S    
C33   C34   S    
C96   H38   S    
C145  C151  A    
C48   H97   S    
C175  C182  A    
C146  C152  A    
C14   C191  A    
C53   C112  S    
C40   C41   S    
C52   H108  S    
C108  H62   S    
C37   H72   S    
C4    C10   A    
C138  C178  A    
C85   H14   S    
C125  O19   S    
C126  N3    A    
C86   C87   S    
C93   H31   S    
C122  O23   A    
C97   H42   S    
C26   C166  A    
C102  H52   S    
C34   H68   S    
C191  C197  A    
C80   C81   S    
O13   Zn4   S    
C111  O12   A    
C12   C190  A    
C104  H58   S    
O23   Zn3   S    
C22   H91   S    
C2    C3    A    
C86   H15   S    
C133  O34   A    
C112  C118  A    
C164  O13   A    
C84   H9    S    
C5    C24   A    
C95   O61   S    
C45   H94   S    
C87   H19   S    
C137  C143  A    
C110  H64   S    
C67   H126  S    
C15   C21   A    
C62   H118  S    
C65   C66   S    
C106  H60   S    
C184  C189  T    
C91   H25   S    
O7    Zn3   S    
C45   O36   S    
C72   O53   S    
C9    C190  A    
C68   C114  A    
C43   H87   S    
C148  O55   S    
