data_mof_unit_28173.cif
_audit_creation_date              2012-10-26T19:21:02-0400
_audit_creation_method            fapswitch 2.2
_symmetry_space_group_name_H-M    P1
_symmetry_Int_Tables_number       1
_space_group_crystal_system       triclinic
_cell_length_a                    9.813225
_cell_length_b                    10.939882
_cell_length_c                    13.426282
_cell_angle_alpha                 93.860422
_cell_angle_beta                  81.692766
_cell_angle_gamma                 111.031719
_cell_volume                      1331.06014852

loop_
_atom_site_label
_atom_site_type_symbol
_atom_type_description
_atom_site_fract_x
_atom_site_fract_y
_atom_site_fract_z
_atom_type_partial_charge
C1    C     C_R   0.554145 0.745768 0.511072 0.549493
C2    C     C_R   0.375927 0.483213 0.799959 -0.006988
C3    C     C_2   0.574767 0.883630 0.531690 -0.135878
C4    C     C_R   0.423324 0.492515 0.690687 0.522562
C5    C     C_2   0.460261 0.923741 0.534261 -0.149502
C6    C     C_2   0.410142 0.113747 0.499522 -0.112076
C7    C     C_2   0.472244 0.059386 0.558588 -0.027638
C8    C     C_2   0.919354 0.488073 0.491309 -0.021100
C9    C     C_2   0.073486 0.506950 0.508341 -0.028010
C10   C     C_R   0.441791 0.254115 0.497908 0.549621
C11   C     C_R   0.578116 0.513795 0.309693 0.552075
C12   C     C_R   0.439263 0.497323 0.971597 0.030490
C13   C     C_R   0.805354 0.665707 0.068777 0.000391
C14   C     C_R   0.626576 0.538713 0.202248 -0.017427
C15   C     C_R   0.231039 0.403936 0.833886 -0.140076
C16   C     C_R   0.188581 0.373806 0.934943 -0.149648
C17   C     C_R   0.291106 0.417280 0.002919 -0.126336
C18   C     C_1   0.100791 0.364077 0.376914 0.347400
C19   C     C_3   0.962322 0.755572 0.036686 -0.259044
C20   C     C_3   0.976086 0.900017 0.046117 -0.296172
C21   C     C_3   0.131993 0.990156 0.008291 -0.450532
C22   C     C_3   0.546128 0.128750 0.649682 -0.218836
C23   C     C_R   0.477579 0.538831 0.870342 0.025468
C24   C     C_3   0.475214 0.049346 0.745756 -0.312252
C25   C     C_3   0.537057 0.124915 0.838795 -0.455349
C26   C     C_R   0.550153 0.538233 0.037392 0.015732
C27   C     C_R   0.694181 0.627223 0.003564 0.058397
C28   C     C_R   0.722258 0.677602 0.906487 -0.149104
C29   C     C_R   0.615585 0.636087 0.842114 -0.131379
C30   C     C_R   0.521575 0.492726 0.136086 -0.138734
C31   C     C_R   0.768964 0.621464 0.168040 -0.125816
Cu1   Cu    Cu3+1 0.362000 0.479240 0.482530 0.950938
Cu2   Cu    Cu3+1 0.638000 0.520760 0.517470 0.914124
H1    H     H_    0.850222 0.656468 0.220017 0.128918
H2    H     H_    0.151280 0.361613 0.781651 0.129436
H3    H     H_    0.249213 0.388118 0.079581 0.121217
H4    H     H_    0.076235 0.312591 0.960390 0.119416
H5    H     H_    0.642454 0.683768 0.770250 0.138401
H6    H     H_    0.212644 0.975914 0.052202 0.156260
H7    H     H_    0.160628 0.969748 0.927346 0.146774
H8    H     H_    0.139100 0.093833 0.017178 0.153171
H9    H     H_    0.897837 0.918235 0.002199 0.161623
H10   H     H_    0.948635 0.924709 0.126396 0.175056
H11   H     H_    0.037609 0.739856 0.084881 0.142397
H12   H     H_    0.355576 0.857171 0.513371 0.142602
H13   H     H_    0.001130 0.730514 0.958849 0.139092
H14   H     H_    0.658029 0.148773 0.831193 0.152879
H15   H     H_    0.512814 0.217043 0.849228 0.165889
H16   H     H_    0.485277 0.064144 0.906551 0.144961
H17   H     H_    0.354218 0.026773 0.755557 0.160493
H18   H     H_    0.495748 0.955435 0.739793 0.166564
H19   H     H_    0.665373 0.143822 0.635826 0.142624
H20   H     H_    0.535817 0.226146 0.664301 0.181712
H21   H     H_    0.343525 0.054075 0.443753 0.089447
H22   H     H_    0.681095 0.950757 0.549010 0.107073
H23   H     H_    0.119986 0.573910 0.568227 0.126603
H24   H     H_    0.867148 0.419420 0.434148 0.169249
H25   H     H_    0.895829 0.617499 0.597688 0.198426
H26   H     H_    0.826614 0.750405 0.878639 0.105395
H27   H     H_    0.416634 0.422692 0.165075 0.127721
N1    N     N_2   0.845330 0.551960 0.543750 -0.362275
N2    N     N_2   0.154690 0.448120 0.456210 -0.259762
N3    N     N_1   0.056402 0.294242 0.310931 -0.363371
O1    O     O_R   0.426290 0.668220 0.490680 -0.500354
O2    O     O_R   0.659360 0.703290 0.520190 -0.491453
O3    O     O_R   0.326580 0.473880 0.629020 -0.508657
O4    O     O_R   0.559660 0.508940 0.658530 -0.504113
O5    O     O_R   0.340640 0.296710 0.479810 -0.486742
O6    O     O_R   0.573710 0.331780 0.509320 -0.496521
O7    O     O_R   0.440340 0.491060 0.341470 -0.490792
O8    O     O_R   0.673420 0.526120 0.370980 -0.494151

loop_
_geom_bond_atom_site_label_1
_geom_bond_atom_site_label_2
_ccdc_geom_bond_type
C29   H5    S    
C6    C10   S    
C4    O4    A    
C2    C4    S    
C24   C25   S    
C10   O6    A    
C6    C7    D    
C2    C15   A    
C17   H3    S    
C10   O5    A    
C8    H24   S    
C7    C22   S    
C14   C31   A    
Cu1   O3    S    
C1    O2    A    
C19   C20   S    
C21   H6    S    
Cu2   O6    S    
C8    N1    D    
Cu1   O5    S    
Cu1   Cu2   S    
C24   H18   S    
C11   O7    A    
Cu2   O2    S    
C9    H23   S    
C19   H11   S    
C12   C17   A    
C4    O3    A    
C20   H9    S    
C12   C23   A    
Cu1   O1    S    
C26   C27   A    
C16   C17   A    
C21   H7    S    
C5    H12   S    
H25   N1    S    
C21   H8    S    
C23   C29   A    
C15   H2    S    
C28   C29   A    
C6    H21   S    
C26   C30   A    
C22   H20   S    
C22   C24   S    
C25   H15   S    
C24   H17   S    
C11   C14   S    
C11   O8    A    
C18   N3    T    
C19   H13   S    
Cu2   O8    S    
Cu1   N2    S    
C9    N2    D    
C1    O1    A    
C3    C5    D    
C27   C28   A    
C20   H10   S    
C31   H1    S    
C20   C21   S    
Cu2   O4    S    
Cu2   N1    S    
C28   H26   S    
C2    C23   A    
C5    C7    S    
C25   H14   S    
C13   C27   A    
C13   C19   S    
Cu1   O7    S    
C22   H19   S    
C14   C30   A    
C3    H22   S    
C13   C31   A    
C18   N2    S    
C15   C16   A    
C16   H4    S    
C12   C26   A    
C8    C9    S    
C1    C3    S    
C25   H16   S    
C30   H27   S    
