data_mof_unit_43349.cif
_audit_creation_date              2012-12-10T17:45:27-0500
_audit_creation_method            fapswitch 2.2
_symmetry_space_group_name_H-M    P1
_symmetry_Int_Tables_number       1
_space_group_crystal_system       triclinic
_cell_length_a                    14.9458
_cell_length_b                    13.870058
_cell_length_c                    23.408119
_cell_angle_alpha                 89.622666
_cell_angle_beta                  89.301159
_cell_angle_gamma                 90.079982
_cell_volume                      4852.01084788

loop_
_atom_site_label
_atom_site_type_symbol
_atom_type_description
_atom_site_fract_x
_atom_site_fract_y
_atom_site_fract_z
_atom_type_partial_charge
C1    C     C_R   0.329119 0.499639 0.500067 0.800323
C2    C     C_R   0.670885 0.499718 0.500289 0.826875
C3    C     C_R   0.592746 0.522377 0.242037 -0.230594
C4    C     C_R   0.456726 0.554462 0.764535 -0.224475
C5    C     C_R   0.586608 0.528524 0.301907 0.411049
C6    C     C_R   0.447053 0.556500 0.704357 0.432918
C7    C     C_R   0.506135 0.501123 0.329168 -0.093190
C8    C     C_R   0.505283 0.498964 0.671196 -0.103604
C9    C     C_R   0.431883 0.473677 0.297228 -0.342664
C10   C     C_R   0.569132 0.439875 0.697147 -0.339434
C11   C     C_R   0.437356 0.472788 0.237771 -0.088128
C12   C     C_R   0.577560 0.438713 0.756136 -0.123789
C13   C     C_R   0.518120 0.496172 0.209891 0.281623
C14   C     C_R   0.521466 0.495673 0.790095 0.298540
C15   C     C_R   0.813731 0.454644 0.455849 -0.222719
C16   C     C_R   0.186244 0.531926 0.548363 -0.241515
C17   C     C_R   0.767257 0.497555 0.501154 -0.045519
C18   C     C_R   0.232723 0.497607 0.500683 -0.046855
C19   C     C_R   0.812350 0.534210 0.548227 -0.293163
C20   C     C_R   0.187616 0.457112 0.454724 -0.256624
C21   C     C_R   0.905512 0.530711 0.549618 0.114455
C22   C     C_R   0.094394 0.454024 0.455223 0.113553
C23   C     C_R   0.500106 0.500301 0.391313 0.835550
C24   C     C_R   0.500488 0.499739 0.608808 0.821865
C25   C     C_R   0.953077 0.491017 0.502863 0.067602
C26   C     C_R   0.046819 0.491330 0.502649 0.057704
C27   C     C_R   0.906916 0.452526 0.455880 0.087957
C28   C     C_R   0.093009 0.529979 0.549557 0.104344
C29   C     C_R   0.951945 0.568181 0.596171 -0.214214
C30   C     C_R   0.047987 0.415284 0.409018 -0.200973
C31   C     C_R   0.045245 0.567450 0.596227 -0.216705
C32   C     C_R   0.954670 0.414339 0.409404 -0.218505
C33   C     C_R   0.429155 0.795163 0.523774 0.507167
C34   C     C_R   0.557739 0.206817 0.464430 0.494528
C35   C     C_R   0.570872 0.795414 0.475806 0.485767
C36   C     C_R   0.441566 0.206201 0.535389 0.487513
C37   C     C_R   0.567001 0.898354 0.470856 -0.096890
C38   C     C_R   0.436346 0.103453 0.532802 -0.098731
C39   C     C_R   0.433787 0.897507 0.529707 -0.098989
C40   C     C_R   0.564013 0.104339 0.468059 -0.099747
C41   C     C_R   0.500749 0.949367 0.500696 0.022249
C42   C     C_R   0.500618 0.052511 0.500750 0.032212
C43   C     C_R   0.629826 0.951603 0.438252 -0.172717
C44   C     C_R   0.369144 0.050238 0.561625 -0.188015
C45   C     C_R   0.369553 0.949333 0.561457 -0.166124
C46   C     C_R   0.630383 0.052306 0.438432 -0.186381
C47   C     C_R   0.555826 0.574854 0.879066 0.586399
C48   C     C_R   0.511272 0.407584 0.121010 0.574313
C49   C     C_R   0.513023 0.409121 0.879886 0.557594
C50   C     C_R   0.548961 0.574614 0.119466 0.563482
C51   C     C_R   0.521994 0.403756 0.939656 -0.104192
C52   C     C_R   0.563159 0.572699 0.059996 -0.105029
C53   C     C_R   0.544894 0.488207 0.969620 -0.083478
C54   C     C_R   0.543598 0.487326 0.030118 -0.087170
C55   C     C_R   0.566277 0.574273 0.939148 -0.124804
C56   C     C_R   0.520797 0.401941 0.060768 -0.118296
C57   C     C_R   0.508739 0.316202 0.969979 0.385410
C58   C     C_R   0.597310 0.653648 0.030060 0.414903
C59   C     C_R   0.507215 0.315042 0.030104 -0.122579
C60   C     C_R   0.595969 0.656319 0.969898 -0.124292
Cu1   Cu    Cu3+1 0.500000 0.597420 0.500000 1.024755
Cu2   Cu    Cu3+1 0.500000 0.402580 0.500000 1.002971
H1    H     H_    0.080077 0.597548 0.632272 0.147755
H2    H     H_    0.919837 0.384830 0.373121 0.143996
H3    H     H_    0.678223 0.916207 0.411384 0.155827
H4    H     H_    0.315342 0.086025 0.584382 0.163503
H5    H     H_    0.319424 0.912066 0.586769 0.161205
H6    H     H_    0.682607 0.089061 0.414322 0.163718
H7    H     H_    0.655556 0.536720 0.220128 0.136800
H8    H     H_    0.415046 0.596958 0.792616 0.145950
H9    H     H_    0.369696 0.453499 0.318403 0.151174
H10   H     H_    0.613486 0.395558 0.671490 0.165574
H11   H     H_    0.379188 0.452855 0.213364 0.165448
H12   H     H_    0.627823 0.393425 0.775614 0.151899
H13   H     H_    0.777255 0.425555 0.420052 0.164678
H14   H     H_    0.223023 0.560238 0.584191 0.150920
H15   H     H_    0.774765 0.565234 0.583515 0.130239
H16   H     H_    0.225239 0.429234 0.418517 0.127939
H17   H     H_    0.916125 0.598830 0.632229 0.151034
H18   H     H_    0.083860 0.386339 0.372477 0.146111
N1    N     N_R   0.530124 0.493286 0.851222 -0.460065
N2    N     N_R   0.525412 0.492732 0.148590 -0.459719
N3    N     N_R   0.500000 0.743810 0.500000 -0.257504
N4    N     N_R   0.500000 0.256190 0.500000 -0.253497
O1    O     O_R   0.370260 0.582280 0.500010 -0.554565
O2    O     O_R   0.629740 0.417720 0.499990 -0.544761
O3    O     O_R   0.629740 0.582280 0.499990 -0.551374
O4    O     O_R   0.370260 0.417720 0.500010 -0.539268
O5    O     O_R   0.499980 0.582290 0.417880 -0.554515
O6    O     O_R   0.500020 0.417710 0.582120 -0.588570
O7    O     O_R   0.500020 0.582290 0.582120 -0.529123
O8    O     O_R   0.499980 0.417710 0.417880 -0.578408
O9    O     O_2   0.569415 0.656224 0.848355 -0.517842
O10   O     O_2   0.486541 0.329640 0.152072 -0.533587
O11   O     O_2   0.484765 0.331764 0.850437 -0.518430
O12   O     O_2   0.555825 0.658378 0.148116 -0.497803
O13   O     O_3   0.494834 0.230673 0.941094 -0.544759
C61   C     C_3   0.578621 0.186952 0.930047 0.075056
H19   H     H_    0.613436 0.169868 0.970691 0.134916
H20   H     H_    0.622173 0.235141 0.903393 0.139759
C62   C     C_3   0.563487 0.093142 0.897686 -0.255788
H21   H     H_    0.519644 0.044615 0.923673 0.255355
H22   H     H_    0.529382 0.109274 0.856781 0.235115
C63   C     C_3   0.651619 0.041733 0.884915 -0.888270
H23   H     H_    0.696299 0.088596 0.858507 0.244314
H24   H     H_    0.638193 0.974517 0.860965 0.273820
H25   H     H_    0.685721 0.022513 0.925320 0.270458
O14   O     O_3   0.631606 0.731468 0.059795 -0.545047
C64   C     C_3   0.726481 0.726645 0.060426 0.087357
H26   H     H_    0.752106 0.801770 0.062260 0.177038
H27   H     H_    0.756242 0.694357 0.021015 0.120339
C65   C     C_3   0.759238 0.671632 0.113221 -0.347274
H28   H     H_    0.730620 0.704737 0.152477 0.252429
H29   H     H_    0.736938 0.595338 0.111288 0.205127
C66   C     C_3   0.861099 0.673336 0.116625 -0.923862
H30   H     H_    0.891374 0.641114 0.077621 0.265547
H31   H     H_    0.882743 0.630694 0.154293 0.264097
H32   H     H_    0.885469 0.748556 0.121171 0.262752
O15   O     O_3   0.351843 0.748080 0.541800 -0.567093
C67   C     C_3   0.280232 0.770329 0.504030 0.069669
H33   H     H_    0.273718 0.711708 0.472365 0.178121
H34   H     H_    0.289699 0.837941 0.478520 0.109069
C68   C     C_3   0.191980 0.779759 0.537710 -0.351125
H35   H     H_    0.187374 0.723355 0.571297 0.230254
H36   H     H_    0.189094 0.850482 0.559428 0.196044
C69   C     C_3   0.111129 0.772387 0.498698 -0.900126
H37   H     H_    0.112769 0.831264 0.466311 0.253999
H38   H     H_    0.048710 0.778867 0.524580 0.258735
H39   H     H_    0.110451 0.701849 0.476545 0.263917
O16   O     O_3   0.613491 0.258160 0.427558 -0.575219
C70   C     C_3   0.587941 0.242699 0.370052 0.056342
H40   H     H_    0.523843 0.279477 0.360798 0.173966
H41   H     H_    0.577503 0.165566 0.359578 0.125511
C71   C     C_3   0.661346 0.281961 0.330315 -0.383571
H42   H     H_    0.672973 0.359156 0.339715 0.254383
H43   H     H_    0.724672 0.242390 0.338209 0.213100
C72   C     C_3   0.636323 0.271177 0.267668 -0.819183
H44   H     H_    0.630552 0.193707 0.256558 0.261858
H45   H     H_    0.688826 0.304784 0.240075 0.253753
H46   H     H_    0.571607 0.307374 0.259263 0.284118
O17   O     O_3   0.645807 0.747323 0.454881 -0.575550
C73   C     C_3   0.723142 0.771534 0.487234 0.103456
H47   H     H_    0.739441 0.710849 0.516193 0.179853
H48   H     H_    0.713588 0.833936 0.516563 0.082252
C74   C     C_3   0.803692 0.794505 0.447455 -0.397699
H49   H     H_    0.781939 0.804961 0.402754 0.216344
H50   H     H_    0.835467 0.862957 0.461180 0.191708
C75   C     C_3   0.874708 0.715973 0.447690 -0.845276
H51   H     H_    0.900548 0.705509 0.491488 0.255010
H52   H     H_    0.931461 0.737323 0.419270 0.246678
H53   H     H_    0.845979 0.647902 0.431599 0.278060
O18   O     O_3   0.382765 0.257340 0.569861 -0.571592
C76   C     C_3   0.406004 0.245885 0.628091 0.067424
H54   H     H_    0.475270 0.271420 0.635916 0.160034
H55   H     H_    0.403074 0.169566 0.642398 0.123093
C77   C     C_3   0.340025 0.303381 0.664829 -0.357925
H56   H     H_    0.345044 0.381173 0.653680 0.223904
H57   H     H_    0.270708 0.279124 0.655873 0.224736
C78   C     C_3   0.357965 0.289614 0.728383 -0.845617
H58   H     H_    0.349119 0.212729 0.740793 0.259278
H59   H     H_    0.310295 0.333708 0.753799 0.255966
H60   H     H_    0.427078 0.312449 0.738397 0.287869
C79   C     C_2   0.494517 0.220358 0.058903 0.966306
O19   O     O_2   0.426657 0.173400 0.050598 -0.543742
O20   O     O_R   0.561877 0.183519 0.093737 -0.747678
H61   H     H_    0.546038 0.117975 0.110437 0.342348
C80   C     C_2   0.628918 0.745482 0.941251 0.942331
O21   O     O_2   0.593011 0.822735 0.951481 -0.569106
O22   O     O_R   0.703314 0.741444 0.904546 -0.748055
H62   H     H_    0.720278 0.807038 0.888377 0.328038
O23   O     O_3   0.660593 0.548346 0.335307 -0.637561
C81   C     C_3   0.707748 0.631395 0.316364 0.074519
H63   H     H_    0.712363 0.680721 0.353211 0.208318
H64   H     H_    0.674179 0.673350 0.281893 0.141175
C82   C     C_3   0.802544 0.603107 0.297688 -0.371427
H65   H     H_    0.836326 0.565472 0.333508 0.230485
H66   H     H_    0.799491 0.552763 0.261070 0.214554
C83   C     C_3   0.857655 0.691335 0.280115 -0.918870
H67   H     H_    0.825287 0.730030 0.244217 0.263756
H68   H     H_    0.925513 0.668246 0.266118 0.262017
H69   H     H_    0.864470 0.741243 0.316661 0.259864
O24   O     O_3   0.384930 0.612974 0.674932 -0.599897
C84   C     C_3   0.310524 0.645124 0.707501 0.072778
H70   H     H_    0.272456 0.695087 0.679589 0.173012
H71   H     H_    0.330636 0.689754 0.744378 0.141398
C85   C     C_3   0.247348 0.561907 0.724516 -0.416483
H72   H     H_    0.226486 0.522810 0.685622 0.219358
H73   H     H_    0.281700 0.509859 0.752900 0.223062
C86   C     C_3   0.164367 0.599243 0.755787 -0.887598
H74   H     H_    0.183729 0.635074 0.796108 0.263571
H75   H     H_    0.119038 0.538005 0.766334 0.263528
H76   H     H_    0.127832 0.651512 0.728568 0.244734

loop_
_geom_bond_atom_site_label_1
_geom_bond_atom_site_label_2
_ccdc_geom_bond_type
C16   C28   A    
C15   H13   S    
O23   C81   S    
C62   H21   S    
C12   H12   S    
C41   C42   A    
C44   H4    S    
C79   O19   D    
C77   C78   S    
C75   H53   S    
C70   C71   S    
C71   C72   S    
C65   H29   S    
C74   H49   S    
C68   H35   S    
C39   C41   A    
O20   H61   S    
C53   C54   A    
C67   H33   S    
C40   C46   A    
Cu2   O2    S    
C50   N2    A    
C1    C18   S    
C33   C39   A    
C48   O10   S    
C6    O24   S    
C34   C40   A    
C77   H56   S    
C35   C37   A    
C75   H52   S    
C38   C42   A    
C64   H27   S    
Cu1   O1    S    
C83   H68   S    
C68   H36   S    
C58   C60   A    
C66   H30   S    
O13   C61   S    
O14   C64   S    
C15   C17   A    
O22   H62   S    
C49   N1    A    
C19   H15   S    
O24   C84   S    
C65   H28   S    
C21   C25   A    
Cu1   O3    S    
C17   C19   A    
C82   H65   S    
Cu1   O5    S    
C81   H64   S    
C49   C51   A    
Cu2   O8    S    
C45   H5    S    
C50   C52   A    
C23   O5    A    
C51   C57   A    
C76   H55   S    
C22   C30   A    
C18   C20   A    
C3    C13   A    
C67   C68   S    
C39   C45   A    
C30   H18   S    
C1    O4    A    
C40   C42   A    
C62   H22   S    
C55   C60   A    
C2    C17   S    
C37   C41   A    
C80   O22   S    
C73   C74   S    
C86   H74   S    
C34   N4    A    
C63   H24   S    
C63   H23   S    
C74   H50   S    
C52   C54   A    
C38   C44   A    
C83   H67   S    
C82   C83   S    
C53   C55   A    
C1    O1    A    
C52   C58   A    
C72   H46   S    
C54   C56   A    
C4    H8    S    
C60   C80   S    
C31   H1    S    
C65   C66   S    
C59   C79   S    
C75   H51   S    
C32   H2    S    
C82   H66   S    
Cu1   N3    S    
C64   C65   S    
C80   O21   D    
C5    C7    A    
C35   N3    A    
C36   O18   S    
C68   C69   S    
C71   H43   S    
C69   H39   S    
C66   H31   S    
C25   C26   A    
C21   C29   A    
C13   N2    S    
C51   C53   A    
C37   C43   A    
C86   H76   S    
C84   H70   S    
C46   H6    S    
C72   H45   S    
C15   C27   A    
C78   H58   S    
C29   H17   S    
C43   H3    S    
C66   H32   S    
C57   O13   S    
C78   H59   S    
C5    O23   S    
C78   H60   S    
C2    O3    A    
C16   C18   A    
C49   O11   S    
C76   C77   S    
C33   N3    A    
C10   C12   A    
C35   O17   S    
C4    C6    A    
C12   C14   A    
C33   O15   S    
C62   C63   S    
C61   H20   S    
C9    C11   A    
C11   H11   S    
C73   H48   S    
C84   C85   S    
C85   H73   S    
C70   H40   S    
C24   O7    A    
C3    C5    A    
C74   C75   S    
C81   H63   S    
C67   H34   S    
C47   C55   A    
C48   C56   A    
Cu2   N4    S    
C69   H38   S    
C47   O9    S    
C3    H7    S    
C27   C32   A    
C16   H14   S    
C28   C31   A    
C44   C45   A    
C9    H9    S    
C20   C22   A    
C70   H41   S    
C24   O6    A    
C6    C8    A    
O15   C67   S    
C81   C82   S    
C71   H42   S    
C25   C27   A    
C61   C62   S    
C72   H44   S    
C26   C28   A    
C56   C59   A    
C20   H16   S    
C85   C86   S    
C84   H71   S    
O16   C70   S    
C85   H72   S    
C29   C31   A    
O17   C73   S    
C36   C38   A    
C30   C32   A    
C11   C13   A    
C50   O12   S    
Cu2   O4    S    
C36   N4    A    
C69   H37   S    
C7    C23   S    
Cu2   O6    S    
C77   H57   S    
C8    C24   S    
C48   N2    A    
C2    O2    A    
C58   O14   S    
C47   N1    A    
C4    C14   A    
Cu1   Cu2   S    
C43   C46   A    
C83   H69   S    
C57   C59   A    
C7    C9    A    
O18   C76   S    
C34   O16   S    
C8    C10   A    
C61   H19   S    
C22   C26   A    
C73   H47   S    
C23   O8    A    
C79   O20   S    
C14   N1    S    
C86   H75   S    
C76   H54   S    
C64   H26   S    
C63   H25   S    
Cu1   O7    S    
C19   C21   A    
C10   H10   S    
