data_mof_unit_40910.cif
_audit_creation_date              2013-03-05T15:53:32-0500
_audit_creation_method            fapswitch 2.2
_symmetry_space_group_name_H-M    P1
_symmetry_Int_Tables_number       1
_space_group_crystal_system       triclinic
_cell_length_a                    15.45711
_cell_length_b                    15.509784
_cell_length_c                    17.838417
_cell_angle_alpha                 90.324469
_cell_angle_beta                  109.476327
_cell_angle_gamma                 68.959025
_cell_volume                      3731.24741845

loop_
_atom_site_label
_atom_site_type_symbol
_atom_site_description
_atom_site_fract_x
_atom_site_fract_y
_atom_site_fract_z
_atom_type_partial_charge
Zn1   Zn    Zn3+2 0.572030 0.427990 0.434470 1.052423
Zn2   Zn    Zn3+2 0.587090 0.540470 0.584680 1.014742
Zn3   Zn    Zn3+2 0.449010 0.423430 0.546420 1.058417
Zn4   Zn    Zn3+2 0.391880 0.608100 0.434430 1.142660
O1    O     O_3   0.500000 0.500000 0.500000 -0.537403
O2    O     O_R   0.403610 0.721990 0.472930 -0.604538
O3    O     O_R   0.571130 0.303270 0.435320 -0.585538
O4    O     O_R   0.717650 0.497270 0.578120 -0.669648
O5    O     O_R   0.307610 0.477470 0.513630 -0.603128
O6    O     O_R   0.596500 0.492780 0.688380 -0.642255
O7    O     O_R   0.388780 0.611210 0.325000 -0.581397
O8    O     O_R   0.499860 0.410860 0.661600 -0.640807
O9    O     O_R   0.514860 0.485140 0.325020 -0.613500
O10   O     O_R   0.707110 0.418540 0.472990 -0.650793
O11   O     O_R   0.267620 0.606720 0.435250 -0.593301
O12   O     O_R   0.540230 0.674660 0.578090 -0.624238
O13   O     O_R   0.485030 0.300080 0.513670 -0.646855
C1    C     C_R   0.463859 0.740323 0.532377 0.947163
C2    C     C_R   0.531749 0.260203 0.466603 0.869685
C3    C     C_R   0.757819 0.448441 0.532549 0.954760
C4    C     C_R   0.241417 0.552921 0.469845 0.899457
C5    C     C_R   0.560810 0.439424 0.711749 0.917840
C6    C     C_R   0.440979 0.559462 0.287491 0.940665
C7    C     C_R   0.429247 0.593304 0.206311 -0.338845
C8    C     C_R   0.583278 0.414954 0.796586 -0.233867
C9    C     C_R   0.427133 0.715547 0.119251 0.221417
C10   C     C_R   0.419031 0.686133 0.189919 0.158311
C11   C     C_R   0.446630 0.529962 0.150723 0.302194
C12   C     C_R   0.473931 0.554672 0.088050 -0.071709
C13   C     C_R   0.450956 0.650640 0.066009 -0.196272
C14   C     C_R   0.520692 0.486686 0.044855 -0.027363
C15   C     C_R   0.513748 0.515956 0.967415 -0.008242
C16   C     C_R   0.482093 0.611647 0.943086 -0.209411
C17   C     C_R   0.451246 0.678484 0.990676 0.528560
C18   C     C_R   0.581622 0.392439 0.078958 0.404651
C19   C     C_R   0.621789 0.327382 0.032238 0.388787
C20   C     C_R   0.612201 0.357364 0.954774 -0.135105
C21   C     C_R   0.548952 0.449322 0.919104 -0.036644
C22   C     C_R   0.666678 0.297588 0.913041 -0.206932
C23   C     C_R   0.655066 0.327042 0.835351 0.387392
C24   C     C_R   0.522971 0.471986 0.835838 0.235237
H1    H     H_    0.486741 0.636173 0.888474 0.186419
H2    H     H_    0.720054 0.228549 0.940982 0.194613
C25   C     C_R   0.369005 0.981121 0.591261 0.495433
C26   C     C_R   0.448544 0.836686 0.545180 -0.227145
C27   C     C_R   0.625246 0.108251 0.427584 0.247746
C28   C     C_R   0.664968 0.011771 0.445609 -0.252862
C29   C     C_R   0.625064 0.967168 0.484186 0.472596
C30   C     C_R   0.531973 0.017966 0.492056 -0.043950
C31   C     C_R   0.491902 0.116675 0.475271 -0.162354
C32   C     C_R   0.478796 0.974343 0.518035 0.006900
C33   C     C_R   0.403609 0.027891 0.546789 -0.209366
C34   C     C_R   0.361539 0.125667 0.526522 0.233707
C35   C     C_R   0.397630 0.167592 0.480364 0.265665
C36   C     C_R   0.494917 0.879983 0.512778 -0.189923
C37   C     C_R   0.387619 0.885942 0.587216 0.195200
C38   C     C_R   0.546301 0.161920 0.452514 -0.144484
H3    H     H_    0.538092 0.840260 0.478627 0.236689
H4    H     H_    0.730093 0.970728 0.432214 0.223613
C39   C     C_R   0.027716 0.377513 0.653230 0.400128
C40   C     C_R   0.862730 0.430430 0.551367 -0.272608
C41   C     C_R   0.059471 0.644679 0.395758 0.266498
C42   C     C_R   0.962244 0.679492 0.394649 -0.336928
C43   C     C_R   0.935462 0.640139 0.449338 0.302986
C44   C     C_R   0.006389 0.557999 0.501359 0.019075
C45   C     C_R   0.107623 0.540112 0.517502 -0.057197
C46   C     C_R   0.981503 0.495041 0.540317 -0.064558
C47   C     C_R   0.053402 0.437681 0.612662 -0.197772
C48   C     C_R   0.148693 0.442291 0.641392 0.385844
C49   C     C_R   0.175943 0.488977 0.591980 -0.120181
C50   C     C_R   0.889247 0.483981 0.506809 0.405445
C51   C     C_R   0.930553 0.380083 0.625698 0.283749
C52   C     C_R   0.135473 0.579142 0.461124 -0.174042
H5    H     H_    0.906802 0.737476 0.350258 0.230578
H6    H     H_    0.249092 0.490812 0.616390 0.206787
O14   O     O_3   0.424710 0.770770 0.962606 -0.611075
C53   C     C_3   0.320523 0.813424 0.923789 0.079666
H7    H     H_    0.299815 0.889558 0.926037 0.203275
H8    H     H_    0.278882 0.791052 0.954988 0.149388
C54   C     C_3   0.288665 0.796537 0.835671 -0.353225
H9    H     H_    0.338361 0.808245 0.807544 0.272253
H10   H     H_    0.294438 0.723353 0.832313 0.269895
C55   C     C_3   0.181812 0.860846 0.788723 -0.839373
H11   H     H_    0.131123 0.851244 0.816822 0.250724
H12   H     H_    0.159596 0.844175 0.726233 0.307619
H13   H     H_    0.174734 0.934731 0.787101 0.251743
N1    N     N_R   0.344554 0.840345 0.625650 0.198497
O15   O     O_R   0.255232 0.883630 0.625762 -0.342826
O16   O     O_R   0.397307 0.758023 0.666112 -0.388018
N2    N     N_R   0.274975 0.180625 0.543332 0.247835
O17   O     O_R   0.278017 0.245936 0.588991 -0.392151
O18   O     O_R   0.192473 0.167512 0.511295 -0.343633
O19   O     O_3   0.320618 0.026519 0.641472 -0.580109
C56   C     C_3   0.390901 0.037037 0.712356 0.069919
H14   H     H_    0.354568 0.103482 0.732657 0.188251
H15   H     H_    0.456613 0.042826 0.703343 0.114899
C57   C     C_3   0.425014 0.957065 0.778656 -0.345909
H16   H     H_    0.359458 0.952458 0.788380 0.244630
H17   H     H_    0.464888 0.890254 0.760315 0.239049
C58   C     C_3   0.494317 0.971345 0.857297 -0.912281
H18   H     H_    0.561587 0.974183 0.849349 0.261850
H19   H     H_    0.517355 0.912401 0.903986 0.302856
H20   H     H_    0.456181 0.036990 0.878059 0.258949
N3    N     N_R   0.665392 0.150278 0.383408 0.220847
O20   O     O_R   0.760614 0.118722 0.399150 -0.423463
O21   O     O_R   0.606143 0.205497 0.317214 -0.340177
O22   O     O_3   0.678458 0.873519 0.512222 -0.588506
C59   C     C_3   0.728259 0.861695 0.596234 0.122096
H21   H     H_    0.744374 0.789163 0.619364 0.210722
H22   H     H_    0.681575 0.907350 0.627798 0.103726
C60   C     C_3   0.826498 0.875888 0.616408 -0.346193
H23   H     H_    0.867724 0.836420 0.578678 0.275297
H24   H     H_    0.811175 0.950943 0.603262 0.203900
C61   C     C_3   0.891464 0.842963 0.704498 -0.896327
H25   H     H_    0.852573 0.881989 0.743710 0.261773
H26   H     H_    0.961144 0.855186 0.716902 0.271094
H27   H     H_    0.910632 0.767264 0.718710 0.280901
N4    N     N_R   0.332951 0.253955 0.428085 0.227423
O23   O     O_R   0.335041 0.264807 0.356481 -0.344322
O24   O     O_R   0.266548 0.318758 0.448105 -0.316245
O25   O     O_3   0.903190 0.329511 0.671120 -0.646083
C62   C     C_3   0.877567 0.380644 0.731955 0.162492
H28   H     H_    0.796320 0.403079 0.716770 0.177489
H29   H     H_    0.895814 0.444496 0.739049 0.140304
C63   C     C_3   0.929424 0.317980 0.812387 -0.330825
H30   H     H_    0.912086 0.254077 0.806508 0.250119
H31   H     H_    0.010767 0.297342 0.830255 0.252976
C64   C     C_3   0.896837 0.368097 0.878022 -0.867321
H32   H     H_    0.918041 0.429673 0.887459 0.268059
H33   H     H_    0.933622 0.320013 0.935053 0.276272
H34   H     H_    0.815316 0.391420 0.861525 0.272925
N5    N     N_R   0.426548 0.540623 0.789961 0.189294
O26   O     O_R   0.349538 0.544949 0.806869 -0.348333
O27   O     O_R   0.413520 0.594243 0.728233 -0.375578
N6    N     N_R   0.218355 0.402248 0.720740 0.240151
O28   O     O_R   0.311263 0.355362 0.731704 -0.372633
O29   O     O_R   0.193893 0.429806 0.782446 -0.313962
O30   O     O_3   0.093870 0.320945 0.723771 -0.584834
C65   C     C_3   0.134788 0.228935 0.707049 0.211934
H35   H     H_    0.195137 0.223029 0.684570 0.196822
H36   H     H_    0.079257 0.207717 0.661178 0.140009
C66   C     C_3   0.176924 0.160108 0.783336 -0.416183
H37   H     H_    0.115468 0.158369 0.801524 0.217635
H38   H     H_    0.214553 0.089229 0.770202 0.197393
C67   C     C_3   0.250474 0.184634 0.852695 -0.701261
H39   H     H_    0.309512 0.192460 0.834426 0.256205
H40   H     H_    0.285320 0.128321 0.903989 0.228672
H41   H     H_    0.211749 0.250681 0.872709 0.306732
O31   O     O_3   0.820078 0.532780 0.433874 -0.586313
C68   C     C_3   0.837726 0.481430 0.371379 0.063726
H42   H     H_    0.802499 0.429405 0.364633 0.156160
H43   H     H_    0.918403 0.444300 0.382414 0.123093
C69   C     C_3   0.792715 0.547565 0.293007 -0.364258
H44   H     H_    0.830908 0.596946 0.298272 0.242674
H45   H     H_    0.805256 0.506660 0.243686 0.167083
C70   C     C_3   0.681731 0.602974 0.271514 -0.651851
H46   H     H_    0.642020 0.555839 0.270863 0.212730
H47   H     H_    0.650883 0.643684 0.211228 0.245003
H48   H     H_    0.668645 0.652077 0.315684 0.327013
N7    N     N_R   0.079502 0.677896 0.330817 0.238017
O32   O     O_R   0.035576 0.765408 0.300843 -0.334148
O33   O     O_R   0.126612 0.618575 0.292309 -0.337090
N8    N     N_R   0.841670 0.690587 0.458301 0.258260
O34   O     O_R   0.770482 0.753953 0.401511 -0.351261
O35   O     O_R   0.830887 0.681071 0.526684 -0.389854
O36   O     O_3   0.714636 0.269033 0.797800 -0.667281
C71   C     C_3   0.663808 0.218756 0.746862 0.089960
H49   H     H_    0.670952 0.225898 0.687449 0.153223
H50   H     H_    0.582723 0.244277 0.736245 0.163388
C72   C     C_3   0.711013 0.115845 0.781090 -0.324981
H51   H     H_    0.792073 0.089179 0.793224 0.240538
H52   H     H_    0.699319 0.107778 0.838427 0.212838
C73   C     C_3   0.664969 0.058906 0.722457 -0.994795
H53   H     H_    0.583111 0.088921 0.704608 0.264417
H54   H     H_    0.693060 0.986172 0.751266 0.265071
H55   H     H_    0.684379 0.058845 0.667842 0.262248
O37   O     O_3   0.677594 0.235463 0.066265 -0.634543
C74   C     C_3   0.621269 0.179821 0.036731 0.038305
H56   H     H_    0.673825 0.109018 0.035812 0.177089
H57   H     H_    0.567941 0.204768 0.973809 0.142273
C75   C     C_3   0.566426 0.172059 0.092220 -0.270242
H58   H     H_    0.620738 0.143031 0.153843 0.258360
H59   H     H_    0.513773 0.242225 0.094376 0.282921
C76   C     C_3   0.508612 0.109221 0.062974 -0.842061
H60   H     H_    0.452261 0.138276 0.002112 0.250379
H61   H     H_    0.470086 0.104609 0.104473 0.304507
H62   H     H_    0.559613 0.037996 0.061151 0.273032
N9    N     N_R   0.420505 0.809392 0.106654 0.256885
O38   O     O_R   0.498767 0.824666 0.108978 -0.331223
O39   O     O_R   0.341469 0.879161 0.105120 -0.334813
N10   N     N_R   0.404597 0.750614 0.246766 0.244522
O40   O     O_R   0.475246 0.778293 0.286150 -0.359448
O41   O     O_R   0.316617 0.791916 0.250166 -0.278900
N11   N     N_R   0.418314 0.450098 0.147708 0.254031
O42   O     O_R   0.377543 0.426632 0.078485 -0.364640
O43   O     O_R   0.421705 0.407136 0.211638 -0.307255
O44   O     O_3   0.608310 0.364248 0.159757 -0.595892
C77   C     C_3   0.708671 0.351893 0.200946 0.058039
H63   H     H_    0.710192 0.416334 0.226681 0.123824
H64   H     H_    0.754820 0.337949 0.162272 0.153721
C78   C     C_3   0.756005 0.271502 0.269042 -0.208115
H65   H     H_    0.727782 0.294743 0.318406 0.256494
H66   H     H_    0.735179 0.212105 0.246750 0.283138
C79   C     C_3   0.869027 0.237663 0.301355 -0.867010
H67   H     H_    0.898805 0.206287 0.254625 0.282634
H68   H     H_    0.899981 0.183852 0.354100 0.307848
H69   H     H_    0.893540 0.295930 0.319883 0.235946

loop_
_geom_bond_atom_site_label_1
_geom_bond_atom_site_label_2
_geom_bond_distance
_ccdc_geom_bond_type
N11   O43   1.300354 A    
N1    O15   1.301218 A    
C1    C26   1.456041 S    
O19   C56   1.419354 S    
C61   H26   1.110038 S    
C4    C52   1.491272 S    
C51   O25   1.387275 S    
C68   H42   1.110301 S    
C78   H65   1.111451 S    
N8    O34   1.301666 A    
C70   H48   1.109332 S    
C7    C10   1.412109 A    
O5    C4    1.282193 A    
C64   H32   1.110855 S    
C67   H41   1.110481 S    
N3    O21   1.301386 A    
C57   H16   1.109665 S    
N6    O28   1.301469 A    
C71   H50   1.117910 S    
C45   C49   1.408639 A    
C75   H58   1.111158 S    
C2    C38   1.491480 S    
C9    C10   1.402044 A    
O4    C3    1.269587 A    
Zn1   O1    1.952846 S    
C16   H1    1.081395 S    
C11   C12   1.417895 A    
N8    O35   1.301101 A    
C20   C21   1.410333 A    
C48   C49   1.397295 A    
C43   N8    1.441593 S    
C8    C23   1.407540 A    
C67   H39   1.109954 S    
C65   C66   1.530298 S    
C73   H55   1.110791 S    
C29   O22   1.383168 S    
C72   H51   1.111685 S    
C39   C51   1.401342 A    
O8    C5    1.271737 A    
C76   H60   1.110654 S    
O9    C6    1.278577 A    
N9    O39   1.301134 A    
C3    C40   1.460524 S    
N4    O23   1.301822 A    
C25   O19   1.385233 S    
C67   H40   1.110302 S    
C9    N9    1.435561 S    
C55   H11   1.110783 S    
C26   C37   1.407323 A    
C76   H61   1.110364 S    
C47   C48   1.417427 A    
C44   C46   1.428310 A    
C5    C8    1.454756 S    
C63   C64   1.526607 S    
C11   N11   1.449708 S    
C6    C7    1.473284 S    
C41   C52   1.419661 A    
C77   H63   1.102147 S    
Zn3   O8    1.922215 S    
C15   C21   1.416224 A    
C69   H45   1.110509 S    
C12   C13   1.424819 A    
Zn2   O12   1.932251 S    
C23   O36   1.384043 S    
C40   C50   1.399571 A    
C75   H59   1.110214 S    
N11   O42   1.301974 A    
C48   N6    1.435990 S    
C73   H53   1.108646 S    
C12   C14   1.429310 A    
C78   H66   1.110801 S    
C66   C67   1.528139 S    
O36   C71   1.416621 S    
C56   H14   1.106526 S    
C10   N10   1.434387 S    
C54   C55   1.525868 S    
N3    O20   1.301321 A    
C57   H17   1.110272 S    
C61   H25   1.109647 S    
C71   C72   1.526600 S    
C73   H54   1.109629 S    
O2    C1    1.265252 A    
C13   C17   1.415737 A    
C46   C47   1.427814 A    
C61   H27   1.110856 S    
O10   C3    1.287767 A    
O14   C53   1.416752 S    
C21   C24   1.413446 A    
C54   H10   1.109042 S    
C8    C24   1.406330 A    
C71   H49   1.111704 S    
N5    O26   1.301635 A    
C37   N1    1.435678 S    
C22   H2    1.083116 S    
C32   C36   1.401753 A    
C30   C32   1.415985 A    
C53   H7    1.111329 S    
C45   C52   1.430338 A    
C27   N3    1.432927 S    
C68   C69   1.531626 S    
C58   H20   1.109777 S    
O6    C5    1.283748 A    
C32   C33   1.415311 A    
N9    O38   1.301312 A    
C69   C70   1.528061 S    
C18   C19   1.408485 A    
N7    O33   1.301512 A    
N10   O41   1.300919 A    
C41   C42   1.395736 A    
Zn3   O5    1.912919 S    
C68   H43   1.116853 S    
C25   C37   1.405270 A    
N2    O18   1.301218 A    
C28   C29   1.388308 A    
C79   H69   1.108360 S    
O11   C4    1.286975 A    
O22   C59   1.415837 S    
C77   C78   1.528036 S    
C58   H19   1.110540 S    
C16   C17   1.388415 A    
C53   H8    1.116171 S    
C60   H24   1.110971 S    
O12   C1    1.264857 A    
C31   C35   1.419995 A    
Zn4   O7    1.937056 S    
C56   H15   1.113627 S    
C26   C36   1.387494 A    
O25   C62   1.419437 S    
O37   C74   1.417323 S    
C40   C51   1.401392 A    
Zn4   O2    1.938542 S    
C29   C30   1.424897 A    
C55   H12   1.110232 S    
C79   H68   1.110271 S    
C9    C13   1.416778 A    
O3    C2    1.284838 A    
C35   N4    1.447142 S    
C27   C38   1.417046 A    
C63   H30   1.111736 S    
C78   C79   1.527485 S    
C41   N7    1.436580 S    
Zn2   O1    1.930786 S    
Zn1   O9    1.919671 S    
C62   H29   1.118796 S    
Zn2   O6    1.936234 S    
C64   H34   1.109906 S    
C22   C23   1.394272 A    
C57   C58   1.526200 S    
C33   C34   1.412316 A    
C18   O44   1.385608 S    
C53   C54   1.534178 S    
N10   O40   1.300779 A    
N6    O29   1.301323 A    
C27   C28   1.390528 A    
C19   C20   1.403176 A    
C75   C76   1.526220 S    
C60   H23   1.111308 S    
Zn1   O3    1.939601 S    
C31   C38   1.420854 A    
C14   C15   1.413902 A    
Zn2   O4    1.928968 S    
C19   O37   1.386572 S    
C7    C11   1.413403 A    
C54   H9    1.110398 S    
Zn3   O1    1.958492 S    
C64   H33   1.110337 S    
C24   N5    1.442765 S    
C74   H57   1.117116 S    
C65   H35   1.107698 S    
C76   H62   1.110937 S    
C34   C35   1.408845 A    
C42   H5    1.082754 S    
C46   C50   1.423480 A    
C56   C57   1.531777 S    
C59   C60   1.535738 S    
C15   C16   1.405233 A    
C62   C63   1.528128 S    
C70   H47   1.109999 S    
C69   H44   1.109424 S    
C20   C22   1.404420 A    
O31   C68   1.410058 S    
N7    O32   1.301361 A    
C65   H36   1.116271 S    
C25   C33   1.417638 A    
N2    O17   1.300377 A    
C50   O31   1.382455 S    
C72   H52   1.111498 S    
Zn4   O11   1.933398 S    
Zn4   O1    1.918018 S    
C43   C44   1.420607 A    
O7    C6    1.277405 A    
C58   H18   1.111069 S    
O13   C2    1.298717 A    
C59   H22   1.112948 S    
Zn3   O13   1.936682 S    
C60   C61   1.525467 S    
C14   C18   1.425920 A    
C44   C45   1.413206 A    
O44   C77   1.418150 S    
N4    O24   1.300311 A    
C74   C75   1.532010 S    
O30   C65   1.413628 S    
C28   H4    1.083590 S    
C42   C43   1.397541 A    
C59   H21   1.110560 S    
C55   H13   1.110950 S    
C70   H46   1.108481 S    
C79   H67   1.110838 S    
C39   C47   1.420379 A    
N5    O27   1.298797 A    
C30   C31   1.420468 A    
C36   H3    1.080580 S    
C17   O14   1.384657 S    
C34   N2    1.432652 S    
C63   H31   1.108984 S    
N1    O16   1.298636 A    
C66   H37   1.110138 S    
C49   H6    1.078659 S    
C77   H64   1.116815 S    
Zn1   O10   1.917770 S    
C62   H28   1.109964 S    
C66   H38   1.109276 S    
C39   O30   1.381694 S    
C74   H56   1.110950 S    
C72   C73   1.524740 S    
