data_mof_unit_22096.cif
_audit_creation_date              2012-12-10T18:04:37-0500
_audit_creation_method            fapswitch 2.2
_symmetry_space_group_name_H-M    P1
_symmetry_Int_Tables_number       1
_space_group_crystal_system       triclinic
_cell_length_a                    10.859373
_cell_length_b                    9.593455
_cell_length_c                    16.022835
_cell_angle_alpha                 90.000518
_cell_angle_beta                  93.008375
_cell_angle_gamma                 90.005544
_cell_volume                      1666.94099172

loop_
_atom_site_label
_atom_site_type_symbol
_atom_type_description
_atom_site_fract_x
_atom_site_fract_y
_atom_site_fract_z
_atom_type_partial_charge
C1    C     C_R   0.871552 0.503247 0.496799 -0.019541
C2    C     C_R   0.128447 0.503224 0.503251 -0.019487
C3    C     C_R   0.262382 0.500615 0.501760 0.762796
C4    C     C_R   0.737618 0.500626 0.498258 0.762804
C5    C     C_R   0.501084 0.499871 0.341521 0.819621
C6    C     C_R   0.498922 0.499873 0.658480 0.819571
C7    C     C_R   0.491275 0.624822 0.956084 0.143578
C8    C     C_R   0.502081 0.368422 0.044246 0.135271
C9    C     C_R   0.509059 0.624801 0.043937 0.143578
C10   C     C_R   0.497729 0.368429 0.955749 0.135248
C11   C     C_R   0.491968 0.496955 0.912169 0.047039
C12   C     C_R   0.508098 0.496933 0.087838 0.047040
C13   C     C_1   0.492553 0.498189 0.822192 -0.012195
C14   C     C_1   0.507493 0.498169 0.177813 -0.012201
C15   C     C_1   0.504950 0.499176 0.252689 -0.204985
C16   C     C_1   0.495077 0.499187 0.747314 -0.204995
C17   C     C_R   0.427666 0.075079 0.442115 0.339718
C18   C     C_R   0.567880 0.924667 0.560165 0.330485
C19   C     C_R   0.572360 0.075091 0.557869 0.339670
C20   C     C_R   0.432153 0.924656 0.439817 0.330484
C21   C     C_R   0.063371 0.378123 0.504502 -0.197254
C22   C     C_R   0.935977 0.630229 0.499534 -0.175376
C23   C     C_R   0.936576 0.378154 0.495204 -0.197000
C24   C     C_R   0.064068 0.630224 0.500881 -0.175267
Cu1   Cu    Cu3+1 0.500000 0.640660 0.500000 1.007461
Cu2   Cu    Cu3+1 0.500000 0.359340 0.500000 1.016878
H1    H     H_    0.109969 0.279965 0.511675 0.146390
H2    H     H_    0.887858 0.729101 0.500003 0.156620
H3    H     H_    0.889941 0.280043 0.487737 0.146186
H4    H     H_    0.112224 0.729100 0.500703 0.156439
N1    N     N_R   0.500000 0.852070 0.500000 -0.247545
N2    N     N_R   0.500000 0.147930 0.500000 -0.248590
O1    O     O_R   0.319640 0.618740 0.499990 -0.551529
O2    O     O_R   0.680360 0.381260 0.500010 -0.566737
O3    O     O_R   0.680360 0.618740 0.500010 -0.551512
O4    O     O_R   0.319640 0.381260 0.499990 -0.566736
O5    O     O_R   0.499970 0.618750 0.380310 -0.554996
O6    O     O_R   0.500030 0.381250 0.619690 -0.523790
O7    O     O_R   0.500030 0.618750 0.619690 -0.555051
O8    O     O_R   0.499970 0.381250 0.380310 -0.523761
O9    O     O_3   0.359822 0.150731 0.381940 -0.549149
C25   C     C_3   0.232278 0.122750 0.384598 0.096608
H5    H     H_    0.202627 0.120015 0.449640 0.115114
H6    H     H_    0.206779 0.021741 0.355592 0.173999
C26   C     C_3   0.161004 0.232814 0.333482 -0.791892
H7    H     H_    0.180453 0.221845 0.266421 0.235881
H8    H     H_    0.060474 0.219371 0.340351 0.198141
H9    H     H_    0.188832 0.339002 0.354147 0.260057
O10   O     O_3   0.643432 0.849055 0.615695 -0.555149
C27   C     C_3   0.609455 0.867082 0.699114 0.075734
H10   H     H_    0.516020 0.824437 0.707905 0.155791
H11   H     H_    0.608839 0.977545 0.719170 0.166520
C28   C     C_3   0.703898 0.790987 0.756147 -0.796161
H12   H     H_    0.683501 0.805862 0.822423 0.207543
H13   H     H_    0.703516 0.677935 0.741599 0.255404
H14   H     H_    0.797649 0.832647 0.747104 0.233410
O11   O     O_3   0.640275 0.150749 0.618011 -0.549163
C29   C     C_3   0.767817 0.122890 0.615203 0.096556
H15   H     H_    0.797324 0.120401 0.550126 0.115276
H16   H     H_    0.793418 0.021807 0.644073 0.173871
C30   C     C_3   0.839151 0.232874 0.666358 -0.791577
H17   H     H_    0.819823 0.221736 0.733429 0.235828
H18   H     H_    0.939664 0.219506 0.659394 0.198168
H19   H     H_    0.811269 0.339094 0.645800 0.260005
O12   O     O_3   0.356683 0.849033 0.384232 -0.555082
C31   C     C_3   0.390813 0.867062 0.300842 0.075725
H20   H     H_    0.484257 0.824408 0.292121 0.155815
H21   H     H_    0.391505 0.977529 0.280795 0.166407
C32   C     C_3   0.296441 0.790984 0.243730 -0.796099
H22   H     H_    0.202700 0.832771 0.252626 0.233320
H23   H     H_    0.317041 0.805719 0.177477 0.207597
H24   H     H_    0.296653 0.677953 0.258338 0.255459
C33   C     C_3   0.533625 0.762252 0.088953 -0.869711
H25   H     H_    0.549188 0.751567 0.157398 0.229385
H26   H     H_    0.618439 0.810242 0.065900 0.231965
H27   H     H_    0.455715 0.835316 0.076659 0.231376
C34   C     C_3   0.497830 0.230185 0.909150 -0.844060
H28   H     H_    0.493029 0.240669 0.840246 0.240883
H29   H     H_    0.583673 0.171869 0.926463 0.228799
H30   H     H_    0.416993 0.166831 0.925392 0.230217
C35   C     C_3   0.466987 0.762328 0.911084 -0.869640
H31   H     H_    0.451392 0.751681 0.842640 0.229384
H32   H     H_    0.382276 0.810523 0.934147 0.231952
H33   H     H_    0.545049 0.835201 0.923384 0.231363
C36   C     C_3   0.501695 0.230176 0.090833 -0.844126
H34   H     H_    0.506522 0.240644 0.159738 0.240910
H35   H     H_    0.415729 0.172072 0.073515 0.228790
H36   H     H_    0.582398 0.166624 0.074582 0.230231

loop_
_geom_bond_atom_site_label_1
_geom_bond_atom_site_label_2
_ccdc_geom_bond_type
Cu1   N1    S    
C31   H21   S    
Cu2   N2    S    
C5    O5    A    
C32   H24   S    
O9    C25   S    
O10   C27   S    
C35   H31   S    
C34   H28   S    
C19   O11   S    
C7    C11   A    
C9    C33   S    
C23   H3    S    
C8    C36   S    
C36   H34   S    
C28   H14   S    
C31   C32   S    
C3    O1    A    
C29   H16   S    
C17   C20   A    
C32   H23   S    
C18   C19   A    
C33   H25   S    
C26   H8    S    
C30   H18   S    
Cu1   O5    S    
Cu2   O2    S    
C27   H11   S    
C6    O6    A    
C29   C30   S    
C36   H35   S    
C31   H20   S    
C21   H1    S    
C4    O3    A    
C1    C22   A    
C22   H2    S    
C33   H26   S    
C30   H17   S    
C25   H6    S    
C19   N2    A    
C35   H32   S    
C10   C34   S    
C24   H4    S    
C28   H13   S    
C4    O2    A    
C27   C28   S    
C20   O12   S    
Cu2   O6    S    
C26   H9    S    
Cu1   Cu2   S    
C26   H7    S    
C25   C26   S    
C30   H19   S    
C8    C12   A    
C2    C21   A    
C27   H10   S    
C34   H29   S    
Cu1   O3    S    
Cu2   O4    S    
C7    C35   S    
C12   C14   S    
C1    C23   A    
C21   C23   A    
C2    C24   A    
C33   H27   S    
C22   C24   A    
C13   C16   T    
C25   H5    S    
C35   H33   S    
C36   H36   S    
C34   H30   S    
C7    C9    A    
C14   C15   T    
C28   H12   S    
C1    C4    S    
C2    C3    S    
C29   H15   S    
Cu1   O7    S    
C11   C13   S    
Cu2   O8    S    
O11   C29   S    
C3    O4    A    
C32   H22   S    
C9    C12   A    
C17   O9    S    
C5    C15   S    
C10   C11   A    
C6    C16   S    
C8    C10   A    
O12   C31   S    
C5    O8    A    
C17   N2    A    
C6    O7    A    
C18   N1    A    
C18   O10   S    
Cu1   O1    S    
C20   N1    A    
