data_mof_unit_58866.cif
_audit_creation_date              2012-10-26T18:40:22-0400
_audit_creation_method            fapswitch 2.2
_symmetry_space_group_name_H-M    P1
_symmetry_Int_Tables_number       1
_space_group_crystal_system       triclinic
_cell_length_a                    8.796774
_cell_length_b                    15.096284
_cell_length_c                    13.825289
_cell_angle_alpha                 89.979723
_cell_angle_beta                  97.789379
_cell_angle_gamma                 89.958623
_cell_volume                      1819.03772811

loop_
_atom_site_label
_atom_site_type_symbol
_atom_type_description
_atom_site_fract_x
_atom_site_fract_y
_atom_site_fract_z
_atom_type_partial_charge
C1    C     C_R   0.495835 0.329863 0.499633 0.534203
C2    C     C_R   0.605697 0.554347 0.900939 0.227756
C3    C     C_R   0.498721 0.501011 0.054492 0.019434
C4    C     C_R   0.501308 0.500974 0.945508 0.016981
C5    C     C_R   0.204061 0.497842 0.475393 0.568430
C6    C     C_R   0.795949 0.502088 0.524627 0.569927
C7    C     C_2   0.038972 0.487934 0.463104 0.242884
C8    C     C_2   0.961069 0.511874 0.536998 0.244358
C9    C     C_R   0.410655 0.092442 0.558870 -0.049793
C10   C     C_R   0.589582 0.907442 0.574620 -0.055544
C11   C     C_R   0.402248 0.184571 0.558751 0.252615
C12   C     C_R   0.504281 0.670142 0.500352 0.533043
C13   C     C_R   0.597755 0.815307 0.575903 0.248145
C14   C     C_R   0.490904 0.233199 0.498692 -0.027199
C15   C     C_R   0.509625 0.766816 0.500247 -0.027615
C16   C     C_R   0.580124 0.188352 0.437602 -0.094922
C17   C     C_R   0.421399 0.811823 0.423436 -0.102038
C18   C     C_R   0.585234 0.096314 0.436890 0.279545
C19   C     C_R   0.416651 0.903868 0.421848 0.279411
C20   C     C_R   0.499892 0.048319 0.497745 0.001209
C21   C     C_R   0.501272 0.951717 0.497796 0.000480
C22   C     C_R   0.598227 0.444914 0.115559 0.211570
C23   C     C_R   0.397401 0.447693 0.884108 0.213969
C24   C     C_R   0.596480 0.445534 0.217226 0.091365
C25   C     C_R   0.399172 0.448270 0.782440 0.101306
C26   C     C_R   0.402555 0.554880 0.201626 0.119575
C27   C     C_R   0.601634 0.552154 0.798697 0.129910
C28   C     C_R   0.398672 0.557179 0.099392 0.225232
Cl1   Cl    Cl    0.702397 0.043092 0.360931 -0.438858
Cl2   Cl    Cl    0.300787 0.957295 0.325212 -0.430718
Cl3   Cl    Cl    0.726491 0.373211 0.067085 -0.446433
Cl4   Cl    Cl    0.263518 0.379631 0.932170 -0.443499
Cu1   Cu    Cu3+1 0.500000 0.499990 0.596430 1.022477
Cu2   Cu    Cu3+1 0.500000 0.500010 0.403570 1.007828
H1    H     H_    0.343699 0.054853 0.604880 0.176844
H2    H     H_    0.960144 0.569953 0.663741 0.342013
H3    H     H_    0.272616 0.282383 0.588848 0.334309
H4    H     H_    0.727275 0.717512 0.628489 0.330193
H5    H     H_    0.305088 0.611408 0.977260 0.351212
H6    H     H_    0.703477 0.605970 0.023385 0.350401
H7    H     H_    0.656018 0.944920 0.632466 0.177617
H8    H     H_    0.648432 0.225065 0.391663 0.178054
H9    H     H_    0.353569 0.775235 0.365435 0.170450
H10   H     H_    0.672853 0.402155 0.263394 0.195495
H11   H     H_    0.319229 0.407153 0.736005 0.183924
H12   H     H_    0.326676 0.597713 0.235742 0.171955
H13   H     H_    0.680770 0.592910 0.764856 0.170017
H14   H     H_    0.039829 0.429934 0.336311 0.356579
N1    N     N_R   0.500000 0.500020 0.258690 -0.297667
N2    N     N_R   0.500000 0.499980 0.741310 -0.294099
O1    O     O_R   0.500010 0.371450 0.581430 -0.489736
O2    O     O_3   0.036133 0.549961 0.621672 -0.694129
O3    O     O_3   0.303856 0.223478 0.616003 -0.641168
O4    O     O_3   0.695440 0.776235 0.650388 -0.648406
O5    O     O_3   0.296489 0.615146 0.047702 -0.636080
O6    O     O_3   0.712358 0.609468 0.952964 -0.632633
O7    O     O_R   0.499990 0.628550 0.418570 -0.511553
O8    O     O_R   0.500010 0.371460 0.418560 -0.501706
O9    O     O_R   0.499990 0.628540 0.581440 -0.490347
O10   O     O_R   0.274840 0.499990 0.562640 -0.460801
O11   O     O_R   0.725160 0.500010 0.437360 -0.454100
O12   O     O_R   0.274840 0.500000 0.399770 -0.524754
O13   O     O_R   0.725160 0.500000 0.600230 -0.530671
O14   O     O_3   0.963907 0.449748 0.378505 -0.706249

loop_
_geom_bond_atom_site_label_1
_geom_bond_atom_site_label_2
_ccdc_geom_bond_type
C6    O13   A    
Cu2   O7    S    
C2    C4    A    
C27   N2    A    
C2    C27   A    
C25   H11   S    
Cu1   O1    S    
C9    C11   A    
C8    O2    S    
C9    C20   A    
C26   C28   A    
H2    O2    S    
C12   C15   S    
Cu1   O13   S    
H3    O3    S    
C23   Cl4   S    
C22   C24   A    
C17   H9    S    
Cu1   Cu2   S    
C5    C7    S    
C7    C8    D    
Cu1   O9    S    
C18   Cl1   S    
C2    O6    S    
C1    O8    A    
C12   O9    A    
C10   H7    S    
Cu2   O8    S    
C1    O1    A    
C11   O3    S    
C12   O7    A    
C6    O11   A    
C3    C28   A    
C17   C19   A    
C28   O5    S    
C5    O12   A    
Cu1   O10   S    
C18   C20   A    
C13   C15   A    
C10   C21   A    
C24   H10   S    
C11   C14   A    
C14   C16   A    
C7    O14   S    
H14   O14   S    
C22   Cl3   S    
C26   H12   S    
C9    H1    S    
C3    C4    S    
C16   H8    S    
Cu2   O12   S    
C23   C25   A    
C20   C21   S    
C16   C18   A    
C13   O4    S    
C26   N1    A    
C27   H13   S    
C24   N1    A    
C15   C17   A    
C4    C23   A    
C25   N2    A    
H6    O6    S    
C3    C22   A    
C6    C8    S    
C1    C14   S    
C5    O10   A    
C19   C21   A    
Cu1   N2    S    
C19   Cl2   S    
Cu2   O11   S    
H5    O5    S    
Cu2   N1    S    
C10   C13   A    
H4    O4    S    
