data_mof_unit_63146.cif
_audit_creation_date              2012-10-26T21:25:37-0400
_audit_creation_method            fapswitch 2.2
_symmetry_space_group_name_H-M    P1
_symmetry_Int_Tables_number       1
_space_group_crystal_system       triclinic
_cell_length_a                    16.042851
_cell_length_b                    14.757032
_cell_length_c                    14.368087
_cell_angle_alpha                 90.000014
_cell_angle_beta                  89.989686
_cell_angle_gamma                 90.000035
_cell_volume                      3401.57077032

loop_
_atom_site_label
_atom_site_type_symbol
_atom_type_description
_atom_site_fract_x
_atom_site_fract_y
_atom_site_fract_z
_atom_type_partial_charge
C1    C     C_1   0.252136 0.500000 0.499994 -0.018030
C2    C     C_R   0.659073 0.500000 0.499981 0.554126
C3    C     C_R   0.499999 0.500000 0.330560 0.543051
C4    C     C_R   0.500001 0.500000 0.669439 0.543051
C5    C     C_1   0.500000 0.802739 0.500000 0.137654
C6    C     C_1   0.500000 0.197261 0.500000 0.137654
C7    C     C_1   0.499999 0.500000 0.228390 -0.024388
C8    C     C_1   0.500001 0.500000 0.771610 -0.024388
C9    C     C_1   0.499999 0.500000 0.143117 -0.024009
C10   C     C_1   0.500001 0.500000 0.856883 -0.024009
C11   C     C_1   0.499999 0.500000 0.042635 0.016124
C12   C     C_1   0.747864 0.500000 0.500006 -0.018031
C13   C     C_1   0.500000 0.500000 0.957364 0.016124
C14   C     C_R   0.565143 0.952090 0.541955 -0.099135
C15   C     C_R   0.434857 0.047910 0.458045 -0.099135
C16   C     C_R   0.434857 0.952090 0.458045 -0.099135
C17   C     C_R   0.565143 0.047910 0.541955 -0.099135
C18   C     C_R   0.956412 0.583273 0.499993 0.283674
C19   C     C_R   0.043588 0.416727 0.500006 0.283674
C20   C     C_R   0.043588 0.583273 0.499908 0.283675
C21   C     C_R   0.956412 0.416727 0.500092 0.283675
C22   C     C_R   0.912370 0.500000 0.500064 -0.080380
C23   C     C_R   0.087630 0.500000 0.499936 -0.080380
C24   C     C_1   0.822686 0.500000 0.500034 -0.070340
C25   C     C_1   0.177314 0.500000 0.499966 -0.070340
C26   C     C_R   0.500000 0.902870 0.500000 0.002349
C27   C     C_R   0.500000 0.097130 0.500000 0.002349
C28   C     C_R   0.340926 0.500000 0.500019 0.554126
Cu1   Cu    Cu3+1 0.500000 0.589220 0.500000 1.004586
Cu2   Cu    Cu3+1 0.500000 0.410780 0.500000 1.004586
H1    H     H_    0.616229 0.083625 0.574859 0.126617
H2    H     H_    0.383770 0.916375 0.425141 0.126617
H3    H     H_    0.383770 0.083624 0.425141 0.126616
H4    H     H_    0.616229 0.916376 0.574859 0.126616
H5    H     H_    0.143850 0.660216 0.499581 0.328832
H6    H     H_    0.856150 0.339783 0.500419 0.328832
H7    H     H_    0.856150 0.660215 0.500222 0.328831
H8    H     H_    0.143850 0.339784 0.499778 0.328831
N1    N     N_1   0.500000 0.276710 0.500000 -0.180801
N2    N     N_1   0.500000 0.723290 0.500000 -0.180801
O1    O     O_R   0.380310 0.575320 0.500020 -0.484265
O2    O     O_3   0.917391 0.332945 0.500184 -0.611415
O3    O     O_3   0.917391 0.667054 0.499986 -0.611411
O4    O     O_3   0.082609 0.332945 0.500014 -0.611411
O5    O     O_R   0.619690 0.424680 0.499980 -0.484265
O6    O     O_R   0.619690 0.575320 0.499980 -0.484265
O7    O     O_R   0.380310 0.424680 0.500020 -0.484266
O8    O     O_R   0.500000 0.575360 0.376050 -0.474278
O9    O     O_R   0.500000 0.424640 0.623950 -0.474278
O10   O     O_R   0.500000 0.575360 0.623950 -0.474278
O11   O     O_R   0.500000 0.424640 0.376050 -0.474277
O12   O     O_3   0.082609 0.667054 0.499816 -0.611415

loop_
_geom_bond_atom_site_label_1
_geom_bond_atom_site_label_2
_ccdc_geom_bond_type
C14   H4    S    
C1    C28   S    
C19   C23   A    
Cu2   O11   S    
C1    C25   T    
C28   O7    A    
H7    O3    S    
Cu1   Cu2   S    
Cu2   O7    S    
C16   H2    S    
C11   C13   T    
C12   C24   T    
Cu2   O5    S    
C15   C27   A    
C6    C27   S    
C20   C23   A    
C4    O9    A    
C4    C8    S    
C2    C12   S    
C20   O12   S    
C21   C22   A    
C14   C26   A    
H8    O4    S    
C9    C11   S    
C14   C17   A    
Cu1   N2    S    
C19   C21   A    
Cu2   O9    S    
Cu2   N1    S    
C3    C7    S    
Cu1   O10   S    
C23   C25   S    
C2    O5    A    
C16   C26   A    
C17   H1    S    
C22   C24   S    
C15   C16   A    
Cu1   O8    S    
C5    C26   S    
C17   C27   A    
C3    O8    A    
C19   O4    S    
C18   C20   A    
C8    C10   T    
Cu1   O6    S    
C5    N2    T    
C18   O3    S    
H5    O12   S    
C7    C9    T    
C3    O11   A    
C6    N1    T    
Cu1   O1    S    
C18   C22   A    
H6    O2    S    
C15   H3    S    
C2    O6    A    
C28   O1    A    
C21   O2    S    
C4    O10   A    
C10   C13   S    
