data_mof_unit_32931.cif
_audit_creation_date              2012-12-11T14:19:20-0500
_audit_creation_method            fapswitch 2.2
_symmetry_space_group_name_H-M    P1
_symmetry_Int_Tables_number       1
_space_group_crystal_system       triclinic
_cell_length_a                    19.357067
_cell_length_b                    7.247592
_cell_length_c                    17.706975
_cell_angle_alpha                 90.000035
_cell_angle_beta                  107.698189
_cell_angle_gamma                 90.000026
_cell_volume                      2366.57706208

loop_
_atom_site_label
_atom_site_type_symbol
_atom_type_description
_atom_site_fract_x
_atom_site_fract_y
_atom_site_fract_z
_atom_type_partial_charge
O1    O     O_R   0.414820 0.494320 0.416790 -0.534631
O2    O     O_R   0.585180 0.994320 0.583210 -0.534633
O3    O     O_R   0.560270 0.819500 0.430140 -0.539366
O4    O     O_R   0.439730 0.319500 0.569860 -0.539339
C1    C     C_R   0.582653 0.656024 0.416552 0.759593
C2    C     C_R   0.417348 0.156023 0.583450 0.759540
O5    O     O_R   0.413840 0.823740 0.407440 -0.540831
O6    O     O_R   0.586160 0.323740 0.592560 -0.540869
O7    O     O_R   0.437710 0.998590 0.560350 -0.547453
O8    O     O_R   0.562290 0.498590 0.439650 -0.547454
C3    C     C_R   0.388500 0.654736 0.384228 0.713114
C4    C     C_R   0.611501 0.154736 0.615770 0.713087
O9    O     O_3   0.508000 0.662290 0.550200 -0.385059
O10   O     O_3   0.492000 0.162290 0.449800 -0.385058
V1    V     V_3+5 0.498520 0.935380 0.490690 1.384808
V2    V     V_3+5 0.501480 0.435380 0.509310 1.384786
C5    C     C_2   0.774450 0.250040 0.802366 -0.217296
C6    C     C_2   0.225552 0.750038 0.197630 -0.217297
C7    C     C_2   0.825858 0.118918 0.809291 0.266321
C8    C     C_2   0.174144 0.618917 0.190707 0.266318
H1    H     H_    0.778351 0.343070 0.851601 0.090426
H2    H     H_    0.221650 0.843068 0.148395 0.090429
C9    C     C_2   0.712080 0.278965 0.729336 -0.101294
C10   C     C_2   0.287923 0.778964 0.270660 -0.101297
C11   C     C_2   0.675535 0.136556 0.686809 -0.278420
C12   C     C_2   0.324469 0.636555 0.313185 -0.278471
H3    H     H_    0.693091 0.419122 0.714217 0.128407
H4    H     H_    0.306909 0.919121 0.285781 0.128417
H5    H     H_    0.691752 0.997121 0.706531 0.145260
H6    H     H_    0.308254 0.497120 0.293462 0.145267
C13   C     C_R   0.303757 0.265705 0.610990 0.348071
C14   C     C_R   0.696239 0.765725 0.389006 0.348006
C15   C     C_R   0.365771 0.150086 0.630423 -0.153467
C16   C     C_R   0.634229 0.650091 0.369577 -0.153451
C17   C     C_R   0.378319 0.026580 0.694201 -0.304628
C18   C     C_R   0.621683 0.526577 0.305802 -0.304693
C19   C     C_R   0.331153 0.018723 0.740514 0.099536
C20   C     C_R   0.668848 0.518723 0.259488 0.099520
C21   C     C_R   0.269929 0.135392 0.722704 -0.005052
C22   C     C_R   0.730067 0.635409 0.277291 -0.005043
C23   C     C_R   0.254967 0.256182 0.656879 0.004455
C24   C     C_R   0.745026 0.756214 0.343112 0.004468
C25   C     C_R   0.344079 0.895033 0.804338 -0.172564
C26   C     C_R   0.655926 0.395014 0.195670 -0.172548
C27   C     C_R   0.297108 0.887434 0.850694 -0.188225
C28   C     C_R   0.702897 0.387413 0.149315 -0.188221
C29   C     C_R   0.236489 0.003993 0.834319 0.098593
C30   C     C_R   0.763512 0.503988 0.165683 0.098591
C31   C     C_R   0.222667 0.128235 0.770016 0.073179
C32   C     C_R   0.777329 0.628251 0.229980 0.073183
C33   C     C_R   0.161379 0.244615 0.752779 0.102439
C34   C     C_R   0.838613 0.744648 0.247210 0.102433
C35   C     C_R   0.145605 0.359290 0.686173 -0.196154
C36   C     C_R   0.854382 0.859345 0.313810 -0.196156
C37   C     C_R   0.190772 0.361792 0.637876 -0.164402
C38   C     C_R   0.809215 0.861847 0.362107 -0.164356
C39   C     C_R   0.189324 0.998219 0.880934 -0.220017
C40   C     C_R   0.810678 0.498208 0.119071 -0.220019
C41   C     C_R   0.129693 0.118697 0.865520 -0.075187
C42   C     C_R   0.870306 0.618700 0.134478 -0.075191
C43   C     C_R   0.116173 0.241961 0.801578 -0.214001
C44   C     C_R   0.883820 0.741987 0.198412 -0.214002
H7    H     H_    0.425477 0.937259 0.708125 0.136648
H8    H     H_    0.574528 0.437245 0.291883 0.136667
H9    H     H_    0.308364 0.790686 0.899589 0.122662
H10   H     H_    0.691646 0.290648 0.100425 0.122660
H11   H     H_    0.199646 0.902365 0.930151 0.115411
H12   H     H_    0.800360 0.402337 0.069859 0.115416
H13   H     H_    0.069463 0.332473 0.788798 0.120784
H14   H     H_    0.930526 0.832512 0.211188 0.120794
H15   H     H_    0.097739 0.446058 0.670835 0.126803
H16   H     H_    0.902244 0.946128 0.329143 0.126800
H17   H     H_    0.174971 0.448606 0.586045 0.148628
H18   H     H_    0.825013 0.948675 0.413933 0.148609
O11   O     O_R   0.937810 0.773680 0.060480 -0.531710
O12   O     O_R   0.062190 0.273680 0.939520 -0.531708
O13   O     O_R   0.086190 0.439740 0.092580 -0.543548
O14   O     O_R   0.913810 0.939740 0.907420 -0.543549
C45   C     C_R   0.111358 0.608489 0.116499 0.631652
C46   C     C_R   0.888642 0.108489 0.883501 0.631651
O15   O     O_R   0.939760 0.444210 0.069890 -0.541028
O16   O     O_R   0.060240 0.944210 0.930110 -0.541029
O17   O     O_R   0.914790 0.269640 0.916760 -0.548105
O18   O     O_R   0.085210 0.769640 0.083240 -0.548104
C47   C     C_R   0.919235 0.612234 0.084789 0.700997
C48   C     C_R   0.080765 0.112233 0.915210 0.700996
O19   O     O_3   0.992050 0.601530 0.949880 -0.375367
O20   O     O_3   0.007950 0.101530 0.050120 -0.375370
V3    V     V_3+5 0.001480 0.328340 0.009300 1.380224
V4    V     V_3+5 0.998520 0.828340 0.990700 1.380222
O21   O     O_3   0.829060 0.029857 0.740731 -0.570235
C49   C     C_3   0.828976 0.835390 0.747772 0.077256
H19   H     H_    0.782756 0.781453 0.698734 0.131570
H20   H     H_    0.820396 0.783544 0.803533 0.105742
C50   C     C_3   0.898860 0.757649 0.736953 -0.292376
H21   H     H_    0.902570 0.799596 0.677910 0.194899
H22   H     H_    0.946650 0.814855 0.782980 0.208313
C51   C     C_3   0.900721 0.547700 0.742389 -0.787505
H23   H     H_    0.900520 0.503824 0.802233 0.251802
H24   H     H_    0.950764 0.495168 0.731658 0.214908
H25   H     H_    0.852989 0.487021 0.697547 0.233966
O22   O     O_3   0.170943 0.529856 0.259268 -0.570226
C52   C     C_3   0.171029 0.335389 0.252227 0.077285
H26   H     H_    0.217252 0.281455 0.301262 0.131575
H27   H     H_    0.179604 0.283543 0.196464 0.105738
C53   C     C_3   0.101149 0.257644 0.263054 -0.292376
H28   H     H_    0.097445 0.299590 0.322100 0.194900
H29   H     H_    0.053356 0.314850 0.217031 0.208306
C54   C     C_3   0.099289 0.047694 0.257618 -0.787533
H30   H     H_    0.099473 0.003821 0.197768 0.251806
H31   H     H_    0.049254 0.995158 0.268366 0.214916
H32   H     H_    0.147029 0.987017 0.302448 0.233971
O23   O     O_3   0.284860 0.360239 0.539448 -0.575240
C55   C     C_3   0.295655 0.552512 0.551619 0.061168
H33   H     H_    0.351535 0.588729 0.552138 0.157710
H34   H     H_    0.288484 0.602070 0.608425 0.109262
C56   C     C_3   0.241539 0.652924 0.482451 -0.309195
H35   H     H_    0.250466 0.610571 0.425936 0.228267
H36   H     H_    0.185289 0.613497 0.479157 0.195625
C57   C     C_3   0.248734 0.861680 0.490991 -0.785086
H37   H     H_    0.241294 0.906137 0.548008 0.235643
H38   H     H_    0.206537 0.929177 0.441933 0.233315
H39   H     H_    0.302649 0.906083 0.488145 0.239571
O24   O     O_3   0.715143 0.860241 0.460552 -0.575237
C58   C     C_3   0.704332 0.052513 0.448393 0.061203
H40   H     H_    0.648454 0.088698 0.447895 0.157763
H41   H     H_    0.711484 0.102101 0.391580 0.109205
C59   C     C_3   0.758459 0.152930 0.517553 -0.309282
H42   H     H_    0.749616 0.110381 0.574087 0.228365
H43   H     H_    0.814708 0.113713 0.520760 0.195541
C60   C     C_3   0.751163 0.361679 0.509088 -0.784948
H44   H     H_    0.758433 0.406307 0.452008 0.235657
H45   H     H_    0.793427 0.429195 0.558084 0.233289
H46   H     H_    0.697278 0.405892 0.512115 0.239554
H47   H     H_    0.390620 0.803826 0.818423 0.120469
H48   H     H_    0.609389 0.303793 0.181590 0.120467

loop_
_geom_bond_atom_site_label_1
_geom_bond_atom_site_label_2
_ccdc_geom_bond_type
C26   H48   S    
O4    V2    S    
C14   O24   S    
C50   H21   S    
O1    C3    A    
C60   H46   S    
O2    C4    A    
C59   H42   S    
C2    O7    A    
C55   H33   S    
C50   C51   S    
C21   C23   A    
O14   V4    S    
O5    C3    A    
O13   V3    S    
C5    C9    S    
C6    C10   S    
C17   C19   A    
C10   C12   D    
C28   H10   S    
C56   H36   S    
C45   O18   A    
O14   C46   A    
C39   C41   A    
C8    O22   S    
C53   H28   S    
C40   C42   A    
C44   H14   S    
C42   C44   A    
C27   C29   A    
C23   C37   A    
O11   V4    S    
C24   C38   A    
O19   V4    S    
C17   H7    S    
O11   C47   A    
C26   C28   A    
C31   C33   A    
C33   C43   A    
C58   C59   S    
C32   C34   A    
C13   C15   A    
C9    H3    S    
C16   C18   A    
C57   H39   S    
O12   V3    S    
O15   V3    S    
C30   C32   A    
O6    V2    S    
O22   C52   S    
O18   V4    S    
C39   H11   S    
C46   O17   A    
C34   C36   A    
C28   C30   A    
C35   C37   A    
C11   H5    S    
O17   V3    S    
C36   C38   A    
C41   C43   A    
C38   H18   S    
C29   C31   A    
C56   C57   S    
O21   C49   S    
C5    C7    D    
O5    V1    S    
C3    C12   S    
C60   H45   S    
O16   C48   A    
C49   C50   S    
C5    H1    S    
C33   C35   A    
C14   C16   A    
C19   C25   A    
C20   C26   A    
C29   C39   A    
O6    C4    A    
C1    C16   S    
C49   H20   S    
O13   C45   A    
C52   H27   S    
O1    V2    S    
C25   H47   S    
O2    V1    S    
C25   C27   A    
C40   H12   S    
C21   C31   A    
C12   H6    S    
C51   H24   S    
C27   H9    S    
C58   H40   S    
C54   H32   S    
O4    C2    A    
C60   H44   S    
C35   H15   S    
C59   C60   S    
O12   C48   A    
O3    V1    S    
C57   H37   S    
C57   H38   S    
O23   C55   S    
C43   H13   S    
C13   C23   A    
C8    C45   S    
C6    H2    S    
C10   H4    S    
O3    C1    A    
C59   H43   S    
C55   H34   S    
C42   C47   S    
C50   H22   S    
C30   C40   A    
C51   H25   S    
O16   V4    S    
C2    C15   S    
C4    C11   S    
C54   H31   S    
O7    V1    S    
C41   C48   S    
C1    O8    A    
C19   C21   A    
C34   C44   A    
C56   H35   S    
C18   C20   A    
C20   C22   A    
C53   H29   S    
C22   C32   A    
C22   C24   A    
C49   H19   S    
C15   C17   A    
C52   C53   S    
C6    C8    D    
C9    C11   D    
C7    C46   S    
C55   C56   S    
C7    O21   S    
C37   H17   S    
C36   H16   S    
O20   V3    S    
C51   H23   S    
O9    V2    S    
C54   H30   S    
C52   H26   S    
C58   H41   S    
C14   C24   A    
O10   V1    S    
O8    V2    S    
C18   H8    S    
C13   O23   S    
O15   C47   A    
O24   C58   S    
C53   C54   S    
