data_mof_unit_27534.cif
_audit_creation_date              2012-12-11T16:35:14-0500
_audit_creation_method            fapswitch 2.2
_symmetry_space_group_name_H-M    P1
_symmetry_Int_Tables_number       1
_space_group_crystal_system       triclinic
_cell_length_a                    6.922317
_cell_length_b                    17.785957
_cell_length_c                    19.402121
_cell_angle_alpha                 109.029072
_cell_angle_beta                  90.144249
_cell_angle_gamma                 90.687235
_cell_volume                      2258.03553755

loop_
_atom_site_label
_atom_site_type_symbol
_atom_type_description
_atom_site_fract_x
_atom_site_fract_y
_atom_site_fract_z
_atom_type_partial_charge
O1    O     O_R   0.505700 0.440210 0.561730 -0.550321
O2    O     O_R   0.169350 0.406300 0.412660 -0.527178
O3    O     O_R   0.005650 0.559790 0.438270 -0.524203
C1    C     C_R   0.338609 0.383124 0.384776 0.780790
O4    O     O_R   0.175560 0.430650 0.559600 -0.517581
O5    O     O_R   0.011900 0.584320 0.586250 -0.540772
C2    C     C_R   0.344250 0.414142 0.580092 0.715297
O6    O     O_R   0.499450 0.415680 0.413750 -0.546590
O7    O     O_3   0.341370 0.550390 0.508570 -0.362036
V1    V     V_3+5 0.063940 0.490650 0.498410 1.492031
O8    O     O_R   0.682570 0.593700 0.587340 -0.544652
C3    C     C_R   0.852376 0.616540 0.615076 0.680807
O9    O     O_R   0.676370 0.569350 0.440400 -0.525237
C4    C     C_R   0.845779 0.587115 0.421151 0.727724
V2    V     V_3+5 0.564750 0.509350 0.501590 1.453956
O10   O     O_3   0.837190 0.449610 0.491430 -0.370532
C5    C     C_R   0.039367 0.689774 0.291461 -0.133382
H1    H     H_    0.170967 0.687434 0.260869 0.111616
C6    C     C_R   0.027209 0.644110 0.337764 -0.110104
H2    H     H_    0.150944 0.610244 0.342757 0.197197
C7    C     C_R   0.857501 0.641081 0.376242 -0.163075
C8    C     C_R   0.702735 0.690639 0.371522 0.419136
C9    C     C_R   0.715159 0.736089 0.324369 -0.216192
C10   C     C_R   0.882589 0.735612 0.283163 0.017541
C11   C     C_R   0.729047 0.792158 0.192812 -0.144682
C12   C     C_R   0.739938 0.835272 0.144065 -0.176566
C13   C     C_R   0.916368 0.868835 0.131984 -0.052853
C14   C     C_R   0.081336 0.858696 0.170260 -0.164750
C15   C     C_R   0.069983 0.816506 0.219725 -0.150569
C16   C     C_R   0.893806 0.782285 0.231573 0.115406
C17   C     C_R   0.047234 0.895942 0.746826 -0.219014
C18   C     C_R   0.102209 0.905202 0.680997 -0.220201
C19   C     C_R   0.077187 0.842364 0.615044 0.504777
C20   C     C_R   0.006473 0.769315 0.617191 -0.222103
C21   C     C_R   0.948326 0.758486 0.683229 0.002960
C22   C     C_R   0.968086 0.823231 0.749351 0.067778
C23   C     C_R   0.865806 0.685233 0.683674 -0.132668
C24   C     C_R   0.798048 0.677539 0.750027 0.004571
C25   C     C_R   0.818772 0.742200 0.816278 0.068946
C26   C     C_R   0.905120 0.814899 0.816076 -0.148609
C27   C     C_R   0.710834 0.605833 0.751933 -0.243587
C28   C     C_R   0.640445 0.598642 0.817033 0.507059
C29   C     C_R   0.666464 0.661245 0.882009 -0.194359
C30   C     C_R   0.754417 0.732065 0.881915 -0.222514
H3    H     H_    0.066176 0.946882 0.795569 0.131170
H4    H     H_    0.771604 0.778539 0.933969 0.129018
C31   C     C_R   0.509845 0.235670 0.383433 -0.152174
C32   C     C_R   0.603910 0.167441 0.384976 -0.135769
C33   C     C_R   0.640342 0.106491 0.320495 -0.119348
C34   C     C_R   0.581263 0.112946 0.254013 -0.156746
C35   C     C_R   0.485573 0.181584 0.250554 0.072181
C36   C     C_R   0.450343 0.244718 0.316639 0.062489
C37   C     C_R   0.418216 0.186501 0.183143 -0.120606
C38   C     C_R   0.315027 0.254810 0.182057 -0.041452
C39   C     C_R   0.294414 0.321013 0.247007 -0.095080
C40   C     C_R   0.355758 0.314854 0.315316 -0.153549
C41   C     C_R   0.233225 0.258798 0.116426 -0.320002
C42   C     C_R   0.126907 0.324353 0.114651 0.344148
C43   C     C_R   0.129256 0.393515 0.175752 0.361223
C44   C     C_R   0.218743 0.392679 0.240553 0.322258
H5    H     H_    0.482900 0.280666 0.435368 0.089528
H6    H     H_    0.647837 0.161667 0.436587 0.105336
H7    H     H_    0.609957 0.063051 0.205691 0.112301
H8    H     H_    0.246909 0.210865 0.065455 0.163049
C45   C     C_R   0.537431 0.313393 0.710692 -0.146201
C46   C     C_R   0.525701 0.358818 0.664197 -0.171348
C47   C     C_R   0.354041 0.361345 0.626225 -0.250073
C48   C     C_R   0.194912 0.313193 0.633030 0.385279
C49   C     C_R   0.208606 0.265391 0.678466 0.405107
C50   C     C_R   0.379290 0.267421 0.719895 -0.107552
C51   C     C_R   0.240545 0.222146 0.820487 -0.081123
C52   C     C_R   0.251475 0.177372 0.867831 -0.177147
C53   C     C_R   0.418632 0.134387 0.870881 -0.060711
C54   C     C_R   0.575282 0.137835 0.825970 -0.175344
C55   C     C_R   0.562641 0.181149 0.777422 -0.166325
C56   C     C_R   0.394255 0.223191 0.773394 0.122791
O11   O     O_R   0.273230 0.084330 0.086440 -0.535712
O12   O     O_R   0.596660 0.069390 0.940470 -0.545427
O13   O     O_R   0.760270 0.915710 0.913690 -0.533380
C57   C     C_R   0.427873 0.084938 0.919436 0.686035
O14   O     O_R   0.603330 0.093680 0.087390 -0.543616
O15   O     O_R   0.766990 0.940160 0.061660 -0.543929
C58   C     C_R   0.434229 0.116847 0.115121 0.689052
O16   O     O_R   0.266510 0.059870 0.938470 -0.544194
O17   O     O_3   0.431050 0.949630 0.991510 -0.364161
V3    V     V_3+5 0.708490 0.009340 0.001580 1.388982
O18   O     O_R   0.096270 0.930570 0.059390 -0.540601
C59   C     C_R   0.927232 0.916013 0.081414 0.685249
O19   O     O_R   0.089600 0.906290 0.912460 -0.537139
C60   C     C_R   0.919583 0.883445 0.884793 0.699338
V4    V     V_3+5 0.207670 0.990600 0.998190 1.407278
O20   O     O_3   0.935250 0.050360 0.008480 -0.375540
H9    H     H_    0.164571 0.961626 0.682083 0.118189
O21   O     O_3   0.130663 0.847197 0.547547 -0.561400
C61   C     C_3   0.082348 0.921064 0.540161 -0.301628
H10   H     H_    0.195282 0.966534 0.565762 0.136061
H11   H     H_    0.936905 0.941446 0.562555 0.128575
H12   H     H_    0.078324 0.914095 0.481231 0.173424
H13   H     H_    0.992808 0.721693 0.565697 0.117646
H14   H     H_    0.694801 0.554645 0.703252 0.124585
O22   O     O_3   0.555994 0.528283 0.817962 -0.555476
C62   C     C_3   0.359530 0.528458 0.798615 -0.234661
H15   H     H_    0.342382 0.531062 0.742367 0.123845
H16   H     H_    0.281894 0.578501 0.838288 0.137651
H17   H     H_    0.290637 0.472196 0.799663 0.174495
O23   O     O_3   0.035490 0.462027 0.175707 -0.539520
C63   C     C_3   0.117943 0.492935 0.123822 -0.150225
H18   H     H_    0.037946 0.470053 0.071329 0.185264
H19   H     H_    0.275078 0.480557 0.114800 0.100859
H20   H     H_    0.102255 0.558493 0.143791 0.137101
H21   H     H_    0.712962 0.053464 0.322001 0.115545
O24   O     O_3   0.035194 0.323480 0.051008 -0.552512
C64   C     C_3   0.866086 0.276073 0.041782 -0.210798
H22   H     H_    0.768121 0.298188 0.089429 0.137795
H23   H     H_    0.900939 0.212572 0.031914 0.147321
H24   H     H_    0.786849 0.279288 0.993064 0.158732
O25   O     O_3   0.243430 0.464360 0.295496 -0.548942
C65   C     C_3   0.424289 0.496624 0.285155 -0.221907
H25   H     H_    0.424121 0.513995 0.235102 0.133223
H26   H     H_    0.545199 0.455323 0.283557 0.130394
H27   H     H_    0.452053 0.551038 0.331718 0.196002
H28   H     H_    0.669978 0.316056 0.741228 0.178890
H29   H     H_    0.650387 0.394409 0.660025 0.189870
O26   O     O_3   0.019848 0.316446 0.599570 -0.538405
C66   C     C_3   0.019877 0.261540 0.528145 -0.159691
H30   H     H_    0.154661 0.264691 0.497888 0.085040
H31   H     H_    0.898234 0.275747 0.497377 0.153617
H32   H     H_    0.995471 0.200137 0.529043 0.127135
O27   O     O_3   0.049200 0.219741 0.683579 -0.550903
C67   C     C_3   0.085171 0.138768 0.645500 -0.292899
H33   H     H_    0.166583 0.111246 0.680199 0.151929
H34   H     H_    0.163649 0.129354 0.593327 0.113067
H35   H     H_    0.944467 0.106734 0.631860 0.156282
H36   H     H_    0.111044 0.255673 0.820502 0.149120
O28   O     O_3   0.535845 0.693476 0.411120 -0.566963
C68   C     C_3   0.555374 0.755844 0.477907 -0.161494
H37   H     H_    0.553381 0.814669 0.469262 0.138887
H38   H     H_    0.688612 0.750272 0.508013 0.104134
H39   H     H_    0.431129 0.752738 0.512826 0.193470
H40   H     H_    0.129345 0.176840 0.902477 0.136950
H41   H     H_    0.705975 0.105284 0.826937 0.124473
H42   H     H_    0.683481 0.180384 0.741896 0.152435
H43   H     H_    0.593820 0.772680 0.321150 0.120633
H44   H     H_    0.591615 0.765591 0.199210 0.102551
H45   H     H_    0.610122 0.841664 0.115300 0.123188
H46   H     H_    0.219065 0.884578 0.162981 0.119486
H47   H     H_    0.199332 0.811805 0.249431 0.102882
H48   H     H_    0.617452 0.655076 0.932878 0.135853

loop_
_geom_bond_atom_site_label_1
_geom_bond_atom_site_label_2
_ccdc_geom_bond_type
C39   C40   A    
O22   C62   S    
O18   V4    S    
C53   C54   A    
C67   H34   S    
C61   H10   S    
C1    O6    A    
C19   O21   S    
C48   O26   S    
C51   H36   S    
O17   V4    S    
C61   H12   S    
O28   C68   S    
C37   C38   A    
C12   C13   A    
C23   C24   A    
C13   C59   S    
C42   O24   S    
C4    C7    S    
C7    C8    A    
C14   C15   A    
C21   C23   A    
O27   C67   S    
O5    C3    A    
C51   C56   A    
O12   C57   A    
O23   C63   S    
O11   C58   A    
C45   C50   A    
C62   H17   S    
C20   C21   A    
C27   C28   A    
C3    C23   S    
C65   H25   S    
O13   C60   A    
C29   H48   S    
C62   H15   S    
O8    V2    S    
C17   C18   A    
C48   C49   A    
C66   H32   S    
C9    C10   A    
O1    V2    S    
O16   V4    S    
O19   V4    S    
O7    V1    S    
O14   V3    S    
C57   O16   A    
C33   H21   S    
C64   H24   S    
O12   V3    S    
C18   H9    S    
C43   C44   A    
O1    C2    A    
C39   C44   A    
C1    C40   S    
C34   H7    S    
C63   H19   S    
C9    H43   S    
C49   C50   A    
C68   H39   S    
O24   C64   S    
O14   C58   A    
C30   H4    S    
C34   C35   A    
C65   H26   S    
C8    C9    A    
C5    C10   A    
C54   C55   A    
C35   C36   A    
C43   O23   S    
C31   H5    S    
C22   C26   A    
C24   C27   A    
C68   H38   S    
V4    O20   S    
O4    C2    A    
C52   C53   A    
C11   C12   A    
O17   V3    S    
C47   C48   A    
C35   C37   A    
C65   H27   S    
C12   H45   S    
O2    C1    A    
C55   C56   A    
C15   H47   S    
C15   C16   A    
C55   H42   S    
C32   H6    S    
C31   C32   A    
C63   H18   S    
C5    H1    S    
C27   H14   S    
C44   O25   S    
C45   H28   S    
C62   H16   S    
C31   C36   A    
O3    C4    A    
C32   C33   A    
C54   H41   S    
C45   C46   A    
O6    V2    S    
O9    V2    S    
C29   C30   A    
C50   C56   S    
C66   H30   S    
C63   H20   S    
C11   H44   S    
C28   C29   A    
O2    V1    S    
C28   O22   S    
C25   C26   A    
C41   H8    S    
C64   H22   S    
C11   C16   A    
C38   C39   A    
O11   V4    S    
C6    C7    A    
C46   H29   S    
C68   H37   S    
O5    V1    S    
O8    C3    A    
C61   H11   S    
C25   C30   A    
C20   H13   S    
C14   H46   S    
C8    O28   S    
C37   C58   S    
C18   C19   A    
C6    H2    S    
C67   H33   S    
C42   C43   A    
O4    V1    S    
O3    V1    S    
V1    O10   S    
O25   C65   S    
O15   V3    S    
C41   C42   A    
C24   C25   A    
O15   C59   A    
C5    C6    A    
C53   C57   S    
C19   C20   A    
C46   C47   A    
O7    V2    S    
O21   C61   S    
C10   C16   S    
C2    C47   S    
C67   H35   S    
C36   C40   A    
C52   H40   S    
C51   C52   A    
O18   C59   A    
C49   O27   S    
C33   C34   A    
C17   H3    S    
C13   C14   A    
C66   H31   S    
C17   C22   A    
V3    O20   S    
C21   C22   A    
C26   C60   S    
O19   C60   A    
O9    C4    A    
O13   V3    S    
V2    O10   S    
O26   C66   S    
C64   H23   S    
C38   C41   A    
