data_mof_unit_30475.cif
_audit_creation_date              2012-12-10T16:51:27-0500
_audit_creation_method            fapswitch 2.2
_symmetry_space_group_name_H-M    P1
_symmetry_Int_Tables_number       1
_space_group_crystal_system       triclinic
_cell_length_a                    7.889641
_cell_length_b                    8.569091
_cell_length_c                    12.476679
_cell_angle_alpha                 94.07412
_cell_angle_beta                  103.168129
_cell_angle_gamma                 93.108434
_cell_volume                      817.100794786

loop_
_atom_site_label
_atom_site_type_symbol
_atom_type_description
_atom_site_fract_x
_atom_site_fract_y
_atom_site_fract_z
_atom_type_partial_charge
C1    C     C_R   0.041694 0.793694 0.494667 0.932680
C2    C     C_R   0.189329 0.560063 0.825371 -0.107088
C3    C     C_2   0.061884 0.957573 0.494503 -0.467306
C4    C     C_R   0.111738 0.511112 0.709359 0.874967
C5    C     C_2   0.920181 0.039564 0.467321 0.025634
C6    C     C_R   0.951404 0.205234 0.492324 0.928694
C7    C     C_R   0.894382 0.503690 0.291942 0.864071
C8    C     C_R   0.895906 0.463749 0.993627 -0.264568
C9    C     C_R   0.849133 0.529154 0.174999 -0.099237
C10   C     C_R   0.117369 0.684907 0.873895 -0.260523
C11   C     C_R   0.220694 0.784783 0.958829 -0.155395
C12   C     C_R   0.460058 0.615336 0.966486 0.014765
C13   C     C_R   0.394716 0.756863 0.001978 0.208172
C14   C     C_3   0.234419 0.649726 0.218747 -0.667644
C15   C     C_3   0.603748 0.055844 0.374776 -0.755347
C16   C     C_3   0.657498 0.785996 0.645205 -0.697357
C17   C     C_3   0.745091 0.156619 0.808296 -0.865068
C18   C     C_3   0.572917 0.997993 0.014409 -0.794166
C19   C     C_R   0.361873 0.522722 0.872713 0.013700
C20   C     C_R   0.625017 0.567361 0.015259 0.051962
C21   C     C_R   0.718309 0.480252 0.950511 0.102186
C22   C     C_R   0.626850 0.401530 0.850344 0.200904
C23   C     C_R   0.445403 0.404449 0.822682 -0.274019
C24   C     C_R   0.683651 0.574470 0.129303 -0.342980
C25   C     C_R   0.967282 0.504432 0.105873 0.224114
H1    H     H_    0.986917 0.716551 0.838222 0.162267
H2    H     H_    0.469300 0.365024 0.424431 0.169926
H3    H     H_    0.421694 0.663730 0.618300 0.280913
H4    H     H_    0.619375 0.830731 0.721435 0.175803
H5    H     H_    0.679152 0.887588 0.598561 0.262760
H6    H     H_    0.778403 0.729141 0.672782 0.271586
H7    H     H_    0.655461 0.317166 0.697209 0.256260
H8    H     H_    0.618880 0.086663 0.797356 0.241628
H9    H     H_    0.821154 0.156555 0.894859 0.253833
H10   H     H_    0.821852 0.101931 0.753259 0.247006
H11   H     H_    0.976617 0.414390 0.942422 0.172616
H12   H     H_    0.224504 0.467691 0.094436 0.218927
H13   H     H_    0.595966 0.603679 0.181838 0.169571
H14   H     H_    0.594312 0.848630 0.138361 0.227754
H15   H     H_    0.644640 0.094534 0.074482 0.244347
H16   H     H_    0.466201 0.048339 0.955666 0.251444
H17   H     H_    0.664772 0.945470 0.969039 0.239966
H18   H     H_    0.167652 0.889489 0.987716 0.155970
H19   H     H_    0.373826 0.319749 0.757500 0.173482
H20   H     H_    0.192443 0.011511 0.530580 0.165412
H21   H     H_    0.321869 0.613894 0.294274 0.260848
H22   H     H_    0.137753 0.727034 0.242210 0.224278
H23   H     H_    0.316253 0.720897 0.178547 0.202838
H24   H     H_    0.766695 0.884434 0.340521 0.229867
H25   H     H_    0.492200 0.977918 0.325046 0.233097
H26   H     H_    0.628905 0.153208 0.324917 0.235874
H27   H     H_    0.566031 0.100570 0.451091 0.250464
N1    N     N_2   0.434800 0.456690 0.470850 -0.168693
N2    N     N_2   0.565200 0.543310 0.529150 -0.008156
N3    N     N_2   0.152414 0.510719 0.147838 -0.293831
N4    N     N_2   0.755973 0.966883 0.402646 -0.282292
N5    N     N_2   0.519565 0.679483 0.578655 -0.195294
N6    N     N_2   0.713192 0.314475 0.779980 -0.282851
N7    N     N_2   0.502681 0.879795 0.072486 -0.325677
O1    O     O_R   0.893060 0.738880 0.507150 -0.589250
O2    O     O_R   0.172250 0.711130 0.488470 -0.630846
O3    O     O_R   0.944700 0.520730 0.667600 -0.620794
O4    O     O_R   0.223890 0.492980 0.648920 -0.649564
O5    O     O_R   0.827750 0.288870 0.511530 -0.625748
O6    O     O_R   0.106940 0.261120 0.492850 -0.632979
O7    O     O_R   0.776110 0.507020 0.351080 -0.631427
O8    O     O_R   0.055300 0.479270 0.332400 -0.589527
Zn1   Zn    Zn3+2 0.813580 0.518530 0.512470 0.934373
Zn2   Zn    Zn3+2 0.186420 0.481470 0.487530 0.922670

loop_
_geom_bond_atom_site_label_1
_geom_bond_atom_site_label_2
_ccdc_geom_bond_type
C22   N6    S    
C2    C10   A    
C2    C4    S    
H2    N1    S    
C9    C24   A    
C11   H18   S    
C14   H22   S    
C13   N7    S    
O3    Zn1   S    
H24   N4    S    
C5    N4    S    
O7    Zn1   S    
H7    N6    S    
C17   N6    S    
C3    C5    D    
N1    Zn2   S    
C15   N4    S    
C12   C20   A    
C14   N3    S    
C2    C19   A    
C9    C25   A    
C14   H21   S    
H3    N5    S    
C15   H27   S    
C12   C13   A    
C16   H6    S    
C8    C25   A    
C11   C13   A    
C4    O4    A    
C10   H1    S    
C17   H9    S    
C17   H8    S    
O6    Zn2   S    
O5    Zn1   S    
C12   C19   A    
C6    O6    A    
C3    H20   S    
C8    C21   A    
C15   H26   S    
C16   N5    S    
C18   H17   S    
O4    Zn2   S    
C5    C6    S    
C15   H25   S    
N2    Zn1   S    
C10   C11   A    
C18   H16   S    
C16   H5    S    
C24   H13   S    
H12   N3    S    
C4    O3    A    
C18   N7    S    
C20   C21   A    
O1    Zn1   S    
H14   N7    S    
C8    H11   S    
C1    O1    A    
O2    Zn2   S    
C7    C9    S    
C18   H15   S    
C19   C23   A    
C14   H23   S    
C7    O7    A    
C17   H10   S    
O8    Zn2   S    
C16   H4    S    
C21   C22   A    
C7    O8    A    
C20   C24   A    
C22   C23   A    
C23   H19   S    
C25   N3    S    
N1    N2    D    
C6    O5    A    
C1    C3    S    
N2    N5    S    
C1    O2    A    
