data_mof_unit_47990.cif
_audit_creation_date              2012-12-11T14:29:40-0500
_audit_creation_method            fapswitch 2.2
_symmetry_space_group_name_H-M    P1
_symmetry_Int_Tables_number       1
_space_group_crystal_system       triclinic
_cell_length_a                    6.9446
_cell_length_b                    14.767473
_cell_length_c                    16.27467
_cell_angle_alpha                 90.561204
_cell_angle_beta                  89.983426
_cell_angle_gamma                 89.875879
_cell_volume                      1668.95158915

loop_
_atom_site_label
_atom_site_type_symbol
_atom_type_description
_atom_site_fract_x
_atom_site_fract_y
_atom_site_fract_z
_atom_type_partial_charge
O1    O     O_R   0.494400 0.416610 0.413880 -0.515868
O2    O     O_R   0.823920 0.406790 0.585520 -0.491966
O3    O     O_R   0.994250 0.583390 0.586120 -0.533456
C1    C     C_R   0.655698 0.386322 0.614053 0.816361
O4    O     O_R   0.824110 0.405730 0.414490 -0.550379
O5    O     O_R   0.994440 0.582310 0.413870 -0.550991
C2    C     C_R   0.655730 0.384895 0.385488 0.700847
O6    O     O_R   0.494210 0.417690 0.586130 -0.529172
O7    O     O_3   0.660810 0.557940 0.500000 -0.397397
V1    V     V_3+5 0.935650 0.489250 0.500000 1.598290
O8    O     O_R   0.324160 0.593210 0.414480 -0.549890
C3    C     C_R   0.155673 0.612987 0.385192 0.724514
O9    O     O_R   0.323970 0.594270 0.585510 -0.544177
C4    C     C_R   0.155310 0.614736 0.615028 0.780103
V2    V     V_3+5 0.435660 0.510750 0.500000 1.550472
O10   O     O_3   0.160630 0.442060 0.500000 -0.335691
H1    H     H_    0.327308 0.913981 0.515228 0.143186
C5    C     C_R   0.057777 0.559649 0.787863 0.338080
C6    C     C_R   0.994829 0.537770 0.866706 -0.090633
C7    C     C_R   0.971535 0.604008 0.926546 -0.174866
C8    C     C_R   0.013453 0.693482 0.909188 -0.146828
C9    C     C_R   0.073916 0.719785 0.829912 0.035891
C10   C     C_R   0.092210 0.652370 0.766174 -0.006821
C11   C     C_R   0.120435 0.811754 0.814942 -0.158033
C12   C     C_R   0.180208 0.837826 0.735445 0.067670
C13   C     C_R   0.190288 0.772702 0.670477 0.055704
C14   C     C_R   0.146475 0.680198 0.685218 -0.175954
C15   C     C_R   0.226346 0.929139 0.718629 -0.150680
C16   C     C_R   0.279742 0.955897 0.640093 -0.073148
C17   C     C_R   0.287209 0.892806 0.576383 -0.092951
C18   C     C_R   0.242653 0.802438 0.590922 -0.148372
H2    H     H_    0.967338 0.467880 0.882541 0.164603
H3    H     H_    0.924857 0.585568 0.987612 0.150178
H4    H     H_    0.998645 0.741581 0.959306 0.116902
H5    H     H_    0.220731 0.981055 0.765741 0.133819
H6    H     H_    0.314199 0.026111 0.628553 0.158108
H7    H     H_    0.249185 0.756621 0.538760 0.097355
C19   C     C_2   0.989988 0.709945 0.282542 -0.122669
C20   C     C_2   0.152290 0.673652 0.313632 -0.272536
H8    H     H_    0.851805 0.692016 0.308992 0.150747
H9    H     H_    0.289434 0.685240 0.283785 0.151073
C21   C     C_2   0.986749 0.768416 0.208098 -0.165781
C22   C     C_2   0.124183 0.829102 0.187468 -0.180999
H10   H     H_    0.859896 0.762440 0.169401 0.143858
C23   C     C_2   0.769246 0.195906 0.767056 -0.102370
C24   C     C_2   0.611127 0.169684 0.809039 -0.385739
H11   H     H_    0.471697 0.190144 0.785596 0.182627
C25   C     C_2   0.751049 0.249726 0.690653 0.338425
C26   C     C_2   0.650508 0.328552 0.687307 -0.240871
C27   C     C_2   0.773170 0.207778 0.214429 -0.103303
C28   C     C_2   0.610804 0.171059 0.184359 -0.235439
H12   H     H_    0.910263 0.191373 0.185603 0.145393
H13   H     H_    0.475100 0.181537 0.216176 0.184452
C29   C     C_2   0.777769 0.262079 0.291717 -0.117595
C30   C     C_2   0.645585 0.327565 0.310434 0.208597
O11   O     O_R   0.770210 0.079270 0.910680 -0.540194
O12   O     O_R   0.440150 0.091160 0.082270 -0.540507
O13   O     O_R   0.269970 0.914530 0.082860 -0.541560
C31   C     C_R   0.608110 0.111017 0.111762 0.742725
O14   O     O_R   0.440480 0.090100 0.911240 -0.525687
O15   O     O_R   0.270310 0.913460 0.910610 -0.539290
C32   C     C_R   0.608819 0.109675 0.881617 0.779598
O16   O     O_R   0.769870 0.080340 0.082930 -0.543093
O17   O     O_3   0.603660 0.938980 0.996790 -0.378422
V3    V     V_3+5 0.328750 0.007610 0.996740 1.487151
O18   O     O_R   0.940600 0.902510 0.911180 -0.542008
C33   C     C_R   0.109605 0.880659 0.882770 0.690298
O19   O     O_R   0.940270 0.903570 0.082200 -0.545450
C34   C     C_R   0.109300 0.884669 0.112305 0.684611
V4    V     V_3+5 0.828770 0.986010 0.996670 1.457539
O20   O     O_3   0.103730 0.054750 0.996710 -0.362389
C35   C     C_1   0.284829 0.849244 0.241558 0.325137
N1    N     N_1   0.413128 0.865778 0.284516 -0.371299
C36   C     C_1   0.961002 0.169911 0.791474 0.451140
N2    N     N_1   0.114620 0.149340 0.811197 -0.368563
Cl1   Cl    Cl    0.872914 0.206812 0.602922 -0.624365
C37   C     C_1   0.560246 0.366989 0.759959 0.338973
N3    N     N_1   0.489719 0.397675 0.818376 -0.288887
C38   C     C_1   0.936563 0.242162 0.346359 0.341735
N4    N     N_1   0.063736 0.226125 0.389852 -0.264315
Cl2   Cl    Cl    0.103143 0.464029 0.724954 -0.661478
Cl3   Cl    Cl    0.463615 0.359489 0.240046 -0.654079

loop_
_geom_bond_atom_site_label_1
_geom_bond_atom_site_label_2
_ccdc_geom_bond_type
C22   C35   S    
C25   Cl1   S    
C6    C7    A    
C2    C30   S    
C1    O6    A    
C20   H9    S    
O18   V4    S    
C37   N3    T    
C12   C15   A    
C16   H6    S    
C13   C14   A    
C27   C29   S    
C24   C32   S    
C15   C16   A    
C19   C21   S    
O5    C3    A    
C17   C18   A    
O12   C31   A    
V2    O10   S    
C5    Cl2   S    
O14   C32   A    
C5    C6    A    
C11   C33   S    
C24   H11   S    
O8    V2    S    
C15   H5    S    
O19   C34   A    
C27   H12   S    
V4    O20   S    
O1    V2    S    
O17   V4    S    
C4    C14   S    
O7    V1    S    
O18   C33   A    
C13   C18   A    
C22   C34   S    
O9    C4    A    
H1    C17   S    
C21   H10   S    
C6    H2    S    
C10   C14   A    
C36   N2    T    
C5    C10   A    
C11   C12   A    
O4    C2    A    
C8    H4    S    
C12   C13   A    
C23   C24   D    
C18   H7    S    
C23   C36   S    
C28   H13   S    
O2    C1    A    
C16   C17   A    
O15   C33   A    
O13   V3    S    
O16   V4    S    
C27   C28   D    
C30   Cl3   S    
O3    C4    A    
C7    H3    S    
C25   C26   D    
O14   V3    S    
O6    V2    S    
O11   V4    S    
O9    V2    S    
O11   C32   A    
C28   C31   S    
C21   C22   D    
O2    V1    S    
C29   C38   S    
C23   C25   S    
C29   C30   D    
O1    C2    A    
O12   V3    S    
C35   N1    T    
O5    V1    S    
O8    C3    A    
O13   C34   A    
C31   O16   A    
C1    C26   S    
O17   V3    S    
C3    C20   S    
O7    V2    S    
O4    V1    S    
O3    V1    S    
V3    O20   S    
C19   H8    S    
C19   C20   D    
C26   C37   S    
C9    C11   A    
C38   N4    T    
O15   V3    S    
C7    C8    A    
O19   V4    S    
C9    C10   A    
V1    O10   S    
C8    C9    A    
