data_mof_unit_5836.cif
_audit_creation_date              2013-03-05T16:09:56-0500
_audit_creation_method            fapswitch 2.2
_symmetry_space_group_name_H-M    P1
_symmetry_Int_Tables_number       1
_space_group_crystal_system       triclinic
_cell_length_a                    10.71974
_cell_length_b                    9.895179
_cell_length_c                    10.625254
_cell_angle_alpha                 89.96933
_cell_angle_beta                  90.590074
_cell_angle_gamma                 90.054214
_cell_volume                      1127.00006553

loop_
_atom_site_label
_atom_site_type_symbol
_atom_site_description
_atom_site_fract_x
_atom_site_fract_y
_atom_site_fract_z
_atom_type_partial_charge
O1    O     O_R   0.316770 0.614620 0.499990 -0.645061
O2    O     O_R   0.683230 0.614620 0.500010 -0.624847
O3    O     O_R   0.316800 0.385290 0.500000 -0.585383
O4    O     O_R   0.683200 0.385290 0.500000 -0.590790
C1    C     C_R   0.260055 0.499916 0.500110 0.845600
C2    C     C_R   0.739960 0.499997 0.500141 0.874845
O5    O     O_R   0.500010 0.614690 0.316770 -0.632197
O6    O     O_R   0.499990 0.614690 0.683230 -0.629208
O7    O     O_R   0.500040 0.385360 0.316770 -0.567022
O8    O     O_R   0.499960 0.385360 0.683230 -0.566637
C3    C     C_R   0.496318 0.500028 0.260585 0.871238
C4    C     C_R   0.496510 0.499993 0.739392 0.869224
Zn1   Zn    Zn3+2 0.500000 0.653120 0.500000 0.951657
Zn2   Zn    Zn3+2 0.500000 0.346880 0.500000 1.055934
H1    H     H_    0.657738 0.382842 0.115990 0.159211
H2    H     H_    0.658316 0.383709 0.887822 0.200039
C5    C     C_R   0.286964 0.623872 0.128982 -0.155634
C6    C     C_R   0.286782 0.623330 0.866550 -0.161145
H3    H     H_    0.281754 0.623470 0.230537 0.143997
H4    H     H_    0.281437 0.622522 0.764918 0.145704
C7    C     C_R   0.189057 0.684067 0.062195 -0.106531
C8    C     C_R   0.188928 0.683723 0.931212 -0.108219
H5    H     H_    0.112463 0.729902 0.112245 0.147953
H6    H     H_    0.112205 0.729233 0.879497 0.147252
C9    C     C_R   0.387701 0.563403 0.932871 0.093324
C10   C     C_R   0.387732 0.563573 0.064818 0.105907
C11   C     C_R   0.487736 0.499646 0.128262 -0.080491
C12   C     C_R   0.487842 0.499606 0.871598 -0.110350
C13   C     C_R   0.582395 0.432662 0.065272 -0.157713
C14   C     C_R   0.582610 0.432948 0.936751 -0.125025
C15   C     C_R   0.063731 0.376774 0.496930 -0.143267
C16   C     C_R   0.936022 0.376825 0.496569 -0.156278
H7    H     H_    0.111917 0.280641 0.494126 0.190996
H8    H     H_    0.887561 0.280728 0.493056 0.188700
C17   C     C_R   0.872544 0.500038 0.500454 -0.025584
C18   C     C_R   0.127527 0.499942 0.500595 -0.023657
C19   C     C_R   0.936344 0.623232 0.504699 -0.186310
C20   C     C_R   0.064089 0.623189 0.504671 -0.211381
H9    H     H_    0.888079 0.719334 0.508018 0.171415
H10   H     H_    0.112627 0.719273 0.507903 0.170291
C21   C     C_R   0.551487 0.070612 0.598613 0.313378
C22   C     C_R   0.448605 0.070631 0.401275 0.299936
C23   C     C_R   0.550041 0.927334 0.598346 -0.145156
C24   C     C_R   0.449927 0.927326 0.401629 -0.146862
H11   H     H_    0.591111 0.872275 0.676400 0.183674
H12   H     H_    0.408931 0.872245 0.323529 0.179222
N1    N     N_R   0.500000 0.857200 0.500000 -0.123568
N2    N     N_R   0.500000 0.142810 0.500000 -0.191705
N3    N     N_R   0.608851 0.137985 0.703011 0.219431
O9    O     O_R   0.711495 0.205322 0.686429 -0.410477
O10   O     O_R   0.577161 0.105080 0.816870 -0.381250
N4    N     N_R   0.392283 0.138034 0.296246 0.225380
O11   O     O_R   0.424641 0.104991 0.182669 -0.369758
O12   O     O_R   0.290558 0.207032 0.311886 -0.392804

loop_
_geom_bond_atom_site_label_1
_geom_bond_atom_site_label_2
_geom_bond_distance
_ccdc_geom_bond_type
C22   N2    1.379185 A    
O5    C3    1.282735 A    
O7    Zn2   1.983556 S    
C15   H7    1.083451 S    
C16   H8    1.083590 S    
C13   C14   1.365597 A    
C11   C13   1.390205 A    
C21   C23   1.417837 A    
C16   C17   1.397651 A    
O6    Zn1   1.983457 S    
C15   C16   1.368971 A    
C24   N1    1.360329 A    
C3    C11   1.408036 S    
O6    C4    1.282671 A    
C18   C20   1.397808 A    
C19   H9    1.083769 S    
C6    C9    1.415495 A    
C7    C8    1.391721 A    
N4    O11   1.301073 A    
C9    C12   1.410978 A    
C20   H10   1.083789 S    
C23   H11   1.082084 S    
C10   C11   1.410574 A    
O2    C2    1.287463 A    
O3    Zn2   2.000651 S    
C22   C24   1.418112 A    
C4    C12   1.408752 S    
O1    C1    1.287087 A    
C5    C10   1.415800 A    
O8    C4    1.282723 A    
C12   C14   1.390187 A    
C5    H3    1.081068 S    
C19   C20   1.369401 A    
N4    O12   1.299287 A    
H1    C13   1.085005 S    
C6    H4    1.080828 S    
O7    C3    1.282307 A    
C7    H5    1.082871 S    
O4    Zn2   1.999944 S    
C8    H6    1.082716 S    
O1    Zn1   2.000427 S    
H2    C14   1.084434 S    
C1    C18   1.420732 S    
O3    C1    1.287574 A    
O5    Zn1   1.983858 S    
C2    C17   1.421232 S    
O4    C2    1.287335 A    
N3    O9    1.299308 A    
O8    Zn2   1.983955 S    
C21   N3    1.427938 S    
Zn1   N1    2.019408 S    
O2    Zn1   2.001134 S    
C15   C18   1.397333 A    
Zn2   N2    2.019310 S    
C17   C19   1.397730 A    
C9    C10   1.401964 A    
C6    C8    1.394972 A    
C23   N1    1.360081 A    
C21   N2    1.378732 A    
C5    C7    1.394735 A    
C24   H12   1.082283 S    
N3    O10   1.301077 A    
C22   N4    1.428575 S    
