data_mof_unit_40825.cif
_audit_creation_date              2012-10-26T20:51:09-0400
_audit_creation_method            fapswitch 2.2
_symmetry_space_group_name_H-M    P1
_symmetry_Int_Tables_number       1
_space_group_crystal_system       triclinic
_cell_length_a                    12.999772
_cell_length_b                    10.798901
_cell_length_c                    9.541271
_cell_angle_alpha                 90.057176
_cell_angle_beta                  95.985627
_cell_angle_gamma                 89.927661
_cell_volume                      1332.1305903

loop_
_atom_site_label
_atom_site_type_symbol
_atom_type_description
_atom_site_fract_x
_atom_site_fract_y
_atom_site_fract_z
_atom_type_partial_charge
C1    C     C_R   0.499489 0.262569 0.499971 0.545662
C2    C     C_R   0.423300 0.937908 0.396176 0.211527
C3    C     C_R   0.487733 0.871148 0.499437 -0.003572
C4    C     C_R   0.300528 0.499358 0.473860 0.577923
C5    C     C_R   0.541958 0.935875 0.610249 -0.015524
C6    C     C_3   0.653779 0.927598 0.665194 -0.274459
C7    C     C_3   0.655038 0.067985 0.667353 -0.259461
C8    C     C_R   0.584719 0.539940 0.085727 0.154877
C9    C     C_R   0.421079 0.448300 0.063193 0.018602
C10   C     C_R   0.421168 0.448079 0.914361 0.005584
C11   C     C_R   0.584402 0.540577 0.938348 0.153978
C12   C     C_R   0.027900 0.501013 0.567615 0.050839
C13   C     C_3   0.630854 0.666636 0.939917 -0.276218
C14   C     C_3   0.633067 0.665028 0.099323 -0.267753
C15   C     C_R   0.496108 0.737579 0.499329 0.584231
C16   C     C_R   0.699462 0.500315 0.526161 0.534968
C17   C     C_R   0.812204 0.500802 0.541235 -0.000135
C18   C     C_R   0.187761 0.499346 0.458800 0.024653
C19   C     C_R   0.024468 0.498657 0.311543 -0.123056
C20   C     C_R   0.131966 0.498366 0.324666 -0.092304
C21   C     C_R   0.135319 0.500736 0.579846 -0.118548
C22   C     C_R   0.972059 0.499866 0.432408 0.048342
C23   C     C_R   0.864647 0.499772 0.420182 -0.126985
C24   C     C_R   0.867986 0.502216 0.675365 -0.135898
C25   C     C_R   0.975485 0.502316 0.688479 -0.129005
C26   C     C_R   0.543500 0.063248 0.611605 0.019538
C27   C     C_R   0.492680 0.129714 0.500535 -0.029948
C28   C     C_R   0.428226 0.067580 0.396621 -0.140922
Cu1   Cu    Cu3+1 0.499990 0.499980 0.640670 0.960111
Cu2   Cu    Cu3+1 0.500010 0.500020 0.359330 1.002346
H1    H     H_    0.822154 0.498610 0.316165 0.118169
H2    H     H_    0.582118 0.735995 0.140355 0.196773
H3    H     H_    0.828694 0.503128 0.770038 0.126166
H4    H     H_    0.982435 0.497884 0.207279 0.103978
H5    H     H_    0.017509 0.503287 0.792744 0.109617
H6    H     H_    0.171268 0.497468 0.229998 0.141828
H7    H     H_    0.177826 0.501632 0.683870 0.121876
H8    H     H_    0.382591 0.120365 0.316065 0.145414
H9    H     H_    0.665932 0.886944 0.772329 0.138905
H10   H     H_    0.281301 0.006282 0.117166 0.339567
H11   H     H_    0.702219 0.886762 0.587442 0.135744
H12   H     H_    0.666420 0.107424 0.775521 0.148171
H13   H     H_    0.704513 0.109128 0.591223 0.137981
H14   H     H_    0.356445 0.408104 0.109561 0.108140
H15   H     H_    0.356627 0.407497 0.849753 0.113877
H16   H     H_    0.709138 0.666237 0.902900 0.116719
H17   H     H_    0.576218 0.736482 0.889321 0.168983
H18   H     H_    0.712729 0.661488 0.154256 0.115241
N1    N     N_R   0.500660 0.500930 0.148010 -0.217113
N2    N     N_R   0.500660 0.500890 0.852110 -0.230297
O1    O     O_R   0.500000 0.319640 0.618810 -0.497284
O2    O     O_2   0.276513 0.765921 0.338865 -0.247016
O3    O     O_3   0.247799 0.968502 0.195359 -0.513077
O4    O     O_R   0.500010 0.319680 0.381230 -0.515551
O5    O     O_R   0.348990 0.499960 0.599490 -0.517407
O6    O     O_R   0.349000 0.500000 0.361910 -0.484416
O7    O     O_R   0.499990 0.680320 0.618770 -0.501086
O8    O     O_R   0.500000 0.680360 0.381190 -0.450213
O9    O     O_R   0.651000 0.500000 0.638090 -0.511932
O10   O     O_R   0.651010 0.500040 0.400510 -0.517025
O11   O     O_2   0.390358 0.807250 0.155914 -0.303442
S1    S     S_3+6 0.334003 0.865105 0.269213 0.019315

loop_
_geom_bond_atom_site_label_1
_geom_bond_atom_site_label_2
_ccdc_geom_bond_type
C8    C14   S    
C1    O4    A    
C6    C7    S    
C7    H13   S    
C18   C21   A    
C1    O1    A    
O3    S1    S    
C19   C20   A    
C28   H8    S    
C12   C25   A    
C3    C5    A    
C4    C18   S    
Cu2   O4    S    
C10   H15   S    
C2    C3    A    
C21   H7    S    
C11   N2    A    
O2    S1    D    
C13   C14   S    
C4    O6    A    
C2    S1    S    
C15   O7    A    
C26   C27   A    
C17   C23   A    
C7    C26   S    
C12   C21   A    
C25   H5    S    
C8    C11   A    
C5    C6    S    
Cu2   O8    S    
Cu2   O10   S    
Cu2   N1    S    
Cu1   O7    S    
C16   O9    A    
C18   C20   A    
Cu1   N2    S    
C22   C23   A    
C4    O5    A    
C16   O10   A    
O11   S1    D    
C15   O8    A    
C12   C22   A    
C17   C24   A    
Cu1   O1    S    
Cu1   Cu2   S    
C5    C26   A    
C10   N2    A    
Cu1   O9    S    
C11   C13   S    
C19   C22   A    
C9    N1    A    
C24   C25   A    
C13   H17   S    
H10   O3    S    
C9    C10   A    
C7    H12   S    
C27   C28   A    
C1    C27   S    
C14   H18   S    
C13   H16   S    
C3    C15   S    
C2    C28   A    
Cu1   O5    S    
C23   H1    S    
C6    H9    S    
Cu2   O6    S    
C8    N1    A    
C19   H4    S    
C24   H3    S    
C14   H2    S    
C16   C17   S    
C9    H14   S    
C6    H11   S    
C20   H6    S    
