data_mof_unit_29719.cif
_audit_creation_date              2012-10-26T19:09:52-0400
_audit_creation_method            fapswitch 2.2
_symmetry_space_group_name_H-M    P1
_symmetry_Int_Tables_number       1
_space_group_crystal_system       triclinic
_cell_length_a                    15.102584
_cell_length_b                    15.361705
_cell_length_c                    9.418003
_cell_angle_alpha                 89.916435
_cell_angle_beta                  90.092403
_cell_angle_gamma                 89.963081
_cell_volume                      2184.98463696

loop_
_atom_site_label
_atom_site_type_symbol
_atom_type_description
_atom_site_fract_x
_atom_site_fract_y
_atom_site_fract_z
_atom_type_partial_charge
C1    C     C_R   0.120098 0.379742 0.499898 0.570812
C2    C     C_R   0.880549 0.620383 0.499749 0.547566
C3    C     C_R   0.379975 0.880126 0.500225 0.526906
C4    C     C_R   0.380553 0.120387 0.499750 0.547554
C5    C     C_3   0.795983 0.277437 0.654536 -0.233110
C6    C     C_3   0.840875 0.234525 0.406304 -0.245209
C7    C     C_3   0.836307 0.761041 0.606549 -0.207523
C8    C     C_3   0.803444 0.730191 0.348998 -0.229856
C9    C     C_3   0.295980 0.777441 0.654541 -0.233085
C10   C     C_3   0.340884 0.734514 0.406320 -0.245277
C11   C     C_3   0.336273 0.261010 0.606647 -0.207415
C12   C     C_R   0.120345 0.620030 0.500185 0.663884
C13   C     C_3   0.303499 0.230245 0.349031 -0.229819
C14   C     C_3   0.230930 0.700044 0.653721 -0.031746
C15   C     C_3   0.264822 0.667639 0.391387 -0.040372
C16   C     C_3   0.260818 0.328514 0.618216 -0.040658
C17   C     C_3   0.237215 0.306747 0.350965 -0.019166
C18   C     C_3   0.730929 0.200045 0.653717 -0.031727
C19   C     C_3   0.764821 0.167635 0.391398 -0.040343
C20   C     C_3   0.760836 0.828527 0.618163 -0.040660
C21   C     C_3   0.737173 0.806703 0.350938 -0.019151
C22   C     C_3   0.722412 0.349545 0.443781 -0.237122
C23   C     C_R   0.620095 0.879738 0.499899 0.570936
C24   C     C_3   0.721514 0.648527 0.542703 -0.180553
C25   C     C_3   0.222417 0.849539 0.443766 -0.237113
C26   C     C_3   0.221507 0.148519 0.542599 -0.180571
C27   C     C_3   0.810979 0.311686 0.501018 -0.015414
C28   C     C_3   0.811583 0.688786 0.499191 -0.035960
C29   C     C_3   0.310982 0.811682 0.501019 -0.015398
C30   C     C_3   0.311588 0.188793 0.499197 -0.035985
C31   C     C_3   0.189282 0.689541 0.500617 0.171833
C32   C     C_3   0.189139 0.310250 0.499527 0.124373
C33   C     C_3   0.689280 0.189545 0.500617 0.171875
C34   C     C_R   0.620342 0.120033 0.500185 0.663934
C35   C     C_3   0.689131 0.810241 0.499527 0.124418
C36   C     C_3   0.146256 0.780448 0.455969 0.146326
C37   C     C_3   0.145301 0.216672 0.526729 0.145405
C38   C     C_3   0.646254 0.280450 0.455966 0.146304
C39   C     C_3   0.645300 0.716669 0.526805 0.145380
C40   C     C_3   0.955239 0.577687 0.083461 0.348733
C41   C     C_3   0.955370 0.577781 0.915851 0.345653
C42   C     C_3   0.955485 0.422227 0.084002 0.345390
C43   C     C_3   0.955428 0.422277 0.916422 0.347129
C44   C     C_3   0.455242 0.077689 0.083461 0.348744
C45   C     C_3   0.092679 0.500003 0.083956 -0.091324
C46   C     C_3   0.455375 0.077784 0.915850 0.345657
C47   C     C_3   0.455481 0.922230 0.084002 0.345397
C48   C     C_3   0.455422 0.922280 0.916423 0.347124
C49   C     C_3   0.092645 0.500033 0.916512 -0.098560
C50   C     C_3   0.592679 0.999999 0.083956 -0.091339
C51   C     C_3   0.592645 0.000027 0.916512 -0.098559
C52   C     C_R   0.879973 0.380129 0.500225 0.526902
Cu1   Cu    Cu3+1 0.000100 0.500000 0.642410 1.010078
Cu2   Cu    Cu3+1 0.000100 0.500000 0.357590 1.032227
Cu3   Cu    Cu3+1 0.500100 0.000000 0.642410 1.010089
Cu4   Cu    Cu3+1 0.500100 0.000000 0.357590 1.032219
F1    F     F_    0.993801 0.653319 0.134399 -0.580465
F2    F     F_    0.994286 0.653387 0.864917 -0.588949
F3    F     F_    0.994503 0.346657 0.135215 -0.605815
F4    F     F_    0.994354 0.346708 0.866114 -0.610175
F5    F     F_    0.493808 0.153320 0.134401 -0.580454
F6    F     F_    0.494297 0.153387 0.864918 -0.588946
F7    F     F_    0.494496 0.846657 0.135214 -0.605811
F8    F     F_    0.494342 0.846708 0.866115 -0.610196
H1    H     H_    0.768396 0.330526 0.721625 0.104836
H2    H     H_    0.900879 0.204653 0.454240 0.141610
H3    H     H_    0.898847 0.792560 0.571647 0.174938
H4    H     H_    0.869680 0.751837 0.311074 0.187177
H5    H     H_    0.360228 0.758914 0.704136 0.181699
H6    H     H_    0.400870 0.704621 0.454286 0.141642
H7    H     H_    0.398843 0.292522 0.571863 0.175067
H8    H     H_    0.369747 0.251908 0.311190 0.187140
H9    H     H_    0.177047 0.715047 0.730359 0.187625
H10   H     H_    0.237625 0.674983 0.282640 0.137715
H11   H     H_    0.230630 0.321656 0.724979 0.121922
H12   H     H_    0.859814 0.257734 0.298549 0.167334
H13   H     H_    0.187197 0.294665 0.266388 0.165662
H14   H     H_    0.677050 0.215046 0.730363 0.187621
H15   H     H_    0.737624 0.174964 0.282647 0.137600
H16   H     H_    0.730684 0.821657 0.724951 0.121824
H17   H     H_    0.687135 0.794617 0.266393 0.165701
H18   H     H_    0.705191 0.409833 0.503146 0.101854
H19   H     H_    0.732029 0.370481 0.331703 0.107257
H20   H     H_    0.726345 0.625083 0.654434 0.121947
H21   H     H_    0.707935 0.589491 0.477708 0.115699
H22   H     H_    0.205196 0.909835 0.503112 0.101851
H23   H     H_    0.848893 0.733050 0.713782 0.161628
H24   H     H_    0.232037 0.870461 0.331681 0.107259
H25   H     H_    0.226307 0.125023 0.654305 0.121932
H26   H     H_    0.207945 0.089513 0.477525 0.115698
H27   H     H_    0.885127 0.578061 0.119427 0.047850
H28   H     H_    0.885283 0.578379 0.879337 0.050613
H29   H     H_    0.885398 0.421612 0.120161 0.052559
H30   H     H_    0.885339 0.421709 0.879999 0.052581
H31   H     H_    0.385130 0.078066 0.119425 0.047842
H32   H     H_    0.385288 0.078387 0.879336 0.050607
H33   H     H_    0.385394 0.921618 0.120163 0.052562
H34   H     H_    0.780124 0.680345 0.271862 0.108062
H35   H     H_    0.385333 0.921718 0.880000 0.052579
H36   H     H_    0.129979 0.557652 0.122596 0.161639
H37   H     H_    0.129477 0.557920 0.878268 0.166094
H38   H     H_    0.129896 0.442228 0.122529 0.167987
H39   H     H_    0.130136 0.442502 0.877909 0.153261
H40   H     H_    0.629981 0.057647 0.122594 0.161592
H41   H     H_    0.629485 0.057909 0.878264 0.166115
H42   H     H_    0.629893 0.942223 0.122531 0.167989
H43   H     H_    0.630131 0.942492 0.877913 0.153230
H44   H     H_    0.272263 0.620439 0.816500 0.214704
H45   H     H_    0.268384 0.830533 0.721617 0.104824
H46   H     H_    0.340253 0.618089 0.678453 0.243670
H47   H     H_    0.316851 0.558164 0.299482 0.230717
H48   H     H_    0.351957 0.570975 0.464519 0.253978
H49   H     H_    0.247642 0.460965 0.638437 0.283780
H50   H     H_    0.345819 0.423474 0.689153 0.223759
H51   H     H_    0.290670 0.390769 0.204484 0.204706
H52   H     H_    0.343454 0.392888 0.360373 0.264919
H53   H     H_    0.772355 0.120480 0.816483 0.214686
H54   H     H_    0.840227 0.118051 0.678282 0.243804
H55   H     H_    0.816582 0.058034 0.299506 0.230807
H56   H     H_    0.359848 0.757716 0.298570 0.167353
H57   H     H_    0.852107 0.071013 0.464245 0.253826
H58   H     H_    0.747640 0.960945 0.638707 0.283665
H59   H     H_    0.845944 0.923467 0.688864 0.223698
H60   H     H_    0.790628 0.890685 0.204398 0.204677
H61   H     H_    0.843424 0.892831 0.360278 0.264899
H62   H     H_    0.112900 0.832782 0.654203 0.214955
H63   H     H_    0.044403 0.860887 0.525814 0.220302
H64   H     H_    0.061156 0.828836 0.300522 0.229387
H65   H     H_    0.142572 0.770429 0.233219 0.222514
H66   H     H_    0.125169 0.232226 0.746583 0.247174
H67   H     H_    0.348793 0.232982 0.713874 0.161533
H68   H     H_    0.034940 0.253807 0.644242 0.288270
H69   H     H_    0.046709 0.241656 0.376536 0.262734
H70   H     H_    0.123331 0.169370 0.319593 0.220095
H71   H     H_    0.612883 0.332772 0.654201 0.214970
H72   H     H_    0.544393 0.360882 0.525801 0.220338
H73   H     H_    0.561168 0.328840 0.300503 0.229388
H74   H     H_    0.642589 0.270430 0.233218 0.222515
H75   H     H_    0.625180 0.732297 0.746649 0.247202
H76   H     H_    0.534937 0.753812 0.644304 0.288292
H77   H     H_    0.546701 0.741617 0.376612 0.262655
H78   H     H_    0.280211 0.180420 0.271832 0.108120
H79   H     H_    0.623311 0.669305 0.319711 0.220085
H80   H     H_    0.860233 0.258898 0.704112 0.181694
N1    N     N_3   0.001260 0.500000 0.143650 -0.266423
N2    N     N_3   0.795874 0.077068 0.400765 -0.592885
N3    N     N_3   0.797155 0.916939 0.610559 -0.622606
N4    N     N_3   0.780502 0.889265 0.314254 -0.597700
N5    N     N_3   0.081225 0.808165 0.564199 -0.599766
N6    N     N_3   0.098896 0.772820 0.318836 -0.527105
N7    N     N_3   0.090446 0.213793 0.655807 -0.583517
N8    N     N_3   0.087381 0.190097 0.407988 -0.618686
N9    N     N_3   0.581214 0.308161 0.564187 -0.599779
N10   N     N_3   0.598904 0.272823 0.318825 -0.527107
N11   N     N_3   0.590457 0.713819 0.655898 -0.583474
N12   N     N_3   0.001260 0.500000 0.856350 -0.263027
N13   N     N_3   0.587369 0.690062 0.408097 -0.618707
N14   N     N_3   0.501260 1.000000 0.143650 -0.266419
N15   N     N_3   0.501260 0.000000 0.856350 -0.263027
N16   N     N_3   0.273284 0.619825 0.705440 -0.649442
N17   N     N_3   0.295873 0.577073 0.400686 -0.592950
N18   N     N_3   0.297179 0.416911 0.610649 -0.622925
N19   N     N_3   0.280536 0.389322 0.314338 -0.597597
N20   N     N_3   0.773286 0.119827 0.705423 -0.649322
O1    O     O_R   0.091250 0.408820 0.620260 -0.506646
O2    O     O_R   0.908940 0.408800 0.379740 -0.501206
O3    O     O_R   0.908940 0.591200 0.620260 -0.493984
O4    O     O_R   0.908940 0.591200 0.379740 -0.489523
O5    O     O_R   0.408940 0.908800 0.620260 -0.502670
O6    O     O_R   0.408940 0.908800 0.379740 -0.501201
O7    O     O_R   0.408940 0.091200 0.620260 -0.493996
O8    O     O_R   0.408940 0.091200 0.379740 -0.489523
O9    O     O_R   0.091250 0.408820 0.379740 -0.467478
O10   O     O_R   0.091250 0.591180 0.620260 -0.466676
O11   O     O_R   0.091250 0.591180 0.379740 -0.450134
O12   O     O_R   0.591250 0.908820 0.620260 -0.506656
O13   O     O_R   0.591250 0.908820 0.379740 -0.467472
O14   O     O_R   0.591250 0.091180 0.620260 -0.466644
O15   O     O_R   0.591250 0.091180 0.379740 -0.450180
O16   O     O_R   0.908940 0.408800 0.620260 -0.502665

loop_
_geom_bond_atom_site_label_1
_geom_bond_atom_site_label_2
_ccdc_geom_bond_type
Cu3   Cu4   S    
C50   H40   S    
C4    O7    A    
C16   H11   S    
C44   N14   S    
C49   N12   S    
H47   N17   S    
C14   C31   S    
C43   H30   S    
C26   C37   S    
Cu1   Cu2   S    
C50   N14   S    
H55   N2    S    
C6    C19   S    
H60   N4    S    
C1    O9    A    
C40   N1    S    
C46   F6    S    
C45   N1    S    
C22   H18   S    
Cu2   O9    S    
Cu2   O2    S    
C41   F2    S    
C10   C15   S    
C49   H37   S    
H62   N5    S    
C11   H7    S    
C36   N5    S    
C48   F8    S    
C22   C38   S    
C24   C39   S    
C11   C16   S    
C3    C29   S    
C8    H34   S    
Cu4   N14   S    
C17   N19   S    
C52   O2    A    
H49   N18   S    
C5    C27   S    
C20   C35   S    
C18   N20   S    
Cu1   O3    S    
C7    H23   S    
C6    C27   S    
C11   C30   S    
C45   C49   S    
C24   H21   S    
C9    C29   S    
C41   N12   S    
H74   N10   S    
Cu3   N15   S    
C39   N13   S    
H51   N19   S    
C9    H45   S    
C34   O15   A    
H69   N8    S    
C37   N7    S    
Cu3   O7    S    
C44   C46   S    
Cu1   O10   S    
H79   N13   S    
Cu4   O13   S    
H53   N20   S    
C25   C29   S    
C48   N15   S    
C19   N2    S    
C20   H16   S    
C21   N4    S    
C13   C30   S    
C47   N14   S    
C5    H1    S    
C19   C33   S    
Cu2   O4    S    
C3    O5    A    
C5    H80   S    
C5    C18   S    
H76   N11   S    
H50   N18   S    
C16   N18   S    
H58   N3    S    
C15   C31   S    
C18   H14   S    
C25   H24   S    
C7    C28   S    
C39   N11   S    
C26   H25   S    
Cu2   O11   S    
C35   C39   S    
C9    C14   S    
C52   O16   A    
H48   N17   S    
C14   H9    S    
C47   C48   S    
C1    O1    A    
C51   H41   S    
H70   N8    S    
C41   H28   S    
C17   H13   S    
C8    C21   S    
C20   N3    S    
C50   C51   S    
C32   C37   S    
C19   H15   S    
C43   F4    S    
H64   N6    S    
Cu2   N1    S    
C21   C35   S    
C10   H6    S    
C42   H29   S    
Cu1   O1    S    
C40   C41   S    
C21   H17   S    
C26   C30   S    
H52   N19   S    
C23   C35   S    
C22   C27   S    
C12   O11   A    
C12   C31   S    
C8    C28   S    
Cu3   O14   S    
C34   O14   A    
C26   H26   S    
C42   C43   S    
C38   N10   S    
C37   N8    S    
C43   N12   S    
Cu1   O16   S    
C2    O4    A    
H46   N16   S    
C27   C52   S    
C12   O10   A    
H77   N13   S    
H68   N7    S    
C48   H35   S    
C40   F1    S    
C4    O8    A    
Cu4   O6    S    
C31   C36   S    
C15   N17   S    
C24   C28   S    
C9    H5    S    
C45   H36   S    
C11   H67   S    
C42   F3    S    
C49   H39   S    
C3    O6    A    
C6    H12   S    
C23   O12   A    
C13   H8    S    
C44   F5    S    
C16   C32   S    
H75   N11   S    
C33   C38   S    
H61   N4    S    
C13   C17   S    
C47   H33   S    
C22   H19   S    
C8    H4    S    
H59   N3    S    
H65   N6    S    
C44   H31   S    
H63   N5    S    
C47   F7    S    
H72   N9    S    
C10   C29   S    
C36   N6    S    
C46   N15   S    
C51   N15   S    
C25   H22   S    
C33   C34   S    
H73   N10   S    
C1    C32   S    
C40   H27   S    
C24   H20   S    
H54   N20   S    
C18   C33   S    
C4    C30   S    
Cu3   O12   S    
C23   O13   A    
C10   H56   S    
C45   H38   S    
C25   C36   S    
C7    H3    S    
H44   N16   S    
C6    H2    S    
C15   H10   S    
C46   H32   S    
Cu1   N12   S    
C51   H43   S    
C7    C20   S    
C14   N16   S    
H66   N7    S    
C50   H42   S    
C17   C32   S    
H57   N2    S    
C2    C28   S    
C38   N9    S    
C42   N1    S    
C2    O3    A    
Cu3   O5    S    
Cu4   O8    S    
H71   N9    S    
Cu4   O15   S    
C13   H78   S    
