data_mof_unit_64806.cif
_audit_creation_date              2012-12-10T16:50:18-0500
_audit_creation_method            fapswitch 2.2
_symmetry_space_group_name_H-M    P1
_symmetry_Int_Tables_number       1
_space_group_crystal_system       triclinic
_cell_length_a                    21.927994
_cell_length_b                    21.948995
_cell_length_c                    22.386016
_cell_angle_alpha                 59.824709
_cell_angle_beta                  119.060802
_cell_angle_gamma                 89.849262
_cell_volume                      7695.26675005

loop_
_atom_site_label
_atom_site_type_symbol
_atom_type_description
_atom_site_fract_x
_atom_site_fract_y
_atom_site_fract_z
_atom_type_partial_charge
C1    C     C_R   0.615167 0.502058 0.495541 0.908704
C2    C     C_2   0.817214 0.507334 0.502269 -0.317204
C3    C     C_2   0.685250 0.565568 0.435831 0.023295
C4    C     C_R   0.419840 0.580687 0.339647 0.859330
C5    C     C_2   0.677716 0.503700 0.488136 -0.313543
C6    C     C_3   0.709534 0.217614 0.027767 0.066591
C7    C     C_3   0.693035 0.302378 0.970531 -0.240093
C8    C     C_1   0.625110 0.373396 0.750082 -0.140643
C9    C     C_1   0.875236 0.124533 0.249929 -0.140925
C10   C     C_3   0.724494 0.205024 0.973491 -0.240962
C11   C     C_3   0.709195 0.289549 0.917201 0.162527
C12   C     C_3   0.291442 0.711283 0.082667 0.140304
C13   C     C_3   0.807517 0.194264 0.029521 -0.239415
C14   C     C_3   0.791345 0.207106 0.082838 0.162100
C15   C     C_3   0.791004 0.279040 0.972272 0.069546
C16   C     C_R   0.383858 0.498679 0.502895 0.844171
C17   C     C_3   0.776033 0.291632 0.026527 -0.240531
C18   C     C_1   0.662983 0.335325 0.825471 0.007991
C19   C     C_1   0.837492 0.161790 0.174558 0.007274
C20   C     C_2   0.241580 0.430568 0.548939 0.117591
C21   C     C_2   0.182546 0.493007 0.496979 -0.358807
C22   C     C_2   0.301801 0.434303 0.535356 -0.169173
C23   C     C_3   0.181280 0.748238 0.972806 -0.196280
C24   C     C_2   0.322496 0.495314 0.512583 -0.354876
C25   C     C_R   0.001444 0.881197 0.502410 0.841155
C26   C     C_R   0.080080 0.919810 0.660357 0.834472
C27   C     C_R   0.997017 0.120423 0.493415 0.861161
C28   C     C_R   0.580143 0.419328 0.660330 0.815579
C29   C     C_R   0.919929 0.080054 0.339660 0.809051
C30   C     C_R   0.997408 0.618140 0.499002 0.851519
C31   C     C_R   0.882406 0.502063 0.500267 0.869635
C32   C     C_R   0.998973 0.381421 0.501514 0.761001
C33   C     C_R   0.117541 0.497306 0.499726 0.841446
C34   C     C_3   0.208598 0.793837 0.917225 0.147074
C35   C     C_2   0.991775 0.689331 0.553410 -0.153180
C36   C     C_2   0.990591 0.686564 0.494412 -0.315404
C37   C     C_2   0.981673 0.760227 0.545165 -0.152480
C38   C     C_2   0.006438 0.812418 0.507526 -0.308971
C39   C     C_2   0.937820 0.308787 0.450403 -0.180834
C40   C     C_3   0.279463 0.727355 0.972863 -0.164859
C41   C     C_2   0.996462 0.311036 0.509727 -0.162667
C42   C     C_2   0.933832 0.239201 0.455792 -0.106333
C43   C     C_2   0.993305 0.192820 0.479770 -0.250040
C44   C     C_3   0.318861 0.756686 0.027319 -0.230716
C45   C     C_3   0.220833 0.777561 0.026847 0.074224
C46   C     C_1   0.375073 0.626693 0.249854 -0.141138
C47   C     C_1   0.124799 0.875539 0.750118 -0.135722
C48   C     C_3   0.252854 0.681266 0.029611 -0.161640
C49   C     C_2   0.661476 0.184185 0.056214 0.344989
C50   C     C_2   0.839064 0.312464 0.943820 0.344635
C51   C     C_3   0.244146 0.357492 0.616153 -0.344541
C52   C     C_3   0.309913 0.289286 0.663060 -0.400830
C53   C     C_3   0.309141 0.219807 0.730936 -0.809967
C54   C     C_2   0.055761 0.242504 0.592609 0.410592
C55   C     C_2   0.246786 0.901583 0.940546 0.331326
C56   C     C_3   0.247420 0.823113 0.970770 0.029658
C57   C     C_3   0.188874 0.804179 0.060251 -0.436430
C58   C     C_3   0.114347 0.866597 0.989529 -0.330740
C59   C     C_3   0.083382 0.893143 0.023550 -0.823933
C60   C     C_2   0.627392 0.640268 0.372731 0.378258
C61   C     C_1   0.337428 0.664984 0.174440 -0.058867
C62   C     C_1   0.162539 0.838589 0.825498 0.005532
C63   C     C_2   0.751626 0.559061 0.434429 -0.248799
Cu1   Cu    Cu3+1 0.500050 0.438990 0.500010 0.962534
Cu2   Cu    Cu3+1 0.499950 0.561010 0.499990 1.002080
Cu3   Cu    Cu3+1 0.061010 0.999870 0.499990 0.964729
Cu4   Cu    Cu3+1 0.938990 0.999980 0.500010 0.987851
Cu5   Cu    Cu3+1 0.958560 0.541440 0.417120 0.951674
Cu6   Cu    Cu3+1 0.041440 0.458560 0.582880 0.955968
H1    H     H_    0.375599 0.759893 0.050308 0.150618
H2    H     H_    0.297078 0.542498 0.506408 0.158359
H3    H     H_    0.996436 0.639898 0.606306 0.164210
H4    H     H_    0.977783 0.737390 0.437055 0.154987
H5    H     H_    0.957736 0.767518 0.574671 0.163732
H6    H     H_    0.037611 0.801663 0.486205 0.154334
H7    H     H_    0.890912 0.359146 0.396998 0.154336
H8    H     H_    0.882238 0.227159 0.438780 0.161402
H9    H     H_    0.041905 0.209614 0.488317 0.141388
H10   H     H_    0.124578 0.744958 0.949872 0.135622
H11   H     H_    0.255722 0.622219 0.054781 0.141608
H12   H     H_    0.717192 0.449362 0.523421 0.137929
H13   H     H_    0.746787 0.599485 0.376703 0.167814
H14   H     H_    0.824752 0.470688 0.562346 0.160837
H15   H     H_    0.604138 0.196390 0.010216 0.059947
H16   H     H_    0.896390 0.300292 0.989815 0.061210
H17   H     H_    0.312913 0.228165 0.777467 0.253827
H18   H     H_    0.257696 0.207121 0.702852 0.254474
H19   H     H_    0.357103 0.171459 0.763665 0.247348
H20   H     H_    0.307217 0.278437 0.618529 0.220339
H21   H     H_    0.362542 0.299697 0.692909 0.227268
H22   H     H_    0.246478 0.364748 0.662824 0.218987
H23   H     H_    0.645568 0.346680 0.945978 0.143961
H24   H     H_    0.192489 0.345548 0.586524 0.180987
H25   H     H_    0.111311 0.244149 0.624858 0.050906
H26   H     H_    0.277041 0.914531 0.985565 0.070516
H27   H     H_    0.074950 0.846436 0.068178 0.251247
H28   H     H_    0.121765 0.915392 0.055790 0.255290
H29   H     H_    0.029427 0.938178 0.971118 0.247892
H30   H     H_    0.120777 0.914671 0.943906 0.240815
H31   H     H_    0.074249 0.846083 0.956190 0.220443
H32   H     H_    0.181756 0.756056 0.105103 0.207224
H33   H     H_    0.228861 0.824280 0.094287 0.198647
H34   H     H_    0.797731 0.326984 0.048632 0.142775
H35   H     H_    0.642464 0.689257 0.345251 0.062306
H36   H     H_    0.854985 0.149958 0.054084 0.143950
H37   H     H_    0.702782 0.169687 0.951368 0.144249
H38   H     H_    0.178015 0.541935 0.443749 0.143798
H39   H     H_    0.331241 0.385815 0.546798 0.165757
H40   H     H_    0.303253 0.706893 0.949839 0.143986
O1    O     O_R   0.589060 0.448490 0.499990 -0.594297
O2    O     O_R   0.034920 0.554020 0.569980 -0.579221
O3    O     O_R   0.875990 0.534990 0.430030 -0.583980
O4    O     O_R   0.588980 0.551530 0.499980 -0.542465
O5    O     O_R   0.945970 0.465000 0.570010 -0.584406
O6    O     O_R   0.965080 0.445980 0.430020 -0.578511
O7    O     O_R   0.035060 0.375990 0.570000 -0.592357
O8    O     O_R   0.054030 0.535000 0.429990 -0.581551
O9    O     O_R   0.124010 0.465010 0.569970 -0.589903
O10   O     O_R   0.439580 0.508940 0.379080 -0.589923
O11   O     O_R   0.439510 0.611990 0.379070 -0.555109
O12   O     O_R   0.948460 0.910940 0.500030 -0.577925
O13   O     O_R   0.411020 0.448470 0.500020 -0.589205
O14   O     O_R   0.410940 0.551510 0.500010 -0.592526
O15   O     O_R   0.560490 0.388010 0.620930 -0.587929
O16   O     O_R   0.560420 0.491060 0.620920 -0.578256
O17   O     O_R   0.051510 0.910850 0.500010 -0.589556
O18   O     O_2   0.686159 0.143395 0.130546 -0.525773
O19   O     O_2   0.814398 0.353206 0.869490 -0.532801
O20   O     O_2   0.042313 0.185892 0.627569 -0.502868
O21   O     O_2   0.212466 0.951021 0.865875 -0.518291
O22   O     O_2   0.562640 0.648054 0.347741 -0.544673
O23   O     O_R   0.111980 0.939430 0.620910 -0.575082
O24   O     O_R   0.008930 0.939520 0.620930 -0.581439
O25   O     O_R   0.051540 0.088910 0.499970 -0.590624
O26   O     O_R   0.948490 0.089000 0.499990 -0.574470
O27   O     O_R   0.991070 0.060330 0.379070 -0.592804
O28   O     O_R   0.888020 0.060420 0.379090 -0.564838
O29   O     O_R   0.964940 0.624010 0.430000 -0.589556

loop_
_geom_bond_atom_site_label_1
_geom_bond_atom_site_label_2
_ccdc_geom_bond_type
C55   C56   S    
Cu6   O7    S    
C33   O8    A    
C30   O29   A    
C52   H21   S    
C35   C36   D    
C12   C48   S    
C47   C62   T    
C2    H14   S    
C11   C18   S    
C4    C46   S    
C2    C63   D    
C43   H9    S    
C7    C11   S    
C57   H33   S    
C45   C57   S    
Cu1   O10   S    
C23   C45   S    
C49   H15   S    
C35   C37   S    
C16   O14   A    
Cu5   O29   S    
C20   C51   S    
Cu5   O8    S    
C22   H39   S    
C21   C33   S    
C57   H32   S    
Cu6   O9    S    
C34   C62   S    
C15   C17   S    
Cu5   O3    S    
C15   C50   S    
C16   O13   A    
C50   H16   S    
C51   H22   S    
Cu3   O25   S    
C11   C15   S    
C9    C19   T    
C45   C56   S    
Cu5   Cu6   S    
C7    C17   S    
C31   O3    A    
C4    O10   A    
C44   H1    S    
C53   H17   S    
C31   O5    A    
C9    C29   S    
C34   C56   S    
C3    C60   S    
C55   O21   D    
Cu3   Cu4   S    
C33   O9    A    
C6    C49   S    
C13   C14   S    
C14   C17   S    
C52   H20   S    
C1    O4    A    
Cu4   O12   S    
C60   O22   D    
C39   C42   S    
Cu3   O23   S    
C38   H6    S    
C49   O18   D    
Cu6   O5    S    
C63   H13   S    
C51   C52   S    
C58   H31   S    
C55   H26   S    
C10   C11   S    
C46   C61   T    
C58   C59   S    
Cu1   O15   S    
C8    C18   T    
Cu3   O17   S    
C2    C31   S    
Cu2   O16   S    
Cu4   O26   S    
C25   O17   A    
C37   C38   D    
C1    O1    A    
C6    C14   S    
C5    H12   S    
C44   C56   S    
Cu1   O1    S    
C32   C41   S    
C23   C34   S    
C40   H40   S    
C53   H18   S    
C39   H7    S    
C32   O7    A    
C21   H38   S    
C26   C47   S    
C51   H24   S    
Cu3   O27   S    
C13   H36   S    
C20   C22   S    
C35   H3    S    
C13   C15   S    
C59   H28   S    
C34   C40   S    
C10   H37   S    
C50   O19   D    
C42   C43   D    
C25   C38   S    
C1    C5    S    
C26   O23   A    
C28   O16   A    
C40   C48   S    
C54   O20   D    
C23   C48   S    
Cu4   O24   S    
C27   O25   A    
Cu2   O4    S    
C14   C19   S    
C58   H30   S    
C12   C45   S    
C3    C5    D    
C10   C13   S    
C6    C10   S    
C28   O15   A    
C6    C7    S    
C3    C63   S    
C29   O28   A    
C30   C36   S    
C30   O2    A    
C27   O26   A    
Cu1   Cu2   S    
C48   H11   S    
C17   H34   S    
C12   C44   S    
C26   O24   A    
C12   C61   S    
Cu6   O2    S    
C57   C58   S    
Cu1   O13   S    
C7    H23   S    
Cu2   O11   S    
C37   H5    S    
C53   H19   S    
C22   C24   D    
Cu2   O14   S    
C32   O6    A    
Cu4   O28   S    
C41   C54   S    
C54   H25   S    
C36   H4    S    
Cu5   O6    S    
C27   C43   S    
C40   C44   S    
C29   O27   A    
C20   C21   D    
C39   C41   D    
C8    C28   S    
C16   C24   S    
C59   H27   S    
C59   H29   S    
C42   H8    S    
C4    O11   A    
C23   H10   S    
C60   H35   S    
C25   O12   A    
C24   H2    S    
C52   C53   S    
