data_mof_unit_18601.cif
_audit_creation_date              2012-12-10T17:21:14-0500
_audit_creation_method            fapswitch 2.2
_symmetry_space_group_name_H-M    P1
_symmetry_Int_Tables_number       1
_space_group_crystal_system       triclinic
_cell_length_a                    21.730692
_cell_length_b                    21.730632
_cell_length_c                    29.111369
_cell_angle_alpha                 89.74983
_cell_angle_beta                  89.746467
_cell_angle_gamma                 89.635404
_cell_volume                      13746.4770431

loop_
_atom_site_label
_atom_site_type_symbol
_atom_type_description
_atom_site_fract_x
_atom_site_fract_y
_atom_site_fract_z
_atom_type_partial_charge
C1    C     C_R   0.499767 0.119818 0.499789 0.873548
C2    C     C_R   0.719361 0.458891 0.470394 0.070923
C3    C     C_R   0.186159 0.567798 0.431596 -0.197595
C4    C     C_R   0.432216 0.813849 0.568415 -0.197586
C5    C     C_R   0.811938 0.575962 0.563720 -0.199877
C6    C     C_R   0.568957 0.185016 0.567700 -0.196488
C7    C     C_R   0.186073 0.431302 0.568884 -0.200506
C8    C     C_R   0.923954 0.688075 0.936328 -0.199892
C9    C     C_R   0.314993 0.930955 0.932351 -0.196418
C10   C     C_R   0.068707 0.313919 0.931120 -0.200504
C11   C     C_R   0.686161 0.067807 0.931601 -0.197594
C12   C     C_R   0.932201 0.313848 0.068407 -0.197599
C13   C     C_R   0.540546 0.718699 0.469498 0.073300
C14   C     C_R   0.311900 0.076140 0.063619 -0.199907
C15   C     C_R   0.069014 0.685014 0.067665 -0.196443
C16   C     C_R   0.686074 0.931294 0.068879 -0.200501
C17   C     C_R   0.377536 0.219212 0.412200 0.068637
C18   C     C_R   0.784673 0.388662 0.404380 0.066506
C19   C     C_R   0.608969 0.782465 0.401483 0.069986
C20   C     C_R   0.216652 0.611001 0.403861 0.069416
C21   C     C_R   0.389019 0.783359 0.596157 0.069422
C22   C     C_R   0.780758 0.622594 0.587707 0.068615
C23   C     C_R   0.611290 0.215338 0.595645 0.066527
C24   C     C_R   0.281004 0.540559 0.470544 0.073924
C25   C     C_R   0.217525 0.391033 0.598515 0.069986
C26   C     C_R   0.877281 0.719259 0.912390 0.068611
C27   C     C_R   0.284679 0.888582 0.904432 0.066470
C28   C     C_R   0.108981 0.282463 0.901491 0.069978
C29   C     C_R   0.716654 0.111017 0.903871 0.069420
C30   C     C_R   0.888998 0.283358 0.096144 0.069417
C31   C     C_R   0.280710 0.122860 0.087509 0.068598
C32   C     C_R   0.111371 0.715333 0.095593 0.066488
C33   C     C_R   0.717527 0.891020 0.098507 0.069978
C34   C     C_R   0.369773 0.282345 0.419621 -0.190228
C35   C     C_R   0.459448 0.719000 0.529465 0.073923
C36   C     C_R   0.721911 0.378652 0.411594 -0.194664
C37   C     C_R   0.617919 0.719307 0.408133 -0.194371
C38   C     C_R   0.279319 0.621034 0.411458 -0.191958
C39   C     C_R   0.378983 0.720692 0.588561 -0.191958
C40   C     C_R   0.717625 0.630337 0.580277 -0.190208
C41   C     C_R   0.621300 0.278100 0.588435 -0.194689
C42   C     C_R   0.280684 0.382084 0.591866 -0.194381
C43   C     C_R   0.869555 0.782393 0.919832 -0.190187
C44   C     C_R   0.221918 0.878570 0.911651 -0.194589
C45   C     C_R   0.117932 0.219305 0.908143 -0.194336
C46   C     C_R   0.717783 0.543584 0.526912 0.074550
C47   C     C_R   0.779320 0.121050 0.911472 -0.191949
C48   C     C_R   0.878966 0.220690 0.088549 -0.191951
C49   C     C_R   0.217577 0.130570 0.080053 -0.190157
C50   C     C_R   0.121384 0.778094 0.088376 -0.194615
C51   C     C_R   0.780686 0.882070 0.091856 -0.194350
C52   C     C_R   0.409097 0.313640 0.448970 -0.173419
C53   C     C_R   0.689527 0.413318 0.443953 -0.174792
C54   C     C_R   0.584591 0.687867 0.441673 -0.174041
C55   C     C_R   0.311207 0.586142 0.443927 -0.173612
C56   C     C_R   0.413868 0.688800 0.556088 -0.173618
C57   C     C_R   0.541092 0.280641 0.529613 0.070954
C58   C     C_R   0.686339 0.590964 0.550961 -0.173414
C59   C     C_R   0.586649 0.310479 0.556065 -0.174765
C60   C     C_R   0.312127 0.415413 0.558328 -0.174046
C61   C     C_R   0.908981 0.813674 0.949110 -0.173405
C62   C     C_R   0.189532 0.913259 0.943996 -0.174843
C63   C     C_R   0.084600 0.187866 0.941681 -0.174053
C64   C     C_R   0.811208 0.086152 0.943936 -0.173606
C65   C     C_R   0.913859 0.188798 0.056080 -0.173616
C66   C     C_R   0.186304 0.091089 0.050813 -0.173400
C67   C     C_R   0.086711 0.810476 0.056021 -0.174814
C68   C     C_R   0.281298 0.459457 0.530504 0.073305
C69   C     C_R   0.812128 0.915404 0.058320 -0.174057
C70   C     C_R   0.645876 0.180720 0.631388 0.109268
C71   C     C_R   0.709462 0.189718 0.637014 -0.154278
C72   C     C_R   0.742250 0.155413 0.669594 -0.154281
C73   C     C_R   0.711994 0.112016 0.696932 -0.125373
C74   C     C_R   0.648760 0.103227 0.692069 -0.106486
C75   C     C_R   0.615784 0.137280 0.659479 -0.160316
C76   C     C_R   0.814853 0.664802 0.618603 0.110443
C77   C     C_R   0.787169 0.688045 0.658851 -0.156157
C78   C     C_R   0.818984 0.728945 0.686958 -0.125932
C79   C     C_R   0.956389 0.782224 0.973118 0.074568
C80   C     C_R   0.878864 0.746509 0.675708 -0.103149
C81   C     C_R   0.906981 0.723668 0.636059 -0.130427
C82   C     C_R   0.875224 0.683354 0.607516 -0.149695
C83   C     C_R   0.353494 0.817296 0.632049 0.111758
C84   C     C_R   0.336814 0.788184 0.673594 -0.169410
C85   C     C_R   0.302770 0.819914 0.706889 -0.126140
C86   C     C_R   0.285886 0.881241 0.699641 -0.105562
C87   C     C_R   0.302265 0.910799 0.658760 -0.133515
C88   C     C_R   0.335498 0.879083 0.625019 -0.151380
C89   C     C_R   0.184147 0.357832 0.635790 0.111530
C90   C     C_R   0.219362 0.958856 0.970415 0.070848
C91   C     C_R   0.198912 0.296237 0.646569 -0.159306
C92   C     C_R   0.167432 0.265260 0.681618 -0.137294
C93   C     C_R   0.120650 0.295086 0.706061 -0.091420
C94   C     C_R   0.105308 0.356001 0.695567 -0.126644
C95   C     C_R   0.137062 0.387441 0.660922 -0.163136
C96   C     C_R   0.642169 0.815839 0.364206 0.111534
C97   C     C_R   0.703764 0.801073 0.353424 -0.159305
C98   C     C_R   0.734739 0.832550 0.318372 -0.137301
C99   C     C_R   0.704913 0.879330 0.293930 -0.091414
C100  C     C_R   0.643999 0.894672 0.304427 -0.126634
C101  C     C_R   0.040551 0.218698 0.969502 0.073276
C102  C     C_R   0.612560 0.862922 0.339075 -0.163143
C103  C     C_R   0.819295 0.354065 0.368642 0.109259
C104  C     C_R   0.810305 0.290476 0.363028 -0.154281
C105  C     C_R   0.844614 0.257678 0.330452 -0.154235
C106  C     C_R   0.888006 0.287928 0.303107 -0.125437
C107  C     C_R   0.896787 0.351166 0.307957 -0.106515
C108  C     C_R   0.862730 0.384152 0.340542 -0.160310
C109  C     C_R   0.335397 0.185110 0.381256 0.110403
C110  C     C_R   0.312258 0.212780 0.340972 -0.156144
C111  C     C_R   0.271443 0.180948 0.312807 -0.125783
C112  C     C_R   0.880181 0.500234 0.500215 0.873548
C113  C     C_R   0.781004 0.040563 0.970548 0.073926
C114  C     C_R   0.253855 0.121070 0.324042 -0.103188
C115  C     C_R   0.276590 0.092970 0.363729 -0.130425
C116  C     C_R   0.316824 0.124741 0.392325 -0.149698
C117  C     C_R   0.182719 0.646537 0.367977 0.111761
C118  C     C_R   0.211830 0.663221 0.326433 -0.169429
C119  C     C_R   0.180103 0.697278 0.293146 -0.126136
C120  C     C_R   0.118780 0.714171 0.300403 -0.105548
C121  C     C_R   0.089223 0.697788 0.341283 -0.133527
C122  C     C_R   0.120936 0.664542 0.375016 -0.151376
C123  C     C_R   0.145970 0.680715 0.131331 0.109263
C124  C     C_R   0.959443 0.218999 0.029461 0.073928
C125  C     C_R   0.209556 0.689719 0.136950 -0.154277
C126  C     C_R   0.242353 0.655419 0.169528 -0.154227
C127  C     C_R   0.212107 0.612020 0.196870 -0.125455
C128  C     C_R   0.148873 0.603224 0.192013 -0.106529
C129  C     C_R   0.115886 0.637274 0.159427 -0.160284
C130  C     C_R   0.314791 0.165209 0.118313 0.110534
C131  C     C_R   0.287050 0.188710 0.158458 -0.156168
C132  C     C_R   0.318828 0.229783 0.186449 -0.126250
C133  C     C_R   0.378735 0.247252 0.175195 -0.103075
C134  C     C_R   0.406914 0.224148 0.135656 -0.130426
C135  C     C_R   0.217764 0.043649 0.026844 0.074575
C136  C     C_R   0.375190 0.183670 0.107222 -0.149702
C137  C     C_R   0.853463 0.317296 0.132029 0.111757
C138  C     C_R   0.836778 0.288188 0.173574 -0.169428
C139  C     C_R   0.802723 0.319920 0.206863 -0.126116
C140  C     C_R   0.785834 0.381244 0.199608 -0.105551
C141  C     C_R   0.802217 0.410797 0.158726 -0.133536
C142  C     C_R   0.835460 0.379079 0.124991 -0.151377
C143  C     C_R   0.684149 0.857816 0.135780 0.111528
C144  C     C_R   0.698913 0.796220 0.146556 -0.159300
C145  C     C_R   0.667433 0.765241 0.181604 -0.137302
C146  C     C_R   0.041129 0.780641 0.029591 0.070880
C147  C     C_R   0.620653 0.795066 0.206050 -0.091425
C148  C     C_R   0.605313 0.855982 0.195559 -0.126633
C149  C     C_R   0.637066 0.887424 0.160915 -0.163139
C150  C     C_R   0.142183 0.315837 0.864215 0.111530
C151  C     C_R   0.203779 0.301071 0.853435 -0.159297
C152  C     C_R   0.234757 0.332548 0.818384 -0.137308
C153  C     C_R   0.204931 0.379327 0.793940 -0.091420
C154  C     C_R   0.144016 0.394669 0.804435 -0.126624
C155  C     C_R   0.112575 0.362918 0.839082 -0.163145
C156  C     C_R   0.319301 0.853973 0.868699 0.109258
C157  C     C_R   0.781299 0.959451 0.030500 0.073283
C158  C     C_R   0.310299 0.790385 0.863088 -0.154279
C159  C     C_R   0.344603 0.757578 0.830515 -0.154197
C160  C     C_R   0.388004 0.787817 0.803169 -0.125491
C161  C     C_R   0.396798 0.851053 0.808018 -0.106548
C162  C     C_R   0.362744 0.884049 0.840599 -0.160283
C163  C     C_R   0.835003 0.685169 0.881542 0.110493
C164  C     C_R   0.811630 0.712878 0.841347 -0.156162
C165  C     C_R   0.770640 0.681081 0.813302 -0.126092
C166  C     C_R   0.753123 0.621189 0.824556 -0.103114
C167  C     C_R   0.776097 0.593044 0.864148 -0.130433
C168  C     C_R   0.460263 0.218169 0.469665 0.061478
C169  C     C_R   0.816495 0.624786 0.892633 -0.149695
C170  C     C_R   0.682721 0.146557 0.867989 0.111764
C171  C     C_R   0.711839 0.163261 0.826451 -0.169449
C172  C     C_R   0.680113 0.197321 0.793166 -0.126102
C173  C     C_R   0.618784 0.214196 0.800416 -0.105528
C174  C     C_R   0.589220 0.197793 0.841289 -0.133549
C175  C     C_R   0.620932 0.164546 0.875021 -0.151386
C176  C     C_R   0.783377 0.463631 0.467424 0.062742
C177  C     C_R   0.536594 0.782873 0.466830 0.062116
C178  C     C_R   0.217121 0.535644 0.467263 0.063097
C179  C     C_R   0.464363 0.782883 0.532744 0.063096
C180  C     C_R   0.500217 0.880255 0.499891 0.873525
C181  C     C_R   0.781819 0.539778 0.530307 0.061481
C182  C     C_R   0.536353 0.216625 0.532584 0.062716
C183  C     C_R   0.217124 0.463408 0.533170 0.062120
C184  C     C_R   0.960186 0.718187 0.969716 0.061469
C185  C     C_R   0.283378 0.963600 0.967445 0.062799
C186  C     C_R   0.036599 0.282872 0.966833 0.062123
C187  C     C_R   0.717122 0.035649 0.967266 0.063093
C188  C     C_R   0.964356 0.282882 0.032740 0.063092
C189  C     C_R   0.281800 0.039859 0.030254 0.061471
C190  C     C_R   0.036385 0.716625 0.032563 0.062771
C191  C     C_R   0.119745 0.499784 0.500108 0.873526
C192  C     C_R   0.717124 0.963403 0.033167 0.062127
C193  C     C_R   0.499754 0.312966 0.500695 -0.214593
C194  C     C_R   0.687031 0.500246 0.499296 -0.214560
C195  C     C_R   0.500067 0.687216 0.499605 -0.218195
C196  C     C_R   0.312784 0.499936 0.500400 -0.218185
C197  C     C_R   0.999761 0.812971 0.000704 -0.214502
C198  C     C_R   0.187025 0.000241 0.999286 -0.214466
C199  C     C_R   0.000067 0.187215 0.999605 -0.218201
C200  C     C_R   0.812785 0.999936 0.000400 -0.218190
C201  C     C_R   0.499110 0.185807 0.500418 -0.191526
C202  C     C_R   0.999765 0.619820 0.999780 0.873556
C203  C     C_R   0.814190 0.500895 0.499579 -0.191564
C204  C     C_R   0.500735 0.814376 0.499989 -0.187995
C205  C     C_R   0.185624 0.499267 0.500013 -0.187999
C206  C     C_R   0.999100 0.685812 0.000419 -0.191608
C207  C     C_R   0.314184 0.000906 0.999579 -0.191648
C208  C     C_R   0.000734 0.314376 0.999989 -0.188005
C209  C     C_R   0.685625 0.999267 0.000012 -0.188009
C210  C     C_R   0.621202 0.499186 0.499846 0.890731
C211  C     C_R   0.500132 0.621263 0.499882 0.891317
C212  C     C_R   0.378737 0.499867 0.500119 0.891327
C213  C     C_R   0.380178 0.000236 0.000225 0.873556
C214  C     C_R   0.500804 0.378796 0.500152 0.890718
C215  C     C_R   0.121200 0.999161 0.999844 0.890673
C216  C     C_R   0.000132 0.121262 0.999882 0.891291
C217  C     C_R   0.878738 0.999867 0.000119 0.891304
C218  C     C_R   0.000829 0.878798 0.000154 0.890662
C219  C     C_R   0.500109 0.000030 0.414288 0.864409
C220  C     C_R   0.000004 0.500124 0.414288 0.863556
C221  C     C_R   0.499874 0.999995 0.585712 0.863531
C222  C     C_R   0.999970 0.499892 0.585712 0.864431
C223  C     C_R   0.000109 0.500029 0.914288 0.864444
C224  C     C_R   0.000217 0.380255 0.999891 0.873526
C225  C     C_R   0.500003 0.000124 0.914288 0.863589
C226  C     C_R   0.999874 0.499996 0.085712 0.863566
C227  C     C_R   0.499971 0.999892 0.085712 0.864463
C228  C     C_1   0.500269 0.000056 0.363462 -0.214008
C229  C     C_1   0.999947 0.500371 0.363460 -0.215407
C230  C     C_1   0.499624 0.000050 0.636540 -0.215408
C231  C     C_1   0.999945 0.499735 0.636538 -0.214007
C232  C     C_1   0.000270 0.500055 0.863462 -0.214011
C233  C     C_1   0.499944 0.000369 0.863460 -0.215438
C234  C     C_1   0.999625 0.500053 0.136539 -0.215428
C235  C     C_R   0.619745 0.999784 0.000108 0.873528
C236  C     C_1   0.499946 0.999735 0.136539 -0.214016
C237  C     C_1   0.500230 0.000034 0.321137 -0.011174
C238  C     C_1   0.999860 0.500448 0.321137 -0.011829
C239  C     C_1   0.499545 0.000135 0.678863 -0.011828
C240  C     C_1   0.999968 0.499775 0.678862 -0.011193
C241  C     C_1   0.000231 0.500033 0.821137 -0.011210
C242  C     C_1   0.499856 0.000445 0.821137 -0.011834
C243  C     C_1   0.999548 0.500139 0.178863 -0.011828
C244  C     C_1   0.499970 0.999774 0.178862 -0.011231
C245  C     C_1   0.500132 0.999949 0.271162 -0.013545
C246  C     C_R   0.456449 0.282206 0.473054 0.074541
C247  C     C_1   0.999712 0.500403 0.271161 -0.015860
C248  C     C_1   0.499589 0.000281 0.728838 -0.015867
C249  C     C_1   0.000055 0.499873 0.728838 -0.013554
C250  C     C_1   0.000132 0.499948 0.771161 -0.013559
C251  C     C_1   0.499707 0.000398 0.771162 -0.015840
C252  C     C_1   0.999594 0.500286 0.228838 -0.015849
C253  C     C_1   0.500055 0.999872 0.228838 -0.013568
C254  C     C_R   0.424126 0.188038 0.436231 -0.199849
C255  C     C_R   0.814991 0.431011 0.432316 -0.196463
C256  C     C_R   0.568699 0.813920 0.431115 -0.200511
H1    H     H_    0.431820 0.140091 0.428333 0.147622
H2    H     H_    0.363520 0.937903 0.926219 0.148281
H3    H     H_    0.789481 0.296953 0.238397 0.145384
H4    H     H_    0.759840 0.405774 0.225598 0.127156
H5    H     H_    0.788731 0.458235 0.152985 0.130070
H6    H     H_    0.846180 0.402751 0.093187 0.138527
H7    H     H_    0.734176 0.771697 0.127523 0.124756
H8    H     H_    0.679128 0.717930 0.189649 0.127829
H9    H     H_    0.596339 0.771020 0.233167 0.129324
H10   H     H_    0.569083 0.879031 0.214572 0.135721
H11   H     H_    0.625272 0.935074 0.154196 0.125110
H12   H     H_    0.228302 0.265810 0.872466 0.124758
H13   H     H_    0.062953 0.362832 0.925893 0.146439
H14   H     H_    0.282067 0.320851 0.810336 0.127830
H15   H     H_    0.228977 0.403638 0.766821 0.129327
H16   H     H_    0.120968 0.430897 0.785424 0.135723
H17   H     H_    0.064926 0.374715 0.845804 0.125103
H18   H     H_    0.277663 0.765879 0.884483 0.127678
H19   H     H_    0.337680 0.708608 0.826582 0.131998
H20   H     H_    0.414405 0.762349 0.777920 0.128705
H21   H     H_    0.429997 0.874532 0.786490 0.143275
H22   H     H_    0.370058 0.933105 0.843643 0.125304
H23   H     H_    0.825214 0.758910 0.831419 0.118482
H24   H     H_    0.638296 0.058778 0.924565 0.140711
H25   H     H_    0.752155 0.702919 0.782884 0.118254
H26   H     H_    0.721506 0.596700 0.802700 0.122909
H27   H     H_    0.762162 0.546747 0.873030 0.130094
H28   H     H_    0.832295 0.602360 0.923735 0.136694
H29   H     H_    0.758925 0.149603 0.819437 0.119556
H30   H     H_    0.703089 0.210579 0.761639 0.145350
H31   H     H_    0.594257 0.240193 0.774428 0.127157
H32   H     H_    0.541776 0.211267 0.847026 0.130073
H33   H     H_    0.597251 0.153812 0.906819 0.138530
H34   H     H_    0.941228 0.361716 0.075439 0.140717
H35   H     H_    0.359836 0.068476 0.071561 0.147714
H36   H     H_    0.062068 0.636487 0.073793 0.148258
H37   H     H_    0.637161 0.937048 0.074105 0.146445
H38   H     H_    0.333000 0.307716 0.403001 0.137801
H39   H     H_    0.697358 0.345313 0.391215 0.136522
H40   H     H_    0.649431 0.693588 0.386498 0.134696
H41   H     H_    0.863521 0.437951 0.426193 0.148242
H42   H     H_    0.303977 0.655932 0.392301 0.136934
H43   H     H_    0.344087 0.696036 0.607724 0.136931
H44   H     H_    0.692248 0.667138 0.596861 0.137814
H45   H     H_    0.654628 0.302657 0.608821 0.136511
H46   H     H_    0.306401 0.350573 0.613500 0.134696
H47   H     H_    0.832727 0.807776 0.903290 0.137816
H48   H     H_    0.197366 0.845218 0.891284 0.136511
H49   H     H_    0.149447 0.193586 0.886510 0.134698
H50   H     H_    0.803978 0.155954 0.892320 0.136933
H51   H     H_    0.844068 0.196034 0.107708 0.136936
H52   H     H_    0.562945 0.862834 0.425889 0.146435
H53   H     H_    0.192187 0.167429 0.096552 0.137820
H54   H     H_    0.154727 0.802649 0.108749 0.136504
H55   H     H_    0.806403 0.850556 0.113488 0.134699
H56   H     H_    0.400481 0.362279 0.453498 0.156690
H57   H     H_    0.641058 0.403677 0.447828 0.156282
H58   H     H_    0.594186 0.639266 0.445295 0.160579
H59   H     H_    0.359401 0.596425 0.448353 0.157616
H60   H     H_    0.403584 0.640605 0.551664 0.157620
H61   H     H_    0.637698 0.599565 0.546427 0.156657
H62   H     H_    0.596297 0.358947 0.552190 0.156307
H63   H     H_    0.138293 0.558771 0.424563 0.140717
H64   H     H_    0.360728 0.405819 0.554707 0.160578
H65   H     H_    0.900394 0.862316 0.953654 0.156624
H66   H     H_    0.141059 0.903628 0.947870 0.156190
H67   H     H_    0.094194 0.139265 0.945305 0.160581
H68   H     H_    0.859402 0.096434 0.948365 0.157605
H69   H     H_    0.903578 0.140603 0.051656 0.157614
H70   H     H_    0.137660 0.099661 0.046259 0.156579
H71   H     H_    0.096349 0.858946 0.052147 0.156212
H72   H     H_    0.860730 0.905811 0.054698 0.160581
H73   H     H_    0.733980 0.222352 0.615626 0.127689
H74   H     H_    0.441246 0.861717 0.575445 0.140702
H75   H     H_    0.791217 0.162333 0.673539 0.131998
H76   H     H_    0.737448 0.085615 0.722187 0.128722
H77   H     H_    0.625269 0.070030 0.713590 0.143273
H78   H     H_    0.566729 0.129968 0.656421 0.125316
H79   H     H_    0.741146 0.674423 0.668773 0.118509
H80   H     H_    0.797172 0.747322 0.717423 0.118320
H81   H     H_    0.903366 0.778058 0.697610 0.122937
H82   H     H_    0.953269 0.737638 0.627181 0.130112
H83   H     H_    0.897628 0.667650 0.576377 0.136704
H84   H     H_    0.350479 0.741101 0.680607 0.119555
H85   H     H_    0.859882 0.568282 0.571630 0.147666
H86   H     H_    0.289530 0.796944 0.738422 0.145392
H87   H     H_    0.259900 0.905770 0.725635 0.127160
H88   H     H_    0.288785 0.958240 0.653024 0.130073
H89   H     H_    0.346215 0.902759 0.593216 0.138533
H90   H     H_    0.234177 0.271713 0.627538 0.124752
H91   H     H_    0.179128 0.217951 0.689666 0.127831
H92   H     H_    0.096336 0.271042 0.733179 0.129329
H93   H     H_    0.069078 0.379050 0.714578 0.135724
H94   H     H_    0.125267 0.435090 0.654200 0.125107
H95   H     H_    0.728288 0.765811 0.372454 0.124754
H96   H     H_    0.562020 0.136484 0.573817 0.148222
H97   H     H_    0.782049 0.820853 0.310322 0.127832
H98   H     H_    0.728957 0.903641 0.266810 0.129330
H99   H     H_    0.620949 0.930901 0.285417 0.135725
H100  H     H_    0.564911 0.874718 0.345799 0.125101
H101  H     H_    0.777675 0.265963 0.384422 0.127693
H102  H     H_    0.837700 0.208708 0.326517 0.132005
H103  H     H_    0.914410 0.262469 0.277854 0.128721
H104  H     H_    0.929980 0.374653 0.286430 0.143281
H105  H     H_    0.870035 0.433209 0.343591 0.125318
H106  H     H_    0.325903 0.258800 0.331063 0.118528
H107  H     H_    0.137159 0.437056 0.574109 0.146441
H108  H     H_    0.253155 0.202743 0.282307 0.118390
H109  H     H_    0.222371 0.096557 0.302095 0.122966
H110  H     H_    0.262603 0.046684 0.372593 0.130133
H111  H     H_    0.332456 0.102346 0.423487 0.136723
H112  H     H_    0.258910 0.649550 0.319414 0.119555
H113  H     H_    0.203073 0.710520 0.261613 0.145371
H114  H     H_    0.094254 0.740167 0.274415 0.127158
H115  H     H_    0.041785 0.711277 0.347026 0.130072
H116  H     H_    0.097261 0.653822 0.406820 0.138526
H117  H     H_    0.234068 0.722354 0.115559 0.127676
H118  H     H_    0.931627 0.640134 0.928402 0.147690
H119  H     H_    0.291321 0.662344 0.173467 0.131992
H120  H     H_    0.237568 0.585622 0.222123 0.128703
H121  H     H_    0.125389 0.570026 0.213538 0.143270
H122  H     H_    0.066832 0.629958 0.156376 0.125304
H123  H     H_    0.241006 0.175172 0.168386 0.118457
H124  H     H_    0.296961 0.248371 0.216822 0.118202
H125  H     H_    0.403209 0.278936 0.197008 0.122881
H126  H     H_    0.453223 0.238045 0.126775 0.130077
H127  H     H_    0.397641 0.167776 0.076156 0.136682
H128  H     H_    0.850448 0.241108 0.180592 0.119562
O1    O     O_R   0.551720 0.091610 0.499990 -0.612476
O2    O     O_R   0.408390 0.051720 0.999990 -0.623250
O3    O     O_R   0.948280 0.408390 0.999990 -0.618776
O4    O     O_R   0.591610 0.948280 0.999990 -0.613207
O5    O     O_R   0.051720 0.408390 0.000010 -0.613205
O6    O     O_R   0.408390 0.948280 0.000010 -0.612479
O7    O     O_R   0.948280 0.591610 0.000010 -0.623233
O8    O     O_R   0.591610 0.051720 0.000010 -0.618776
O9    O     O_R   0.551720 0.000010 0.436860 -0.600065
O10   O     O_R   0.999990 0.551720 0.436860 -0.610297
O11   O     O_R   0.448280 0.999990 0.436860 -0.607346
O12   O     O_R   0.908390 0.551720 0.499990 -0.623214
O13   O     O_R   0.000010 0.448280 0.436860 -0.597572
O14   O     O_R   0.551720 0.999990 0.563140 -0.597566
O15   O     O_R   0.999990 0.448280 0.563140 -0.600071
O16   O     O_R   0.448280 0.000010 0.563140 -0.610306
O17   O     O_R   0.000010 0.551720 0.563140 -0.607333
O18   O     O_R   0.051720 0.500010 0.936860 -0.600074
O19   O     O_R   0.499990 0.051720 0.936860 -0.610290
O20   O     O_R   0.948280 0.499990 0.936860 -0.607334
O21   O     O_R   0.500010 0.948280 0.936860 -0.597578
O22   O     O_R   0.051720 0.499990 0.063140 -0.597573
O23   O     O_R   0.448280 0.908390 0.499990 -0.618771
O24   O     O_R   0.499990 0.948280 0.063140 -0.600079
O25   O     O_R   0.948280 0.500010 0.063140 -0.610294
O26   O     O_R   0.500010 0.051720 0.063140 -0.607331
O27   O     O_R   0.591590 0.499990 0.535660 -0.627856
O28   O     O_R   0.500010 0.591590 0.535660 -0.627992
O29   O     O_R   0.408410 0.500010 0.535660 -0.629563
O30   O     O_R   0.499990 0.408410 0.535660 -0.630042
O31   O     O_R   0.591590 0.500010 0.464340 -0.630031
O32   O     O_R   0.500010 0.408410 0.464340 -0.627870
O33   O     O_R   0.408410 0.499990 0.464340 -0.628000
O34   O     O_R   0.091610 0.448280 0.499990 -0.613204
O35   O     O_R   0.499990 0.591590 0.464340 -0.629557
O36   O     O_R   0.091590 0.999990 0.035660 -0.627828
O37   O     O_R   0.000010 0.091590 0.035660 -0.627970
O38   O     O_R   0.908410 0.000010 0.035660 -0.629552
O39   O     O_R   0.999990 0.908410 0.035660 -0.630039
O40   O     O_R   0.091590 0.000010 0.964340 -0.630030
O41   O     O_R   0.000010 0.908410 0.964340 -0.627848
O42   O     O_R   0.908410 0.999990 0.964340 -0.627976
O43   O     O_R   0.999990 0.091590 0.964340 -0.629546
O44   O     O_R   0.551720 0.908390 0.500010 -0.613204
O45   O     O_R   0.908390 0.448280 0.500010 -0.612475
O46   O     O_R   0.448280 0.091610 0.500010 -0.623192
O47   O     O_R   0.091610 0.551720 0.500010 -0.618778
O48   O     O_R   0.051720 0.591610 0.999990 -0.612478
Zn1   Zn    Zn3+2 0.569070 0.000000 0.500000 0.961479
Zn2   Zn    Zn3+2 0.500000 0.500000 0.452400 0.934241
Zn3   Zn    Zn3+2 0.000000 0.000000 0.047600 0.934292
Zn4   Zn    Zn3+2 0.000000 0.000000 0.952400 0.934285
Zn5   Zn    Zn3+2 0.000000 0.569070 0.500000 0.924529
Zn6   Zn    Zn3+2 0.430930 0.000000 0.500000 0.924547
Zn7   Zn    Zn3+2 0.000000 0.430930 0.500000 0.961476
Zn8   Zn    Zn3+2 0.069070 0.500000 0.000000 0.961466
Zn9   Zn    Zn3+2 0.500000 0.069070 0.000000 0.924496
Zn10  Zn    Zn3+2 0.930930 0.500000 0.000000 0.924509
Zn11  Zn    Zn3+2 0.500000 0.930930 0.000000 0.961463
Zn12  Zn    Zn3+2 0.500000 0.500000 0.547600 0.934245

loop_
_geom_bond_atom_site_label_1
_geom_bond_atom_site_label_2
_ccdc_geom_bond_type
C126  C127  A    
C96   C102  A    
O8    Zn9   S    
C8    C26   A    
C185  C207  A    
C23   C70   S    
C45   H49   S    
C147  H9    S    
C98   H97   S    
C105  H102  S    
C114  C115  A    
O2    Zn9   S    
C15   C32   A    
C247  C252  T    
C134  H126  S    
C104  H101  S    
C242  C251  S    
C46   C181  A    
C31   C130  S    
C7    H107  S    
C57   C59   A    
C106  C107  A    
C143  C144  A    
C15   H36   S    
C79   C184  A    
C110  C111  A    
C36   C53   A    
C19   C37   A    
C14   C189  A    
C190  C206  A    
C38   C55   A    
C21   C83   S    
C238  C247  S    
C3    H63   S    
C213  O2    A    
C255  H41   S    
C125  H117  S    
C83   C88   A    
C240  C249  S    
C9    H2    S    
C176  C203  A    
C153  H15   S    
C214  O32   A    
C154  H16   S    
C210  O27   A    
O4    Zn11  S    
C104  C105  A    
C161  C162  A    
C67   H71   S    
O28   Zn12  S    
O26   Zn9   S    
O16   Zn6   S    
C40   C58   A    
C212  O33   A    
C232  C241  T    
C40   H44   S    
C140  C141  A    
C132  H124  S    
C61   H65   S    
C47   C64   A    
C129  H122  S    
C144  C145  A    
C180  C204  S    
C107  H104  S    
C245  C253  T    
O42   Zn4   S    
C239  C248  S    
C87   H88   S    
C209  C235  S    
C191  O47   A    
C224  O5    A    
C172  H30   S    
C227  O24   A    
C39   C56   A    
C173  H31   S    
C174  H32   S    
C91   H90   S    
C177  C204  A    
C8    H118  S    
C148  C149  A    
C154  C155  A    
O11   Zn6   S    
C138  H128  S    
C218  O41   A    
O21   Zn11  S    
C24   C178  A    
C158  C159  A    
C18   C255  A    
O43   Zn4   S    
C17   C34   A    
C149  H11   S    
C4    C179  A    
C197  C218  S    
C11   H24   S    
C223  C232  S    
C43   C61   A    
C13   C54   A    
C27   C156  S    
C140  H4    S    
C141  H5    S    
C72   C73   A    
C2    C53   A    
C17   C109  S    
C139  C140  A    
C186  C208  A    
C23   C41   A    
C7    C183  A    
C156  C158  A    
C130  C131  A    
C222  O15   A    
C1    O46   A    
C219  O11   A    
C196  C212  S    
C151  H12   S    
C143  C149  A    
O9    Zn1   S    
O45   Zn7   S    
C98   C99   A    
C121  H115  S    
C51   C69   A    
C144  H7    S    
C56   H60   S    
C167  H27   S    
C94   H93   S    
C137  C142  A    
C84   H84   S    
C182  C201  A    
C26   C163  S    
C147  C148  A    
C22   C76   S    
C14   C31   A    
C212  O29   A    
C128  C129  A    
C97   C98   A    
C167  C169  A    
C85   C86   A    
O19   Zn9   S    
C124  C199  A    
C249  C250  T    
C220  C229  S    
C29   C47   A    
C30   C48   A    
O27   Zn12  S    
C114  H109  S    
C191  C205  S    
C73   H76   S    
C78   C80   A    
C95   H94   S    
C170  C171  A    
C12   H34   S    
C115  C116  A    
C65   C124  A    
C133  H125  S    
O10   Zn5   S    
C174  C175  A    
C59   H62   S    
C34   H38   S    
C27   C44   A    
C187  C209  A    
C10   H13   S    
C221  C230  S    
C69   C157  A    
C193  C246  A    
C219  C228  S    
C89   C91   A    
C50   C67   A    
O7    Zn10  S    
C202  O7    A    
C111  H108  S    
C155  H17   S    
C46   C58   A    
C119  H113  S    
C32   C123  S    
C230  C239  T    
C181  C203  A    
O24   Zn11  S    
C65   H69   S    
C57   C182  A    
C46   C194  A    
C35   C179  A    
C75   H78   S    
C17   C254  A    
C49   C66   A    
C106  H103  S    
C82   H83   S    
C76   C82   A    
C91   C92   A    
C124  C188  A    
C211  O35   A    
C108  H105  S    
C220  O10   A    
C254  H1    S    
O40   Zn4   S    
C223  O20   A    
C52   H56   S    
C231  C240  T    
C115  H110  S    
C117  C122  A    
C194  C210  S    
C83   C84   A    
C81   H82   S    
C210  O31   A    
O32   Zn2   S    
C38   H42   S    
C1    O1    A    
C150  C155  A    
C48   C65   A    
C120  C121  A    
O23   Zn6   S    
O48   Zn8   S    
C122  H116  S    
C127  H120  S    
C35   C56   A    
C48   H51   S    
C101  C199  A    
C208  C224  S    
C4    H74   S    
O12   Zn5   S    
C226  C234  S    
C60   H64   S    
C157  C200  A    
C58   H61   S    
C112  O45   A    
O34   Zn7   S    
C161  H21   S    
C117  C118  A    
C176  C255  A    
C61   C79   A    
C183  C205  A    
C10   C186  A    
C77   H79   S    
C63   H67   S    
O3    Zn10  S    
C233  C242  T    
C152  C153  A    
C70   C75   A    
C150  C151  A    
C39   H43   S    
O38   Zn3   S    
C219  O9    A    
O44   Zn1   S    
C221  O14   A    
C87   C88   A    
C73   C74   A    
O39   Zn3   S    
O29   Zn12  S    
C1    C201  S    
C222  O17   A    
C215  O36   A    
C226  O25   A    
C216  O43   A    
C77   C78   A    
C33   C143  S    
C227  C236  S    
C225  O19   A    
C93   C94   A    
C223  O18   A    
C164  C165  A    
C3    C178  A    
C6    H96   S    
C224  O3    A    
C123  C125  A    
C24   C196  A    
O20   Zn10  S    
C113  C187  A    
O17   Zn5   S    
C184  C206  A    
C54   H58   S    
C148  H10   S    
C211  O28   A    
C109  C116  A    
C80   H81   S    
C139  H3    S    
C151  C152  A    
C164  H23   S    
C70   C71   A    
C160  H20   S    
C35   C195  A    
O47   Zn5   S    
C102  H100  S    
C30   C137  S    
C200  C217  S    
C31   C49   A    
C93   H92   S    
C198  C215  S    
C5    C181  A    
C20   C117  S    
C145  C147  A    
C51   H55   S    
C170  C175  A    
C175  H33   S    
C165  H25   S    
C84   C85   A    
C214  O30   A    
C86   C87   A    
O22   Zn8   S    
C43   H47   S    
C44   H48   S    
O30   Zn12  S    
C2    C194  A    
C89   C95   A    
C55   H59   S    
C92   H91   S    
O5    Zn8   S    
C159  C160  A    
O35   Zn2   S    
C3    C20   A    
C68   C196  A    
C85   H86   S    
C121  C122  A    
O36   Zn3   S    
C180  O23   A    
C6    C182  A    
C244  C253  S    
C125  C126  A    
C78   H80   S    
C217  O38   A    
C99   H98   S    
O31   Zn2   S    
C131  C132  A    
C9    C27   A    
C216  O37   A    
C10   C28   A    
C177  C256  A    
C225  O21   A    
C188  C208  A    
C12   C30   A    
C241  C250  S    
C171  H29   S    
C25   C42   A    
C100  H99   S    
C119  C120  A    
C256  H52   S    
C90   C185  A    
C218  O39   A    
C33   C51   A    
C105  C106  A    
C25   C89   S    
C7    C25   A    
O18   Zn8   S    
C225  C233  S    
C180  O44   A    
C157  C192  A    
C159  H19   S    
C228  C237  T    
C109  C110  A    
C189  C207  A    
C128  H121  S    
C13   C177  A    
C92   C93   A    
C113  C200  A    
C111  C114  A    
C18   C103  S    
C94   C95   A    
C163  C169  A    
C192  C209  A    
C138  C139  A    
C66   C135  A    
O14   Zn1   S    
C19   C256  A    
C71   C72   A    
C60   C68   A    
C13   C195  A    
C103  C104  A    
C71   H73   S    
C235  O4    A    
C142  H6    S    
C112  C203  S    
C229  C238  T    
C88   H89   S    
C18   C36   A    
C69   H72   S    
C168  C246  A    
C171  C172  A    
C68   C183  A    
C28   C150  S    
C165  C166  A    
C79   C197  A    
C163  C164  A    
C213  O6    A    
C63   C101  A    
O46   Zn6   S    
C135  C198  A    
C81   C82   A    
C162  H22   S    
C193  C214  S    
C173  C174  A    
C24   C55   A    
C11   C187  A    
C9    C185  A    
O25   Zn10  S    
C12   C188  A    
C178  C205  A    
C62   C90   A    
C207  C213  S    
C168  C201  A    
C118  C119  A    
C135  C189  A    
C34   C52   A    
C16   C192  A    
C2    C176  A    
C36   H39   S    
C5    C22   A    
C152  H14   S    
C132  C133  A    
C202  O48   A    
C235  O8    A    
C29   C170  S    
C215  O40   A    
C248  C251  T    
C234  C243  T    
C8    C184  A    
C168  C254  A    
C120  H114  S    
C123  C129  A    
C220  O13   A    
C66   H70   S    
C221  O16   A    
C145  H8    S    
C49   H53   S    
C26   C43   A    
C158  H18   S    
C28   C45   A    
C74   C75   A    
C237  C245  S    
C199  C216  S    
C110  H106  S    
C76   C77   A    
C41   C59   A    
C226  O22   A    
C42   C60   A    
C41   H45   S    
C134  C136  A    
C44   C62   A    
O1    Zn1   S    
C45   C63   A    
C57   C193  A    
O13   Zn7   S    
O15   Zn7   S    
C195  C211  S    
C16   C33   A    
C20   C38   A    
C112  O12   A    
C99   C100  A    
C21   C39   A    
C107  C108  A    
C22   C40   A    
C96   C97   A    
C67   C146  A    
C100  C102  A    
C126  H119  S    
C32   C50   A    
C50   H54   S    
C37   C54   A    
C64   H68   S    
C15   C190  A    
C131  H123  S    
C222  C231  S    
C37   H40   S    
C166  C167  A    
O37   Zn3   S    
C166  H26   S    
C101  C186  A    
C14   H35   S    
C172  C173  A    
C42   H46   S    
C64   C113  A    
O41   Zn4   S    
O6    Zn11  S    
C130  C136  A    
C97   H95   S    
C80   C81   A    
C74   H77   S    
C52   C246  A    
C191  O34   A    
C90   C198  A    
C137  C138  A    
C136  H127  S    
C16   H37   S    
C169  H28   S    
C5    H85   S    
C160  C161  A    
C236  C244  T    
C146  C197  A    
O33   Zn2   S    
C141  C142  A    
C4    C21   A    
C116  H111  S    
C133  C134  A    
C72   H75   S    
C6    C23   A    
C243  C252  S    
C217  O42   A    
C47   H50   S    
C62   H66   S    
C156  C162  A    
C227  O26   A    
C179  C204  A    
C11   C29   A    
C202  C206  S    
C118  H112  S    
C53   H57   S    
C86   H87   S    
C146  C190  A    
C103  C108  A    
C153  C154  A    
C19   C96   S    
C127  C128  A    
