data_mof_unit_39418.cif
_audit_creation_date              2012-12-11T15:48:03-0500
_audit_creation_method            fapswitch 2.2
_symmetry_space_group_name_H-M    P1
_symmetry_Int_Tables_number       1
_space_group_crystal_system       triclinic
_cell_length_a                    6.918821
_cell_length_b                    17.660122
_cell_length_c                    19.39257
_cell_angle_alpha                 108.56232
_cell_angle_beta                  89.710576
_cell_angle_gamma                 90.512463
_cell_volume                      2246.16088097

loop_
_atom_site_label
_atom_site_type_symbol
_atom_type_description
_atom_site_fract_x
_atom_site_fract_y
_atom_site_fract_z
_atom_type_partial_charge
O1    O     O_R   0.494330 0.415710 0.413720 -0.542744
O2    O     O_R   0.819360 0.430070 0.560210 -0.520709
O3    O     O_R   0.994320 0.584290 0.586280 -0.544186
C1    C     C_R   0.650025 0.412817 0.580021 0.737621
O4    O     O_R   0.823740 0.406290 0.412670 -0.555324
O5    O     O_R   0.998730 0.560340 0.437690 -0.545750
C2    C     C_R   0.654449 0.382585 0.385063 0.659197
O6    O     O_R   0.489920 0.439660 0.562310 -0.537415
O7    O     O_3   0.662330 0.550570 0.508380 -0.371999
V1    V     V_3+5 0.935370 0.490620 0.498440 1.409963
O8    O     O_R   0.328720 0.569930 0.439790 -0.545343
C3    C     C_R   0.160847 0.581335 0.415051 0.691747
O9    O     O_R   0.324340 0.593710 0.587330 -0.511984
C4    C     C_R   0.155437 0.617730 0.614778 0.724885
V2    V     V_3+5 0.435940 0.509380 0.501560 1.427659
O10   O     O_3   0.159110 0.449430 0.491620 -0.368342
C5    C     C_R   0.305913 0.738793 0.708206 0.415127
C6    C     C_R   0.293789 0.801043 0.774714 -0.237688
H1    H     H_    0.420147 0.838283 0.794076 0.129786
C7    C     C_R   0.120841 0.816154 0.815022 -0.106245
C8    C     C_R   0.959395 0.767187 0.787914 -0.148815
H2    H     H_    0.823608 0.777397 0.817352 0.140617
C9    C     C_R   0.972021 0.703307 0.723126 -0.214382
H3    H     H_    0.845457 0.665875 0.704879 0.174922
C10   C     C_R   0.145332 0.687348 0.682812 -0.152167
C11   C     C_R   0.006720 0.611351 0.306990 0.042269
C12   C     C_R   0.152176 0.626461 0.361884 -0.111340
C13   C     C_R   0.293368 0.685601 0.365985 -0.257959
C14   C     C_R   0.288386 0.732034 0.319372 0.088808
C15   C     C_R   0.131269 0.724231 0.271556 0.022675
C16   C     C_R   0.984932 0.666491 0.267615 0.076775
C17   C     C_R   0.437236 0.787019 0.320445 -0.174702
C18   C     C_R   0.432425 0.833068 0.273596 -0.187428
C19   C     C_R   0.276245 0.826475 0.226096 0.089766
C20   C     C_R   0.123194 0.773021 0.226078 0.061491
C21   C     C_R   0.963230 0.767617 0.179941 0.094119
C22   C     C_R   0.812339 0.714411 0.179992 -0.188900
C23   C     C_R   0.822955 0.664460 0.222967 -0.197441
C24   C     C_R   0.270675 0.872094 0.178439 -0.219712
C25   C     C_R   0.111278 0.866739 0.132132 -0.085532
C26   C     C_R   0.956879 0.815155 0.134197 -0.222852
H4    H     H_    0.409017 0.695201 0.405467 0.138253
H5    H     H_    0.559223 0.793516 0.356773 0.133089
H6    H     H_    0.550957 0.873926 0.274586 0.131607
H7    H     H_    0.389233 0.912538 0.178087 0.124772
H8    H     H_    0.833218 0.810622 0.098939 0.129714
H9    H     H_    0.686499 0.710594 0.145950 0.134137
H10   H     H_    0.702134 0.624589 0.220897 0.137974
C27   C     C_R   0.467100 0.183793 0.865569 -0.224969
C28   C     C_R   0.623023 0.134229 0.868683 -0.087333
C29   C     C_R   0.782947 0.129749 0.822474 -0.226874
C30   C     C_R   0.786045 0.172850 0.772764 0.097986
C31   C     C_R   0.629554 0.222649 0.770255 0.078826
C32   C     C_R   0.470184 0.228518 0.817314 0.088599
C33   C     C_R   0.942521 0.166667 0.725184 -0.210101
C34   C     C_R   0.944810 0.209581 0.675775 -0.165821
C35   C     C_R   0.790582 0.259979 0.672821 0.010841
C36   C     C_R   0.632323 0.266661 0.720681 -0.012306
C37   C     C_R   0.476915 0.317411 0.719375 0.087318
C38   C     C_R   0.319896 0.323134 0.766834 -0.155779
C39   C     C_R   0.316278 0.278911 0.815190 -0.192388
C40   C     C_R   0.791933 0.303688 0.623122 0.366863
C41   C     C_R   0.640896 0.358646 0.625161 -0.191641
C42   C     C_R   0.482430 0.362928 0.671887 -0.255392
H11   H     H_    0.343358 0.187985 0.901089 0.130224
H12   H     H_    0.903061 0.091297 0.823995 0.124994
H13   H     H_    0.063980 0.128753 0.726325 0.132726
H14   H     H_    0.069223 0.203662 0.640413 0.166439
H15   H     H_    0.365125 0.403542 0.672761 0.157071
H16   H     H_    0.199312 0.361743 0.766445 0.133234
H17   H     H_    0.192752 0.284104 0.850939 0.133434
C43   C     C_R   0.804948 0.265775 0.289931 -0.183058
H18   H     H_    0.941218 0.278046 0.318764 0.114451
C44   C     C_R   0.794536 0.202350 0.224563 -0.150547
H19   H     H_    0.923067 0.167363 0.205121 0.119249
C45   C     C_R   0.620612 0.184213 0.185064 -0.039905
C46   C     C_R   0.456986 0.230759 0.213046 -0.163482
H20   H     H_    0.320511 0.218452 0.184355 0.120020
C47   C     C_R   0.467812 0.294550 0.278083 -0.157354
H21   H     H_    0.339398 0.329705 0.297356 0.116698
C48   C     C_R   0.642367 0.313335 0.317076 -0.033480
O11   O     O_R   0.774940 0.060470 0.937800 -0.539171
O12   O     O_R   0.440880 0.093730 0.087350 -0.544498
O13   O     O_R   0.266130 0.939630 0.062280 -0.539146
C49   C     C_R   0.609804 0.116608 0.115706 0.683758
O14   O     O_R   0.445480 0.069960 0.939820 -0.544279
O15   O     O_R   0.270770 0.915690 0.913690 -0.539502
C50   C     C_R   0.614616 0.085264 0.918289 0.712162
O16   O     O_R   0.770300 0.084410 0.086380 -0.540581
O17   O     O_3   0.602600 0.949510 0.991670 -0.368113
V3    V     V_3+5 0.329470 0.009370 0.001550 1.396703
O18   O     O_R   0.940760 0.906160 0.912560 -0.545429
C51   C     C_R   0.109771 0.883439 0.884381 0.709117
O19   O     O_R   0.936150 0.929930 0.060100 -0.543281
C52   C     C_R   0.104247 0.915481 0.082333 0.712923
V4    V     V_3+5 0.828930 0.990450 0.998310 1.398274
O20   O     O_3   0.105670 0.050490 0.008320 -0.370100
O21   O     O_3   0.477222 0.727050 0.669227 -0.571140
C53   C     C_3   0.492921 0.784799 0.633009 0.065452
H22   H     H_    0.524342 0.844651 0.672908 0.116988
H23   H     H_    0.357421 0.787714 0.602913 0.100956
C54   C     C_3   0.658552 0.762143 0.577964 -0.254646
H24   H     H_    0.795000 0.757623 0.606347 0.194717
H25   H     H_    0.626653 0.703151 0.537259 0.212657
C55   C     C_3   0.685499 0.823507 0.538246 -0.885543
H26   H     H_    0.551397 0.828236 0.508656 0.231032
H27   H     H_    0.805199 0.804635 0.498201 0.234591
H28   H     H_    0.722131 0.882941 0.577503 0.238660
O22   O     O_3   0.947647 0.295798 0.575986 -0.572775
C56   C     C_3   0.891695 0.253029 0.503663 0.118699
H29   H     H_    0.970999 0.279632 0.466899 0.150593
H30   H     H_    0.734678 0.257326 0.492550 0.074385
C57   C     C_3   0.948221 0.165154 0.484351 -0.348132
H31   H     H_    0.104464 0.160985 0.495616 0.201487
H32   H     H_    0.863611 0.136686 0.518428 0.194078
C58   C     C_3   0.909217 0.120105 0.404263 -0.824269
H33   H     H_    0.753442 0.123057 0.391798 0.234062
H34   H     H_    0.949603 0.056458 0.392053 0.235173
H35   H     H_    0.996302 0.146154 0.368969 0.227511
C59   C     C_3   0.895379 0.531998 0.282894 -0.358001
C60   C     C_3   0.950444 0.482116 0.204604 -0.336340
C61   C     C_3   0.865992 0.397824 0.184039 -0.761023
H36   H     H_    0.935460 0.364572 0.216902 0.232438
H37   H     H_    0.707239 0.399703 0.193247 0.236544
H38   H     H_    0.895201 0.365744 0.125713 0.217845
H39   H     H_    0.897590 0.510481 0.164907 0.206715
H40   H     H_    0.110497 0.477785 0.199549 0.198252
H41   H     H_    0.928212 0.494216 0.316948 0.191289
H42   H     H_    0.737244 0.542715 0.287810 0.162351

loop_
_geom_bond_atom_site_label_1
_geom_bond_atom_site_label_2
_ccdc_geom_bond_type
C46   H20   S    
C7    C51   S    
O15   V3    S    
C20   C21   A    
C1    O6    A    
C35   C36   A    
C35   C40   A    
C31   C32   A    
C34   C35   A    
C55   H27   S    
C1    C41   S    
C11   C12   A    
C22   C23   A    
C27   H11   S    
C15   C20   A    
C21   C22   A    
C11   C59   S    
C6    H1    S    
C14   C17   A    
O14   V3    S    
O5    C3    A    
C15   C16   A    
C54   H25   S    
O14   C50   A    
C27   C32   A    
O18   V4    S    
C58   H33   S    
C54   C55   S    
C19   C20   A    
C56   H29   S    
O8    V2    S    
C40   C41   A    
C26   H8    S    
O1    V2    S    
O13   V3    S    
C22   H9    S    
C5    O21   S    
C23   H10   S    
C43   C48   A    
O12   C49   A    
C30   C33   A    
C28   C50   S    
C24   H7    S    
C57   C58   S    
C39   H17   S    
C37   C38   A    
C41   C42   A    
O9    C4    A    
C21   C26   A    
O19   C52   A    
O4    V1    S    
C28   C29   A    
C46   C47   A    
C55   H28   S    
O11   V4    S    
C44   H19   S    
C3    C12   S    
C59   H42   S    
C18   C19   A    
C45   C46   A    
C43   C44   A    
C24   C25   A    
C47   C48   A    
C49   O16   A    
C36   C37   A    
C34   H14   S    
O17   V4    S    
C19   C24   A    
C60   H39   S    
C38   C39   A    
O13   C52   A    
O2    C1    A    
C14   C15   A    
C53   H22   S    
C38   H16   S    
C9    H3    S    
V4    O20   S    
C33   C34   A    
C5    C6    A    
C37   C42   A    
C42   H15   S    
V3    O20   S    
O19   V4    S    
C56   C57   S    
C60   C61   S    
O3    C4    A    
C44   C45   A    
C25   C26   A    
C2    C48   S    
O21   C53   S    
O6    V2    S    
C8    C9    A    
C25   C52   S    
C61   H37   S    
O2    V1    S    
C59   C60   S    
O4    C2    A    
C57   H31   S    
O7    V1    S    
C13   C14   A    
C53   H23   S    
O1    C2    A    
C18   H6    S    
C43   H18   S    
O5    V1    S    
C33   H13   S    
C31   C36   A    
C59   H41   S    
C16   C23   A    
C60   H40   S    
C32   C39   A    
O12   V3    S    
C55   H26   S    
C58   H35   S    
C5    C10   A    
C17   C18   A    
C61   H38   S    
O9    V2    S    
O7    V2    S    
C29   C30   A    
O3    V1    S    
V1    O10   S    
O22   C56   S    
O17   V3    S    
C40   O22   S    
O16   V4    S    
O11   C50   A    
O15   C51   A    
C13   H4    S    
O18   C51   A    
C17   H5    S    
C58   H34   S    
C6    C7    A    
C9    C10   A    
C4    C10   S    
C54   H24   S    
C56   H30   S    
C47   H21   S    
C11   C16   A    
C53   C54   S    
C7    C8    A    
C27   C28   A    
C12   C13   A    
C61   H36   S    
C8    H2    S    
C45   C49   S    
C29   H12   S    
V2    O10   S    
O8    C3    A    
C30   C31   A    
C57   H32   S    
