data_mof_unit_33638.cif
_audit_creation_date              2013-03-05T15:51:27-0500
_audit_creation_method            fapswitch 2.2
_symmetry_space_group_name_H-M    P1
_symmetry_Int_Tables_number       1
_space_group_crystal_system       triclinic
_cell_length_a                    19.243035
_cell_length_b                    10.994032
_cell_length_c                    18.691762
_cell_angle_alpha                 89.710498
_cell_angle_beta                  89.93869
_cell_angle_gamma                 90.027895
_cell_volume                      3954.34870502

loop_
_atom_site_label
_atom_site_type_symbol
_atom_site_description
_atom_site_fract_x
_atom_site_fract_y
_atom_site_fract_z
_atom_type_partial_charge
O1    O     O_R   0.957020 0.451640 0.669920 -0.513163
O2    O     O_R   0.042980 0.451640 0.330080 -0.516890
O3    O     O_R   0.457020 0.951640 0.669920 -0.523483
O4    O     O_R   0.542980 0.951640 0.330080 -0.507751
O5    O     O_R   0.821450 0.543440 0.674610 -0.503928
O6    O     O_R   0.178550 0.543440 0.325390 -0.504891
O7    O     O_R   0.321450 0.043440 0.674610 -0.507957
O8    O     O_R   0.678550 0.043440 0.325390 -0.499798
C1    C     C_R   0.761732 0.532244 0.646024 0.527934
C2    C     C_R   0.239779 0.535221 0.353304 0.519909
C3    C     C_R   0.261017 0.034385 0.646908 0.524880
C4    C     C_R   0.739603 0.034869 0.353381 0.525000
O9    O     O_R   0.715320 0.458650 0.668100 -0.521375
O10   O     O_R   0.284680 0.458650 0.331900 -0.533365
O11   O     O_R   0.215320 0.958650 0.668100 -0.523741
O12   O     O_R   0.784680 0.958650 0.331900 -0.527122
O13   O     O_R   0.737170 0.209590 0.674530 -0.487236
O14   O     O_R   0.262830 0.209590 0.325470 -0.503056
O15   O     O_R   0.237170 0.709590 0.674530 -0.493497
O16   O     O_R   0.762830 0.709590 0.325470 -0.500126
C5    C     C_R   0.791426 0.171870 0.638960 0.553870
C6    C     C_R   0.208723 0.170039 0.361074 0.551283
C7    C     C_R   0.291649 0.672352 0.638973 0.553101
C8    C     C_R   0.726437 0.624580 0.353279 0.548558
O17   O     O_R   0.832710 0.092740 0.669580 -0.503877
O18   O     O_R   0.167290 0.092740 0.330420 -0.504220
O19   O     O_R   0.332710 0.592740 0.669580 -0.512598
O20   O     O_R   0.667290 0.592740 0.330420 -0.501529
O21   O     O_R   0.946290 0.250060 0.676040 -0.519278
O22   O     O_R   0.053710 0.250060 0.323960 -0.523470
O23   O     O_R   0.446290 0.750060 0.676040 -0.520955
O24   O     O_R   0.553710 0.750060 0.323960 -0.507152
C9    C     C_R   0.971088 0.347730 0.646187 0.530064
C10   C     C_R   0.026456 0.344260 0.351584 0.516020
C11   C     C_R   0.470808 0.847822 0.645967 0.516497
C12   C     C_R   0.526377 0.844068 0.351493 0.535158
O25   O     O_R   0.956270 0.452200 0.830470 -0.427392
O26   O     O_R   0.043730 0.452200 0.169530 -0.443250
O27   O     O_R   0.456270 0.952200 0.830470 -0.442098
O28   O     O_R   0.543730 0.952200 0.169530 -0.430372
O29   O     O_R   0.820760 0.543950 0.823440 -0.480673
O30   O     O_R   0.179240 0.543950 0.176560 -0.432875
O31   O     O_R   0.320760 0.043950 0.823440 -0.433333
O32   O     O_R   0.679240 0.043950 0.176560 -0.481575
C13   C     C_R   0.757382 0.538563 0.848700 0.540145
C14   C     C_R   0.240901 0.535265 0.149499 0.561283
C15   C     C_R   0.259111 0.034978 0.850507 0.559840
C16   C     C_R   0.742654 0.038835 0.151304 0.539330
O33   O     O_R   0.714570 0.459210 0.828640 -0.485498
O34   O     O_R   0.285430 0.459210 0.171360 -0.511778
O35   O     O_R   0.214570 0.959210 0.828640 -0.513010
O36   O     O_R   0.785430 0.959210 0.171360 -0.485083
O37   O     O_R   0.736470 0.210100 0.823360 -0.423296
O38   O     O_R   0.263530 0.210100 0.176640 -0.474265
O39   O     O_R   0.236470 0.710100 0.823360 -0.474095
O40   O     O_R   0.763530 0.710100 0.176640 -0.431452
C17   C     C_R   0.791563 0.172750 0.860142 0.526405
C18   C     C_R   0.225746 0.131067 0.145290 0.572709
C19   C     C_R   0.274231 0.630648 0.854615 0.573420
C20   C     C_R   0.708692 0.672563 0.139601 0.522458
O41   O     O_R   0.831960 0.093290 0.830130 -0.519191
O42   O     O_R   0.168040 0.093290 0.169870 -0.522244
O43   O     O_R   0.331960 0.593290 0.830130 -0.521089
O44   O     O_R   0.668040 0.593290 0.169870 -0.526693
O45   O     O_R   0.945600 0.250580 0.824860 -0.526570
O46   O     O_R   0.054400 0.250580 0.175140 -0.514505
O47   O     O_R   0.445600 0.750580 0.824860 -0.512295
O48   O     O_R   0.554400 0.750580 0.175140 -0.528952
C21   C     C_R   0.937263 0.350905 0.860478 0.558427
C22   C     C_R   0.028666 0.347173 0.147395 0.577726
C23   C     C_R   0.471305 0.846994 0.852682 0.579926
C24   C     C_R   0.562880 0.851330 0.139566 0.557004
Cr1   Cr    Cr6+3 0.885860 0.491680 0.749630 1.080642
Cr2   Cr    Cr6+3 0.114140 0.491680 0.250370 1.105404
Cr3   Cr    Cr6+3 0.385860 0.991680 0.749630 1.105129
Cr4   Cr    Cr6+3 0.614140 0.991680 0.250370 1.084232
Cr5   Cr    Cr6+3 0.730490 0.332970 0.748720 1.079915
Cr6   Cr    Cr6+3 0.269510 0.332970 0.251280 1.068164
Cr7   Cr    Cr6+3 0.230490 0.832970 0.748720 1.072747
Cr8   Cr    Cr6+3 0.769510 0.832970 0.251280 1.075103
Cr9   Cr    Cr6+3 0.887570 0.179310 0.750150 1.017597
Cr10  Cr    Cr6+3 0.112430 0.179310 0.249850 1.033477
Cr11  Cr    Cr6+3 0.387570 0.679310 0.750150 1.033900
Cr12  Cr    Cr6+3 0.612430 0.679310 0.249850 1.021772
O49   O     O_3   0.834640 0.334650 0.749500 -0.344523
O50   O     O_3   0.165360 0.334650 0.250500 -0.294084
O51   O     O_3   0.334640 0.834650 0.749500 -0.297818
O52   O     O_3   0.665360 0.834650 0.250500 -0.320999
C25   C     C_R   0.757992 0.105421 0.416856 0.007333
C26   C     C_R   0.252590 0.079052 0.575514 0.035713
C27   C     C_R   0.259117 0.607017 0.416275 0.009566
C28   C     C_R   0.757418 0.564189 0.572358 0.037298
C29   C     C_R   0.708497 0.169418 0.456334 0.014499
C30   C     C_R   0.202993 0.167295 0.559917 0.012646
C31   C     C_R   0.211030 0.675851 0.454814 0.014942
C32   C     C_R   0.708636 0.648026 0.549119 0.005037
C33   C     C_R   0.720370 0.196198 0.527646 0.027624
C34   C     C_R   0.189351 0.197463 0.489351 0.011342
C35   C     C_R   0.222755 0.702083 0.526288 0.023951
C36   C     C_R   0.700109 0.666667 0.476817 0.048704
C37   C     C_R   0.836428 0.117503 0.518896 -0.169361
C38   C     C_R   0.266654 0.038654 0.449177 -0.126573
C39   C     C_R   0.337057 0.616059 0.519084 -0.167749
C40   C     C_R   0.779421 0.502805 0.449828 -0.160722
C41   C     C_R   0.824851 0.091554 0.446799 -0.158808
C42   C     C_R   0.281784 0.010137 0.520043 -0.129159
C43   C     C_R   0.325531 0.589874 0.446937 -0.157421
C44   C     C_R   0.790237 0.486679 0.522930 -0.117129
C45   C     C_3   0.633363 0.144056 0.469135 -0.254859
C46   C     C_3   0.201999 0.297525 0.582418 -0.273955
C47   C     C_3   0.134995 0.658778 0.466423 -0.257503
C48   C     C_3   0.704914 0.781085 0.564578 -0.288930
C49   C     C_3   0.646514 0.171976 0.547411 -0.259675
C50   C     C_3   0.187290 0.330134 0.505062 -0.285362
C51   C     C_3   0.148094 0.684638 0.545026 -0.260396
C52   C     C_3   0.695421 0.801236 0.484936 -0.261745
C53   C     C_R   0.781879 0.159899 0.561724 -0.003328
C54   C     C_R   0.223385 0.137658 0.433854 0.032580
C55   C     C_R   0.282948 0.661856 0.561357 -0.001931
C56   C     C_R   0.737926 0.599159 0.427045 0.030938
H1    H     H_    0.886136 0.095129 0.542330 0.157484
H2    H     H_    0.289710 0.985779 0.406550 0.134574
H3    H     H_    0.386172 0.590951 0.542978 0.157264
H4    H     H_    0.804619 0.443451 0.411718 0.114158
H5    H     H_    0.866015 0.047595 0.417188 0.143560
H6    H     H_    0.315979 0.934232 0.531692 0.120489
H7    H     H_    0.366134 0.543003 0.418032 0.143921
H8    H     H_    0.823944 0.413904 0.541076 0.119184
H9    H     H_    0.117096 0.564677 0.455964 0.156987
H10   H     H_    0.754653 0.818361 0.585404 0.156003
H11   H     H_    0.618979 0.047740 0.459531 0.154230
H12   H     H_    0.253528 0.330137 0.601358 0.158747
H13   H     H_    0.599382 0.212090 0.442373 0.148781
H14   H     H_    0.157737 0.317773 0.618761 0.144943
H15   H     H_    0.104022 0.730801 0.439412 0.147632
H16   H     H_    0.658126 0.805161 0.596390 0.140665
H17   H     H_    0.619542 0.255223 0.566005 0.138763
H18   H     H_    0.134731 0.368858 0.496721 0.135173
H19   H     H_    0.123633 0.770042 0.563704 0.141932
H20   H     H_    0.643206 0.836289 0.470523 0.136448
H21   H     H_    0.640717 0.091087 0.582921 0.146905
H22   H     H_    0.230522 0.380591 0.479099 0.146688
H23   H     H_    0.139683 0.604002 0.580160 0.146657
H24   H     H_    0.739894 0.849510 0.459777 0.154058
C57   C     C_R   0.990355 0.330406 0.421172 -0.041634
C58   C     C_R   0.997565 0.346847 0.571514 -0.048448
C59   C     C_R   0.489740 0.829194 0.420740 -0.043598
C60   C     C_R   0.496647 0.847148 0.571013 -0.044293
C61   C     C_R   0.006034 0.106870 0.432048 -0.083160
C62   C     C_R   0.031621 0.131025 0.577752 -0.082685
C63   C     C_R   0.507536 0.606183 0.432312 -0.077645
C64   C     C_R   0.533389 0.632609 0.577828 -0.087392
C65   C     C_R   0.023995 0.005328 0.472932 -0.131103
C66   C     C_R   0.038225 0.017957 0.545346 -0.118245
C67   C     C_R   0.526968 0.505687 0.473403 -0.129432
C68   C     C_R   0.541440 0.519521 0.545690 -0.118377
C69   C     C_R   0.010176 0.234126 0.538011 -0.011507
C70   C     C_R   0.002207 0.223955 0.463003 0.004943
C71   C     C_R   0.510594 0.734578 0.537844 -0.013450
C72   C     C_R   0.502592 0.723441 0.462899 0.004640
H25   H     H_    0.026896 0.916676 0.448245 0.108965
H26   H     H_    0.053310 0.939829 0.576969 0.114039
H27   H     H_    0.530997 0.416930 0.448969 0.109811
H28   H     H_    0.558012 0.442249 0.577323 0.117862
H29   H     H_    0.992338 0.091555 0.376754 0.141023
H30   H     H_    0.044930 0.137478 0.633822 0.139490
H31   H     H_    0.493821 0.589949 0.377111 0.139266
H32   H     H_    0.546626 0.640068 0.633871 0.141207
C73   C     C_R   0.985967 0.453003 0.528110 0.001037
C74   C     C_R   0.971014 0.438787 0.455170 -0.002212
C75   C     C_R   0.483395 0.952412 0.527232 0.005005
C76   C     C_R   0.468724 0.936800 0.454309 -0.003478
C77   C     C_R   0.987892 0.573996 0.554696 -0.075644
C78   C     C_R   0.942467 0.537337 0.415998 -0.076743
C79   C     C_R   0.483774 0.073895 0.553204 -0.074897
C80   C     C_R   0.438964 0.033497 0.414596 -0.080614
C81   C     C_R   0.962156 0.671506 0.514772 -0.131942
C82   C     C_R   0.937002 0.652293 0.446251 -0.114090
C83   C     C_R   0.457229 0.169970 0.512599 -0.134792
C84   C     C_R   0.432374 0.148814 0.444150 -0.115615
H33   H     H_    0.925023 0.525463 0.361376 0.137799
H34   H     H_    0.011392 0.596100 0.605445 0.148875
H35   H     H_    0.422022 0.020129 0.359930 0.145149
H36   H     H_    0.507147 0.097877 0.603699 0.149387
H37   H     H_    0.962080 0.762156 0.537063 0.110910
H38   H     H_    0.915874 0.727321 0.415506 0.126830
H39   H     H_    0.456390 0.261093 0.534251 0.111100
H40   H     H_    0.410643 0.222706 0.412900 0.131723
C85   C     C_R   0.761221 0.083571 0.080210 0.122681
C86   C     C_R   0.245161 0.076209 0.922509 0.081882
C87   C     C_R   0.254815 0.576534 0.077378 0.080964
C88   C     C_R   0.738859 0.583221 0.919659 0.122527
C89   C     C_R   0.775083 0.994853 0.029355 -0.035543
C90   C     C_R   0.206416 0.996808 0.965205 -0.011896
C91   C     C_R   0.293691 0.497183 0.035308 -0.011529
C92   C     C_R   0.724965 0.494594 0.971076 -0.036123
C93   C     C_R   0.780468 0.023324 0.957298 0.020114
C94   C     C_R   0.204159 0.010173 0.038377 -0.018046
C95   C     C_R   0.295904 0.509845 0.962094 -0.019099
C96   C     C_R   0.719721 0.523012 0.043053 0.020660
C97   C     C_R   0.791068 0.232940 0.989686 -0.181262
C98   C     C_R   0.276311 0.186898 0.028488 -0.048033
C99   C     C_R   0.223721 0.686657 0.970777 -0.047895
C100  C     C_R   0.709378 0.732625 0.009497 -0.180436
C101  C     C_R   0.778114 0.203842 0.062197 -0.083688
C102  C     C_R   0.276094 0.177223 0.953918 -0.036928
C103  C     C_R   0.223905 0.677351 0.045358 -0.037329
C104  C     C_R   0.722152 0.703513 0.937090 -0.081865
C105  C     C_3   0.837063 0.911206 0.026379 -0.047978
C106  C     C_3   0.129378 0.976943 0.960729 -0.065538
C107  C     C_3   0.370699 0.477725 0.040149 -0.065461
C108  C     C_3   0.662907 0.411134 0.974512 -0.048162
C109  C     C_3   0.839781 0.936824 0.947267 -0.211572
C110  C     C_3   0.127373 0.993518 0.040451 -0.276606
C111  C     C_3   0.372724 0.493007 0.960228 -0.276376
C112  C     C_3   0.660269 0.436575 0.053505 -0.212262
C113  C     C_R   0.781635 0.144782 0.935993 0.054956
C114  C     C_R   0.241526 0.101558 0.071647 0.070270
C115  C     C_R   0.258548 0.601122 0.928289 0.070040
C116  C     C_R   0.718829 0.644509 0.063788 0.057818
H41   H     H_    0.808352 0.322821 0.975270 0.097946
H42   H     H_    0.298973 0.264871 0.052748 0.143652
H43   H     H_    0.201145 0.764589 0.945931 0.144405
H44   H     H_    0.692089 0.822491 0.023333 0.098393
H45   H     H_    0.782005 0.272803 0.103072 0.119930
H46   H     H_    0.298934 0.247652 0.921193 0.156739
H47   H     H_    0.201102 0.747848 0.077608 0.156685
H48   H     H_    0.718310 0.772545 0.895839 0.121803
H49   H     H_    0.824871 0.816575 0.040448 0.206286
H50   H     H_    0.114241 0.884204 0.945062 0.198710
H51   H     H_    0.385764 0.385363 0.057154 0.199110
H52   H     H_    0.675028 0.316571 0.960902 0.206729
H53   H     H_    0.888566 0.980787 0.928875 0.187965
H54   H     H_    0.099688 0.076527 0.057833 0.169867
H55   H     H_    0.400583 0.575585 0.941867 0.170140
H56   H     H_    0.611533 0.480554 0.071656 0.187778
H57   H     H_    0.824931 0.859574 0.913041 0.197708
H58   H     H_    0.115097 0.909623 0.070676 0.176888
H59   H     H_    0.384984 0.408445 0.931138 0.176346
H60   H     H_    0.674970 0.359015 0.088043 0.195699
C117  C     C_R   0.988366 0.341311 0.081859 0.022163
C118  C     C_R   0.949962 0.343909 0.936546 0.021136
C119  C     C_R   0.550290 0.844425 0.063515 0.021917
C120  C     C_R   0.511677 0.841314 0.918256 0.022507
C121  C     C_R   0.968363 0.448156 0.047115 -0.004035
C122  C     C_R   0.951929 0.449880 0.976221 -0.026204
C123  C     C_R   0.547908 0.950283 0.023323 -0.025609
C124  C     C_R   0.531595 0.948470 0.952394 -0.002871
C125  C     C_R   0.957453 0.232578 0.973379 -0.110580
C126  C     C_R   0.978359 0.231685 0.045335 -0.104842
C127  C     C_R   0.521988 0.731828 0.955381 -0.104979
C128  C     C_R   0.543074 0.732996 0.027276 -0.110420
C129  C     C_3   0.991347 0.578833 0.046791 0.371554
C130  C     C_3   0.979869 0.576655 0.964554 0.371565
C131  C     C_3   0.519631 0.076566 0.034601 0.372003
C132  C     C_3   0.508378 0.079162 0.952354 0.370276
H61   H     H_    0.953309 0.147416 0.945424 0.160010
H62   H     H_    0.992683 0.147128 0.070153 0.165428
H63   H     H_    0.507741 0.647156 0.931131 0.165052
H64   H     H_    0.547431 0.647849 0.055702 0.160321
C133  C     C_2   0.902614 0.950813 0.063227 0.600784
O53   O     O_2   0.901374 0.017881 0.115108 -0.520555
O54   O     O_R   0.965524 0.903829 0.039367 -0.646495
H65   H     H_    0.003492 0.921859 0.074775 0.344606
C134  C     C_2   0.092470 0.071003 0.916008 0.581702
O55   O     O_2   0.100808 0.179682 0.926943 -0.492946
O56   O     O_R   0.052574 0.031685 0.858211 -0.658846
H66   H     H_    0.038651 0.100669 0.825294 0.353468
C135  C     C_2   0.407266 0.572848 0.083856 0.580996
O57   O     O_2   0.398991 0.681245 0.071365 -0.492096
O58   O     O_R   0.446495 0.534937 0.142660 -0.661406
H67   H     H_    0.459633 0.604617 0.175011 0.353924
C136  C     C_2   0.597440 0.450919 0.937355 0.601262
O59   O     O_2   0.598804 0.518738 0.885409 -0.519898
O60   O     O_R   0.534488 0.403245 0.960982 -0.646262
H68   H     H_    0.496616 0.421619 0.925412 0.344650
N1    N     N_R   0.064623 0.596236 0.064974 0.100880
O61   O     O_R   0.085008 0.693955 0.097459 -0.346720
O62   O     O_R   0.110172 0.514036 0.047375 -0.337581
N2    N     N_R   0.928222 0.661665 0.936665 0.092333
O63   O     O_R   0.941430 0.729637 0.881075 -0.279069
O64   O     O_R   0.865368 0.656913 0.960513 -0.398692
N3    N     N_R   0.570988 0.161897 0.062323 0.093238
O65   O     O_R   0.556925 0.231224 0.116683 -0.280092
O66   O     O_R   0.634331 0.155777 0.040042 -0.399215
N4    N     N_R   0.435127 0.096350 0.933913 0.100237
O67   O     O_R   0.414773 0.193351 0.900112 -0.345408
O68   O     O_R   0.389644 0.013984 0.952029 -0.336788
N5    N     N_R   0.942211 0.650329 0.091172 0.105664
O69   O     O_R   0.877499 0.616384 0.095084 -0.339386
O70   O     O_R   0.964689 0.719677 0.142384 -0.279797
N6    N     N_R   0.045096 0.579522 0.922554 0.120630
O71   O     O_R   0.077743 0.480052 0.905357 -0.276813
O72   O     O_R   0.074351 0.683145 0.907763 -0.311378
N7    N     N_R   0.454329 0.078318 0.076481 0.120604
O73   O     O_R   0.422122 0.978316 0.094192 -0.277534
O74   O     O_R   0.424594 0.181439 0.090697 -0.314102
N8    N     N_R   0.557599 0.151626 0.908160 0.105359
O75   O     O_R   0.622473 0.118647 0.905011 -0.336559
O76   O     O_R   0.535377 0.221713 0.856788 -0.278590

loop_
_geom_bond_atom_site_label_1
_geom_bond_atom_site_label_2
_geom_bond_distance
_ccdc_geom_bond_type
O4    C12   1.286659 A    
C69   C70   1.415549 A    
O25   C21   1.296702 A    
C39   H3    1.081119 S    
Cr7   O51   2.004309 S    
C58   C69   1.412307 A    
C117  C121  1.393910 A    
O39   C19   1.276196 A    
C108  H52   1.096693 S    
C31   C35   1.386859 A    
C21   C118  1.444613 S    
C34   C50   1.489852 S    
O58   H67   1.010556 S    
O21   C9    1.298070 A    
C1    O9    1.271885 A    
O44   Cr12  2.070328 S    
C5    C53   1.462093 S    
C3    O11   1.272261 A    
C86   C102  1.392479 A    
C64   C68   1.392184 A    
C102  H46   1.077583 S    
C63   C67   1.393882 A    
O2    C10   1.284876 A    
C121  C122  1.362719 A    
O17   Cr9   2.074900 S    
C24   C119  1.444640 S    
C94   C114  1.385541 A    
C109  H53   1.109160 S    
O9    Cr5   2.060467 S    
O31   Cr3   1.951400 S    
C8    C56   1.422996 S    
O16   Cr8   1.939062 S    
C45   H13   1.111166 S    
C27   C43   1.413510 A    
O54   H65   1.006638 S    
C121  C129  1.502972 S    
C105  C109  1.504791 S    
O28   Cr4   2.077942 S    
C65   H25   1.081900 S    
O12   Cr8   2.070464 S    
O22   Cr10  1.951694 S    
O15   C7    1.307685 A    
O46   Cr10  1.950420 S    
O48   C24   1.299159 A    
C95   C115  1.385024 A    
C16   C85   1.458649 S    
C51   H19   1.108347 S    
C2    C27   1.468674 S    
C135  O58   1.396138 S    
C96   C116  1.392819 A    
C49   H17   1.109547 S    
C111  H59   1.104843 S    
N8    O75   1.301488 A    
C94   C110  1.489236 S    
C128  H64   1.077408 S    
C74   C78   1.416047 A    
C6    C54   1.432832 S    
C57   C74   1.403473 A    
C118  C125  1.408813 A    
Cr12  O52   1.988146 S    
C79   C83   1.394961 A    
C17   O41   1.298773 A    
C19   O43   1.270216 A    
C41   H5    1.081424 S    
C20   O44   1.298092 A    
N6    O72   1.298871 A    
O1    Cr1   2.071608 S    
Cr8   O52   2.004326 S    
N4    O68   1.302385 A    
O46   C22   1.279610 A    
C99   C103  1.397296 A    
C63   H31   1.080990 S    
C33   C53   1.401956 A    
C35   C55   1.402181 A    
C92   C108  1.506738 S    
C16   O36   1.257953 A    
C131  N3    1.459581 S    
C67   C68   1.388951 A    
C107  C135  1.505114 S    
O27   C23   1.260804 A    
C39   C43   1.398284 A    
O31   C15   1.292720 A    
O32   C16   1.309277 A    
O47   Cr11  1.955646 S    
C26   C30   1.391287 A    
C97   H41   1.075395 S    
C14   C87   1.444907 S    
C40   C56   1.392152 A    
N7    O74   1.298717 A    
C108  C136  1.503367 S    
O5    C1    1.273981 A    
C125  C126  1.404256 A    
C95   C111  1.490269 S    
O24   C12   1.270830 A    
C110  H58   1.104509 S    
C23   C120  1.452950 S    
C7    C55   1.465708 S    
C129  C130  1.553473 S    
C62   H30   1.081834 S    
O8    Cr4   1.958944 S    
O32   Cr4   1.946930 S    
C61   C65   1.393562 A    
C52   H24   1.109675 S    
C28   C44   1.409189 A    
O11   Cr7   2.060467 S    
O27   Cr3   2.075025 S    
O3    Cr3   2.071608 S    
C61   C70   1.415874 A    
C46   C50   1.514948 S    
C64   C71   1.414372 A    
Cr5   O49   2.004309 S    
N1    O61   1.297479 A    
C48   H16   1.111285 S    
C59   C72   1.423142 A    
C1    C28   1.421825 S    
C34   C54   1.393963 A    
C91   C95   1.375456 A    
O22   C10   1.272620 A    
C112  H60   1.104068 S    
C4    O12   1.272471 A    
C61   H29   1.080894 S    
N2    O63   1.301577 A    
C2    O10   1.272260 A    
C67   H27   1.082262 S    
C82   H38   1.082584 S    
C132  N8    1.484959 S    
C90   C106  1.500815 S    
O3    C11   1.256509 A    
O8    C4    1.289878 A    
N5    O69   1.301665 A    
C132  N4    1.463561 S    
C87   C103  1.391117 A    
C44   H8    1.083582 S    
C101  H45   1.081705 S    
C134  O56   1.396260 S    
Cr1   O49   1.987533 S    
C129  N1    1.463496 S    
Cr3   O51   1.987533 S    
C46   H14   1.112181 S    
C29   C33   1.385700 A    
C48   C52   1.515213 S    
C59   C76   1.401507 A    
O26   Cr2   2.077942 S    
C5    O17   1.308488 A    
O29   C13   1.308525 A    
O28   C24   1.298279 A    
O14   C6    1.308120 A    
C66   H26   1.080247 S    
C8    O20   1.265973 A    
O56   H66   1.010620 S    
C105  C133  1.503150 S    
C40   H4    1.082887 S    
O40   Cr8   1.950305 S    
C98   C114  1.403472 A    
C15   C86   1.447187 S    
C38   H2    1.083415 S    
C104  H48   1.081770 S    
C18   C114  1.447745 S    
C90   C94   1.376966 A    
C19   C115  1.444762 S    
C32   C36   1.375880 A    
C96   C112  1.498886 S    
O33   Cr5   2.066889 S    
C11   C60   1.486190 S    
C50   H18   1.108400 S    
O5    Cr1   1.955175 S    
C87   C91   1.394773 A    
C9    C58   1.485417 S    
O29   Cr1   1.951400 S    
C85   C89   1.391090 A    
C80   C84   1.391259 A    
C58   C73   1.435674 A    
C25   C41   1.411616 A    
N3    O65   1.301540 A    
C97   C101  1.412890 A    
C48   H10   1.112466 S    
Cr9   O49   1.988894 S    
C76   C80   1.415164 A    
C29   C45   1.491146 S    
C18   O42   1.270112 A    
Cr11  O51   1.988894 S    
O26   C22   1.262236 A    
C120  C127  1.400677 A    
O20   Cr12  2.068380 S    
O60   H68   1.006864 S    
C36   C52   1.490750 S    
C127  C128  1.404286 A    
C118  C122  1.384732 A    
C107  H51   1.101535 S    
C100  C116  1.411392 A    
C88   C92   1.390779 A    
C62   C69   1.414031 A    
C20   C116  1.464630 S    
C22   C117  1.452204 S    
C35   C51   1.490474 S    
C130  N6    1.479999 S    
C83   H39   1.082488 S    
C30   C34   1.383865 A    
C60   C75   1.437065 A    
C81   H37   1.082143 S    
O30   C14   1.293117 A    
C84   H40   1.082613 S    
C127  H63   1.073061 S    
C130  N2    1.459463 S    
C47   H9    1.108600 S    
C85   C101  1.400809 A    
C45   H11   1.109886 S    
C46   H12   1.113012 S    
C78   C82   1.391164 A    
O42   Cr10  2.070328 S    
O18   Cr10  2.068380 S    
C135  O57   1.223729 D    
C110  H54   1.106943 S    
N8    O76   1.300906 A    
C93   C113  1.391658 A    
O34   Cr6   2.056526 S    
C64   H32   1.081832 S    
O6    Cr2   1.958944 S    
O24   Cr12  1.951694 S    
C39   C55   1.401709 A    
O30   Cr2   1.946930 S    
O48   Cr12  1.950420 S    
C26   C42   1.404225 A    
C131  N7    1.479960 S    
N7    O73   1.302942 A    
O37   C17   1.328298 A    
C15   O35   1.264551 A    
C122  C130  1.508374 S    
Cr10  O50   1.988146 S    
C30   C46   1.494413 S    
C37   H1    1.080448 S    
C120  C124  1.396295 A    
O43   Cr11  2.062938 S    
C60   C71   1.412726 A    
O37   Cr5   1.940593 S    
O21   Cr9   1.945667 S    
O39   Cr7   1.940593 S    
C13   C88   1.460495 S    
O45   Cr9   1.955646 S    
C71   C72   1.415371 A    
C13   O33   1.258441 A    
O13   Cr5   1.948927 S    
C106  H50   1.101380 S    
C99   H43   1.065497 S    
O15   Cr7   1.948927 S    
C103  H47   1.077547 S    
C106  C134  1.505244 S    
C119  C123  1.382832 A    
C112  H56   1.108972 S    
O23   C11   1.298686 A    
C40   C44   1.392841 A    
C93   C109  1.498207 S    
C117  C126  1.401470 A    
C125  H61   1.077482 S    
O6    C2    1.292116 A    
C42   H6    1.084334 S    
C37   C53   1.400841 A    
O19   Cr11  2.074900 S    
C57   C70   1.422813 A    
C47   H15   1.110949 S    
C133  O53   1.221406 D    
C17   C113  1.461549 S    
O45   C21   1.301117 A    
O47   C23   1.282291 A    
O13   C5    1.306059 A    
C83   C84   1.387091 A    
O40   C20   1.329356 A    
C81   C82   1.386822 A    
C6    O18   1.300554 A    
O41   Cr9   2.062938 S    
O36   Cr8   2.056526 S    
C79   H36   1.079784 S    
O38   Cr6   1.950305 S    
C123  C131  1.507150 S    
C80   H35   1.083582 S    
C107  C111  1.502895 S    
C75   C76   1.403643 A    
N3    O66   1.289586 A    
C73   C74   1.403199 A    
C98   H42   1.065194 S    
C28   C32   1.384588 A    
C92   C96   1.386306 A    
O1    C9    1.257096 A    
O7    C3    1.277525 A    
C32   C48   1.494289 S    
C50   H22   1.109620 S    
N6    O71   1.302943 A    
N2    O64   1.289523 A    
C109  H57   1.103575 S    
N4    O67   1.297684 A    
C10   C57   1.481091 S    
O23   Cr11  1.945667 S    
C12   C59   1.481537 S    
C136  O60   1.390364 S    
O16   C8    1.275851 A    
C49   H21   1.112485 S    
C36   C56   1.397125 A    
C7    O19   1.309298 A    
C134  O55   1.223721 D    
Cr4   O52   1.988344 S    
C38   C54   1.399382 A    
O14   Cr6   1.939062 S    
Cr6   O50   2.004326 S    
C100  H44   1.075363 S    
C25   C29   1.396809 A    
C88   C104  1.401090 A    
C78   H33   1.083572 S    
O35   Cr7   2.066889 S    
C37   C41   1.396989 A    
C51   H23   1.112266 S    
C108  C112  1.504973 S    
C4    C25   1.464402 S    
C111  H55   1.106981 S    
C133  O54   1.390330 S    
O7    Cr3   1.955175 S    
C106  C110  1.502618 S    
C75   C79   1.423398 A    
C91   C107  1.500092 S    
C89   C105  1.507569 S    
C77   C81   1.394495 A    
C136  O59   1.221469 D    
C105  H49   1.097020 S    
Cr2   O50   1.988344 S    
C100  C104  1.413620 A    
N1    O62   1.302416 A    
C62   C66   1.391356 A    
C33   C49   1.491555 S    
C131  C132  1.552874 S    
O38   C18   1.277670 A    
O25   Cr1   2.075025 S    
C73   C77   1.422814 A    
C119  C128  1.409718 A    
C129  N5    1.485157 S    
O2    Cr2   2.068125 S    
C77   H34   1.080063 S    
C123  C124  1.363008 A    
C124  C132  1.504898 S    
C45   C49   1.517971 S    
C14   O34   1.264263 A    
C99   C115  1.403985 A    
C63   C72   1.416062 A    
C97   C113  1.410544 A    
C31   C47   1.490540 S    
C3    C26   1.429057 S    
C89   C93   1.385002 A    
N5    O70   1.301007 A    
C38   C42   1.390808 A    
O10   Cr6   2.070464 S    
O4    Cr4   2.068125 S    
C86   C90   1.394932 A    
C68   H28   1.081021 S    
C27   C31   1.397366 A    
C98   C102  1.398452 A    
C47   C51   1.519187 S    
C43   H7    1.081768 S    
C65   C66   1.388883 A    
C126  H62   1.073103 S    
C52   H20   1.109307 S    
