data_mof_unit_36820.cif
_audit_creation_date              2012-12-10T18:47:48-0500
_audit_creation_method            fapswitch 2.2
_symmetry_space_group_name_H-M    P1
_symmetry_Int_Tables_number       1
_space_group_crystal_system       triclinic
_cell_length_a                    9.844955
_cell_length_b                    10.728982
_cell_length_c                    15.526244
_cell_angle_alpha                 90.106334
_cell_angle_beta                  67.779056
_cell_angle_gamma                 89.991415
_cell_volume                      1518.17974974

loop_
_atom_site_label
_atom_site_type_symbol
_atom_type_description
_atom_site_fract_x
_atom_site_fract_y
_atom_site_fract_z
_atom_type_partial_charge
C1    C     C_R   0.500018 0.740144 0.500032 0.869548
C2    C     C_R   0.374452 0.936176 0.502922 -0.193046
C3    C     C_R   0.500059 0.127386 0.499862 -0.015914
C4    C     C_R   0.500021 0.872600 0.500002 -0.014434
C5    C     C_R   0.963475 0.424566 0.440610 -0.087090
C6    C     C_R   0.036553 0.575501 0.559346 -0.083736
C7    C     C_R   0.107298 0.424545 0.440659 -0.072623
C8    C     C_R   0.892731 0.575535 0.559290 -0.067556
C9    C     C_R   0.408386 0.501949 0.675983 0.874843
C10   C     C_R   0.591517 0.501046 0.323986 0.872461
C11   C     C_R   0.350569 0.511104 0.777153 -0.059727
C12   C     C_R   0.500008 0.259852 0.499925 0.869609
C13   C     C_R   0.646491 0.519824 0.223683 -0.058602
C14   C     C_R   0.158326 0.481764 0.928138 -0.217820
C15   C     C_R   0.816226 0.615209 0.083490 -0.223358
C16   C     C_R   0.204606 0.482269 0.831559 -0.202775
C17   C     C_R   0.782273 0.575931 0.174909 -0.210079
C18   C     C_R   0.446894 0.546621 0.819340 -0.262223
C19   C     C_R   0.548022 0.500061 0.180201 -0.253312
C20   C     C_R   0.403066 0.547911 0.915929 0.096519
C21   C     C_R   0.573283 0.549474 0.092575 0.097836
C22   C     C_R   0.257441 0.511063 0.970582 0.177771
C23   C     C_R   0.316083 0.514958 0.107608 -0.229612
C24   C     C_R   0.712390 0.602705 0.042030 0.176686
C25   C     C_R   0.503996 0.574765 0.958751 0.069379
C26   C     C_R   0.464183 0.545301 0.053865 0.069819
C27   C     C_R   0.643553 0.628631 0.909739 -0.230432
C28   C     C_R   0.214101 0.500085 0.066494 -0.248377
C29   C     C_R   0.744998 0.643829 0.951453 -0.242087
C30   C     C_R   0.625616 0.936150 0.496999 -0.196237
C31   C     C_R   0.374484 0.063832 0.502827 -0.196152
C32   C     C_R   0.625649 0.063807 0.496904 -0.193649
H1    H     H_    0.449816 0.447547 0.217292 0.146160
H2    H     H_    0.276525 0.112244 0.505197 0.157043
H3    H     H_    0.937285 0.364275 0.393132 0.122357
H4    H     H_    0.062762 0.635831 0.606798 0.121005
H5    H     H_    0.190037 0.364152 0.393206 0.122481
H6    H     H_    0.810019 0.635996 0.606702 0.119122
H7    H     H_    0.102364 0.474880 0.109548 0.149081
H8    H     H_    0.850194 0.686246 0.912129 0.149216
H9    H     H_    0.723646 0.112199 0.494445 0.156906
H10   H     H_    0.276455 0.887783 0.505381 0.156584
H11   H     H_    0.558921 0.566089 0.775129 0.153073
H12   H     H_    0.859266 0.593184 0.208233 0.157023
H13   H     H_    0.128326 0.455697 0.799588 0.159855
H14   H     H_    0.046905 0.453771 0.969385 0.151572
H15   H     H_    0.921482 0.658750 0.046281 0.148063
H16   H     H_    0.274921 0.505072 0.182262 0.148475
H17   H     H_    0.675670 0.664096 0.839894 0.140619
H18   H     H_    0.723575 0.887735 0.494630 0.156630
N1    N     N_R   0.142780 0.500030 0.500020 -0.075201
N2    N     N_R   0.857220 0.499970 0.499980 -0.075200
O1    O     O_R   0.385370 0.683250 0.500010 -0.622952
O2    O     O_R   0.614630 0.316750 0.499990 -0.622326
O3    O     O_R   0.614700 0.683220 0.500000 -0.627333
O4    O     O_R   0.385300 0.316780 0.500000 -0.626053
O5    O     O_R   0.319830 0.500020 0.632250 -0.616961
O6    O     O_R   0.680170 0.499980 0.367750 -0.617699
O7    O     O_R   0.549160 0.499990 0.632240 -0.616746
O8    O     O_R   0.450840 0.500010 0.367760 -0.615161
Zn1   Zn    Zn3+2 0.346870 0.500020 0.500000 0.942938
Zn2   Zn    Zn3+2 0.653130 0.499980 0.500000 0.941797

loop_
_geom_bond_atom_site_label_1
_geom_bond_atom_site_label_2
_ccdc_geom_bond_type
C16   H13   S    
O6    Zn2   S    
C2    C4    A    
C21   C26   A    
C11   C18   A    
O5    Zn1   S    
C3    C12   S    
C15   H15   S    
C6    N1    A    
C27   C29   A    
C5    C7    A    
C11   C16   A    
C8    N2    A    
C10   O8    A    
N1    Zn1   S    
C13   C17   A    
C32   H9    S    
C1    C4    S    
C14   C22   A    
C1    O3    A    
C17   H12   S    
C7    N1    A    
C5    N2    A    
C22   C28   A    
C23   C28   A    
C3    C31   A    
C9    C11   S    
C12   O4    A    
C8    H6    S    
C2    H10   S    
C12   O2    A    
C5    H3    S    
C29   H8    S    
C15   C24   A    
C10   O6    A    
C6    H4    S    
C18   C20   A    
C7    H5    S    
C3    C32   A    
C30   H18   S    
C14   C16   A    
C21   C24   A    
C31   H2    S    
C25   C27   A    
C20   C25   A    
C13   C19   A    
C30   C32   A    
O3    Zn2   S    
C9    O5    A    
C14   H14   S    
C19   H1    S    
C23   C26   A    
C15   C17   A    
C1    O1    A    
C24   C29   A    
C2    C31   A    
O7    Zn2   S    
C6    C8    A    
C23   H16   S    
O2    Zn2   S    
C28   H7    S    
C19   C21   A    
C25   C26   A    
C18   H11   S    
O1    Zn1   S    
N2    Zn2   S    
C4    C30   A    
C27   H17   S    
C20   C22   A    
O8    Zn1   S    
C9    O7    A    
C10   C13   S    
O4    Zn1   S    
