data_mof_unit_11380.cif
_audit_creation_date              2013-03-05T16:31:42-0500
_audit_creation_method            fapswitch 2.2
_symmetry_space_group_name_H-M    P1
_symmetry_Int_Tables_number       1
_space_group_crystal_system       triclinic
_cell_length_a                    14.184184
_cell_length_b                    14.997063
_cell_length_c                    15.444436
_cell_angle_alpha                 89.444995
_cell_angle_beta                  66.97984
_cell_angle_gamma                 90.070513
_cell_volume                      3023.54878016

loop_
_atom_site_label
_atom_site_type_symbol
_atom_site_description
_atom_site_fract_x
_atom_site_fract_y
_atom_site_fract_z
_atom_type_partial_charge
O1    O     O_R   0.420530 0.630930 0.499990 -0.648676
O2    O     O_R   0.579470 0.369070 0.500010 -0.639711
O3    O     O_R   0.579480 0.630940 0.499990 -0.557927
O4    O     O_R   0.420520 0.369060 0.500010 -0.580078
C1    C     C_R   0.498071 0.672211 0.504542 0.956325
C2    C     C_R   0.500869 0.328301 0.498014 0.979279
O5    O     O_R   0.375120 0.499990 0.632240 -0.553438
O6    O     O_R   0.624880 0.500010 0.367760 -0.568073
O7    O     O_R   0.534080 0.500000 0.632240 -0.637501
O8    O     O_R   0.465920 0.500000 0.367760 -0.631701
C3    C     C_R   0.435315 0.494856 0.676743 0.970293
C4    C     C_R   0.564665 0.504207 0.323216 1.041922
Zn1   Zn    Zn3+2 0.393860 0.499990 0.500000 1.021066
Zn2   Zn    Zn3+2 0.606140 0.500010 0.500000 1.034052
C5    C     C_R   0.393500 0.478101 0.779185 -0.249137
C6    C     C_R   0.608199 0.508380 0.219712 -0.237631
C7    C     C_R   0.277654 0.410912 0.927322 0.319671
C8    C     C_R   0.738216 0.547439 0.065586 0.318058
C9    C     C_R   0.304608 0.425735 0.829610 0.338695
C10   C     C_R   0.700619 0.553498 0.164983 0.322442
C11   C     C_R   0.455439 0.506694 0.824450 -0.287585
C12   C     C_R   0.550117 0.468511 0.176155 -0.229339
C13   C     C_R   0.445110 0.470695 0.911233 0.046185
C14   C     C_R   0.575358 0.477868 0.079742 0.043701
C15   C     C_R   0.353488 0.424072 0.964605 -0.041431
C16   C     C_R   0.670312 0.518799 0.023781 -0.038005
C17   C     C_R   0.523326 0.481314 0.946320 0.120663
C18   C     C_R   0.504642 0.453304 0.039318 0.114794
C19   C     C_R   0.415111 0.402936 0.089119 -0.217165
C20   C     C_R   0.620685 0.516890 0.890464 -0.225442
C21   C     C_R   0.341752 0.388482 0.052337 -0.090138
C22   C     C_R   0.692506 0.534621 0.928244 -0.086646
H1    H     H_    0.276993 0.346818 0.092940 0.216093
H2    H     H_    0.762766 0.566550 0.882233 0.212803
H3    H     H_    0.479669 0.436947 0.221246 0.198059
H4    H     H_    0.516080 0.553355 0.787336 0.202872
H5    H     H_    0.400686 0.370555 0.155696 0.175797
H6    H     H_    0.644608 0.531012 0.816325 0.146204
C23   C     C_R   0.422195 0.905672 0.484629 -0.139785
C24   C     C_R   0.499529 0.098108 0.583018 -0.133310
H7    H     H_    0.368102 0.939746 0.462276 0.160083
H8    H     H_    0.501382 0.065206 0.645071 0.160528
C25   C     C_R   0.425485 0.813888 0.482738 -0.194668
C26   C     C_R   0.505871 0.189845 0.576655 -0.166402
H9    H     H_    0.375150 0.778706 0.456859 0.180532
H10   H     H_    0.512454 0.227309 0.633753 0.169857
C27   C     C_R   0.493944 0.768280 0.512370 -0.162493
C28   C     C_R   0.500794 0.233190 0.498280 -0.131842
C29   C     C_R   0.557668 0.815531 0.547271 0.312087
C30   C     C_R   0.490476 0.185477 0.424438 0.297118
C31   C     C_R   0.556808 0.908038 0.544819 -0.207810
C32   C     C_R   0.485464 0.093087 0.431090 -0.201736
H11   H     H_    0.608123 0.944849 0.568219 0.177300
H12   H     H_    0.481402 0.055073 0.373336 0.184100
C33   C     C_R   0.489228 0.952963 0.513792 0.070940
C34   C     C_R   0.490264 0.049517 0.509881 0.060641
C35   C     C_R   0.864021 0.539574 0.572830 -0.244570
C36   C     C_R   0.122769 0.429895 0.459040 -0.256132
H13   H     H_    0.874440 0.569817 0.631814 0.157714
H14   H     H_    0.100612 0.373511 0.427915 0.156213
C37   C     C_R   0.765537 0.539370 0.571345 0.069829
C38   C     C_R   0.221673 0.431448 0.459706 0.037588
H15   H     H_    0.703311 0.570485 0.627993 0.169522
H16   H     H_    0.273882 0.377427 0.427990 0.159322
N1    N     N_R   0.747530 0.500020 0.500000 -0.108263
N2    N     N_R   0.252470 0.499980 0.500000 -0.102725
C39   C     C_R   0.825667 0.460226 0.428684 0.096029
C40   C     C_R   0.187334 0.568352 0.540238 0.051792
H17   H     H_    0.810643 0.429015 0.372483 0.160138
H18   H     H_    0.212435 0.622434 0.572048 0.144279
C41   C     C_R   0.925665 0.459703 0.426907 -0.223508
C42   C     C_R   0.087989 0.569683 0.540641 -0.229139
H19   H     H_    0.986012 0.429172 0.367978 0.169256
H20   H     H_    0.039356 0.626026 0.571664 0.160703
C43   C     C_R   0.946779 0.499657 0.499777 0.114916
C44   C     C_R   0.053520 0.499740 0.499764 0.128662
S1    S     S_3+6 0.755823 0.630623 0.219319 0.093082
O9    O     O_2   0.823422 0.581482 0.257878 -0.254010
O10   O     O_2   0.817554 0.701286 0.150932 -0.199434
O11   O     O_3   0.662425 0.682268 0.307377 -0.593507
H21   H     H_    0.698415 0.725416 0.332100 0.388203
S2    S     S_3+6 0.238705 0.367769 0.769349 0.089640
O12   O     O_2   0.315423 0.327319 0.681890 -0.349444
O13   O     O_2   0.172859 0.293142 0.827670 -0.196725
O14   O     O_3   0.165338 0.440301 0.740193 -0.485260
H22   H     H_    0.141476 0.407113 0.697347 0.378188
S3    S     S_3+6 0.149529 0.383002 0.004223 0.080454
O15   O     O_2   0.142338 0.284160 0.023071 -0.267154
O16   O     O_2   0.121682 0.431156 0.095791 -0.293450
O17   O     O_3   0.065449 0.412606 0.957104 -0.420833
H23   H     H_    0.001351 0.380338 0.995244 0.412215
S4    S     S_3+6 0.869262 0.571539 0.994009 0.084532
O18   O     O_2   0.908037 0.506992 0.913964 -0.279169
O19   O     O_2   0.877204 0.664634 0.954701 -0.261273
O20   O     O_3   0.943298 0.562669 0.056189 -0.434429
H24   H     H_    0.009548 0.590448 0.015813 0.412304
N3    N     N_R   0.619167 0.771308 0.589415 0.211534
O21   O     O_R   0.576961 0.713556 0.657115 -0.423781
O22   O     O_R   0.711001 0.800521 0.573250 -0.371863
N4    N     N_R   0.488890 0.229168 0.341694 0.195468
O23   O     O_R   0.548796 0.296983 0.304542 -0.436831
O24   O     O_R   0.438168 0.194121 0.296052 -0.384577

loop_
_geom_bond_atom_site_label_1
_geom_bond_atom_site_label_2
_geom_bond_distance
_ccdc_geom_bond_type
C36   C38   1.407095 A    
N2    C40   1.362656 A    
S3    O15   1.503507 D    
C16   C22   1.400830 A    
O20   H24   0.990534 S    
C8    C16   1.421172 A    
C42   C44   1.410978 A    
N3    O21   1.301312 A    
C36   C44   1.410564 A    
C27   C29   1.413010 A    
C11   H4    1.078539 S    
O14   H22   0.990611 S    
O5    C3    1.290526 A    
C12   H3    1.075060 S    
C1    C27   1.446316 S    
C2    C28   1.426351 S    
C10   S1    1.784852 S    
O1    C1    1.287464 A    
C12   C14   1.394268 A    
C18   C19   1.413275 A    
C14   C16   1.419532 A    
C35   H13   1.081926 S    
C39   C41   1.407920 A    
N1    C39   1.362825 A    
C36   H14   1.081781 S    
C20   H6    1.078120 S    
O4    Zn1   2.000114 S    
C37   H15   1.080368 S    
N4    O23   1.300314 A    
C38   H16   1.081737 S    
C3    C5    1.475183 S    
C23   C33   1.396200 A    
C4    C6    1.471926 S    
C32   H12   1.083479 S    
C24   C34   1.398562 A    
C30   C32   1.388056 A    
C21   H1    1.080694 S    
C13   C17   1.421733 A    
C20   C22   1.384266 A    
C9    S2    1.786007 S    
C8    C10   1.418393 A    
C6    C10   1.418052 A    
C28   C30   1.407191 A    
C17   C20   1.411885 A    
O2    C2    1.281926 A    
N4    O24   1.301403 A    
N3    O22   1.301211 A    
C26   H10   1.084404 S    
Zn1   N2    2.005502 S    
S1    O10   1.502653 D    
C38   N2    1.363201 A    
O4    C2    1.283771 A    
C41   H19   1.081858 S    
O7    Zn2   1.892963 S    
C23   C25   1.377542 A    
C29   C31   1.387682 A    
S1    O9    1.502329 D    
S4    O20   1.682061 S    
C40   C42   1.406875 A    
C31   H11   1.083412 S    
C22   H2    1.079715 S    
C5    C9    1.425048 A    
C43   C44   1.513949 S    
C25   H9    1.083615 S    
O5    Zn1   1.953802 S    
O6    C4    1.290573 A    
C33   C34   1.448525 S    
S4    O19   1.503392 D    
O7    C3    1.298662 A    
O3    Zn2   2.000114 S    
O8    C4    1.297817 A    
C42   H20   1.081751 S    
S2    O13   1.502052 D    
C11   C13   1.393396 A    
O6    Zn2   1.953803 S    
O1    Zn1   1.999352 S    
S1    O11   1.678784 S    
C6    C12   1.388813 A    
C7    S3    1.785763 S    
C15   C21   1.399255 A    
C14   C18   1.422999 A    
O11   H21   0.990738 S    
O3    C1    1.288610 A    
O8    Zn1   1.892963 S    
C35   C37   1.406033 A    
S2    O14   1.681895 S    
C30   N4    1.438493 S    
C8    S4    1.786404 S    
C35   C43   1.410060 A    
S3    O16   1.503714 D    
C7    C15   1.419006 A    
C19   C21   1.384401 A    
C41   C43   1.411231 A    
O17   H23   0.991100 S    
C5    C11   1.389143 A    
C32   C34   1.400683 A    
C24   H8    1.083161 S    
S4    O18   1.503528 D    
C7    C9    1.419519 A    
Zn2   N1    2.005502 S    
C31   C33   1.398928 A    
C13   C15   1.416347 A    
O2    Zn2   1.999349 S    
C29   N3    1.435812 S    
C37   N1    1.363822 A    
C24   C26   1.378658 A    
C23   H7    1.083375 S    
C40   H18   1.081553 S    
S2    O12   1.498193 D    
S3    O17   1.680131 S    
C19   H5    1.077263 S    
C17   C18   1.414203 A    
C39   H17   1.081759 S    
C25   C27   1.401179 A    
C26   C28   1.394988 A    
