data_mof_unit_13205.cif
_audit_creation_date              2012-10-26T20:22:32-0400
_audit_creation_method            fapswitch 2.2
_symmetry_space_group_name_H-M    P1
_symmetry_Int_Tables_number       1
_space_group_crystal_system       triclinic
_cell_length_a                    9.555917
_cell_length_b                    10.860862
_cell_length_c                    17.25276
_cell_angle_alpha                 91.491635
_cell_angle_beta                  85.523023
_cell_angle_gamma                 90.689073
_cell_volume                      1784.42813026

loop_
_atom_site_label
_atom_site_type_symbol
_atom_type_description
_atom_site_fract_x
_atom_site_fract_y
_atom_site_fract_z
_atom_type_partial_charge
C1    C     C_R   0.500863 0.737782 0.500587 0.576966
C2    C     C_R   0.081760 0.427725 0.446883 0.377929
C3    C     C_R   0.068971 0.571612 0.551947 -0.066388
C4    C     C_R   0.931029 0.428388 0.448053 -0.066388
C5    C     C_R   0.480447 0.498106 0.649907 0.573127
C6    C     C_R   0.519553 0.501894 0.350093 0.573127
C7    C     C_R   0.464508 0.499624 0.734694 -0.015558
C8    C     C_R   0.535492 0.500376 0.265306 -0.015558
C9    C     C_R   0.551611 0.576759 0.775723 -0.198564
C10   C     C_R   0.448389 0.423241 0.224277 -0.198564
C11   C     C_R   0.538938 0.580796 0.856212 -0.184046
C12   C     C_R   0.499137 0.262218 0.499413 0.576967
C13   C     C_R   0.461061 0.419204 0.143788 -0.184046
C14   C     C_R   0.438252 0.507302 0.897319 0.001840
C15   C     C_R   0.561748 0.492698 0.102681 0.001840
C16   C     C_R   0.340668 0.437670 0.856462 0.311912
C17   C     C_R   0.659332 0.562330 0.143538 0.311912
C18   C     C_R   0.357299 0.430136 0.774599 0.285839
C19   C     C_R   0.642700 0.569863 0.225401 0.285839
C20   C     C_2   0.439905 0.497526 0.982278 -0.106463
C21   C     C_2   0.560095 0.502475 0.017722 -0.106462
C22   C     C_3   0.850981 0.615967 0.278261 -0.069347
C23   C     C_R   0.616069 0.939770 0.527187 0.256878
C24   C     C_3   0.149019 0.384032 0.721739 -0.069346
C25   C     C_3   0.120158 0.438026 0.916492 -0.135054
C26   C     C_3   0.879842 0.561974 0.083508 -0.135053
C27   C     C_3   0.855802 0.920531 0.522648 -0.101602
C28   C     C_3   0.144197 0.079469 0.477352 -0.101602
C29   C     C_3   0.901094 0.696564 0.667628 -0.120603
C30   C     C_3   0.098906 0.303435 0.332372 -0.120603
C31   C     C_R   0.383930 0.060230 0.472813 0.256878
C32   C     C_R   0.610996 0.068251 0.527663 -0.175995
C33   C     C_R   0.389004 0.931749 0.472337 -0.175995
C34   C     C_R   0.497610 0.128247 0.499381 -0.006535
C35   C     C_R   0.502389 0.871753 0.500618 -0.006535
C36   C     C_R   0.918240 0.572275 0.553117 0.377929
Cu1   Cu    Cu3+1 0.359340 0.499980 0.500000 1.020015
Cu2   Cu    Cu3+1 0.640660 0.500020 0.500000 1.020015
H1    H     H_    0.629675 0.633944 0.745250 0.157541
H2    H     H_    0.874910 0.371970 0.408220 0.107922
H3    H     H_    0.859553 0.513631 0.278066 0.075004
H4    H     H_    0.878714 0.650794 0.336189 0.144978
H5    H     H_    0.929081 0.655135 0.234472 0.139487
H6    H     H_    0.121287 0.349205 0.663810 0.144978
H7    H     H_    0.140447 0.486368 0.721934 0.075004
H8    H     H_    0.070920 0.344864 0.765527 0.139487
H9    H     H_    0.087300 0.492706 0.867500 0.088394
H10   H     H_    0.137675 0.501713 0.966106 0.092427
H11   H     H_    0.031417 0.375933 0.934897 0.140760
H12   H     H_    0.370324 0.366057 0.254750 0.157541
H13   H     H_    0.862326 0.498288 0.033893 0.092427
H14   H     H_    0.912698 0.507292 0.132499 0.088393
H15   H     H_    0.968583 0.624067 0.065104 0.140760
H16   H     H_    0.892990 0.001861 0.555742 0.089495
H17   H     H_    0.851784 0.941597 0.459917 0.100898
H18   H     H_    0.934276 0.846878 0.525339 0.146197
H19   H     H_    0.148216 0.058403 0.540083 0.100898
H20   H     H_    0.107009 0.998139 0.444258 0.089495
H21   H     H_    0.065724 0.153122 0.474661 0.146197
H22   H     H_    0.823022 0.747152 0.706756 0.153566
H23   H     H_    0.658218 0.518751 0.983774 0.140072
H24   H     H_    0.982181 0.765982 0.648887 0.097205
H25   H     H_    0.944861 0.622587 0.701627 0.074140
H26   H     H_    0.055139 0.377413 0.298373 0.074140
H27   H     H_    0.017819 0.234018 0.351114 0.097205
H28   H     H_    0.176977 0.252848 0.293244 0.153566
H29   H     H_    0.341782 0.481250 0.016226 0.140072
H30   H     H_    0.390762 0.359071 0.113787 0.138155
H31   H     H_    0.609237 0.640930 0.886212 0.138155
H32   H     H_    0.694944 0.121530 0.551304 0.134723
H33   H     H_    0.305056 0.878470 0.448696 0.134724
H34   H     H_    0.125090 0.628029 0.591780 0.107923
N1    N     N_R   0.147930 0.499970 0.499980 -0.245866
N2    N     N_R   0.852070 0.500030 0.500020 -0.245866
O1    O     O_R   0.381260 0.680340 0.500000 -0.544967
O2    O     O_3   0.284327 0.341547 0.734228 -0.535565
O3    O     O_3   0.239716 0.365366 0.895710 -0.541125
O4    O     O_3   0.760284 0.634634 0.104289 -0.541125
O5    O     O_3   0.725768 0.879238 0.557457 -0.508742
O6    O     O_3   0.274232 0.120762 0.442543 -0.508742
O7    O     O_3   0.833343 0.647094 0.603756 -0.492661
O8    O     O_3   0.166657 0.352906 0.396244 -0.492661
O9    O     O_R   0.618740 0.319660 0.500000 -0.544967
O10   O     O_R   0.618830 0.680370 0.500010 -0.406505
O11   O     O_R   0.381170 0.319630 0.499990 -0.406505
O12   O     O_R   0.367440 0.500000 0.613600 -0.510331
O13   O     O_R   0.632560 0.500000 0.386400 -0.510331
O14   O     O_R   0.605010 0.500030 0.613600 -0.459555
O15   O     O_R   0.394990 0.499970 0.386400 -0.459555
O16   O     O_3   0.715673 0.658452 0.265773 -0.535564

loop_
_geom_bond_atom_site_label_1
_geom_bond_atom_site_label_2
_ccdc_geom_bond_type
C29   H25   S    
C30   H26   S    
Cu2   O9    S    
C20   H29   S    
C27   H16   S    
C31   O6    S    
C28   H19   S    
C1    O10   A    
C26   O4    S    
C12   O11   A    
C25   O3    S    
C24   H7    S    
Cu1   O11   S    
C27   O5    S    
C11   C14   A    
C27   H17   S    
C22   H3    S    
C9    H1    S    
C15   C17   A    
C16   O3    S    
C17   C19   A    
C5    O14   A    
C4    H2    S    
C31   C33   A    
C25   H9    S    
C21   H23   S    
Cu1   O1    S    
C28   O6    S    
C8    C19   A    
C1    O1    A    
C14   C20   S    
Cu1   O12   S    
C5    C7    S    
C27   H18   S    
C24   O2    S    
C32   H32   S    
C6    O13   A    
C12   O9    A    
Cu2   O14   S    
C32   C34   A    
C30   O8    S    
C2    C4    A    
C29   O7    S    
Cu1   Cu2   S    
C26   H14   S    
C22   H5    S    
C29   H22   S    
C36   O7    S    
C7    C18   A    
C22   O16   S    
C31   C34   A    
C9    C11   A    
C25   H10   S    
C30   H28   S    
C2    N1    A    
C36   N2    A    
C5    O12   A    
C16   C18   A    
C23   C35   A    
C13   C15   A    
C24   H6    S    
C14   C16   A    
C2    O8    S    
C12   C34   S    
C10   H12   S    
C26   H15   S    
C1    C35   S    
Cu2   N2    S    
C28   H21   S    
C7    C9    A    
Cu1   N1    S    
C29   H24   S    
C18   O2    S    
Cu2   O10   S    
C4    N2    A    
C10   C13   A    
C6    C8    S    
C11   H31   S    
C28   H20   S    
C6    O15   A    
Cu1   O15   S    
Cu2   O13   S    
C24   H8    S    
C23   C32   A    
C3    H34   S    
C19   O16   S    
C26   H13   S    
C22   H4    S    
C3    C36   A    
C17   O4    S    
C33   C35   A    
C3    N1    A    
C25   H11   S    
C30   H27   S    
C33   H33   S    
C15   C21   S    
C20   C21   D    
C8    C10   A    
C23   O5    S    
C13   H30   S    
