data_mof_unit_17186.cif
_audit_creation_date              2012-12-11T14:42:06-0500
_audit_creation_method            fapswitch 2.2
_symmetry_space_group_name_H-M    P1
_symmetry_Int_Tables_number       1
_space_group_crystal_system       triclinic
_cell_length_a                    18.891257
_cell_length_b                    11.102798
_cell_length_c                    18.807868
_cell_angle_alpha                 90.790596
_cell_angle_beta                  89.940368
_cell_angle_gamma                 89.802102
_cell_volume                      3944.47010733

loop_
_atom_site_label
_atom_site_type_symbol
_atom_type_description
_atom_site_fract_x
_atom_site_fract_y
_atom_site_fract_z
_atom_type_partial_charge
C1    C     C_R   0.730002 0.950476 0.850905 0.538861
C2    C     C_R   0.270593 0.949360 0.149121 0.545587
C3    C     C_R   0.230002 0.450475 0.850905 0.538863
C4    C     C_R   0.770593 0.449360 0.149121 0.545588
C5    C     C_R   0.679251 0.416774 0.052087 0.246959
C6    C     C_R   0.323661 0.421665 0.949247 0.252039
C7    C     C_R   0.179250 0.916774 0.052087 0.246958
C8    C     C_R   0.823661 0.921665 0.949247 0.252039
C9    C     C_R   0.744608 0.386113 0.084488 0.017668
C10   C     C_R   0.259376 0.387157 0.913920 0.002959
C11   C     C_R   0.244608 0.886112 0.084489 0.017666
C12   C     C_R   0.759376 0.887157 0.913920 0.002957
C13   C     C_R   0.793018 0.311322 0.046668 0.229360
C14   C     C_R   0.212708 0.308499 0.949237 0.233127
C15   C     C_R   0.293018 0.811322 0.046668 0.229360
C16   C     C_R   0.712708 0.808499 0.949237 0.233127
C17   C     C_R   0.780808 0.284365 0.975375 -0.166424
C18   C     C_R   0.221412 0.285837 0.021298 -0.166737
C19   C     C_R   0.280808 0.784365 0.975375 -0.166424
C20   C     C_R   0.721412 0.785837 0.021298 -0.166736
C21   C     C_R   0.726413 0.340591 0.938259 -0.058565
C22   C     C_R   0.273499 0.343820 0.061120 -0.060057
C23   C     C_R   0.226412 0.840591 0.938259 -0.058565
C24   C     C_R   0.773499 0.843820 0.061120 -0.060057
C25   C     C_R   0.459610 0.250585 0.547905 -0.146428
C26   C     C_R   0.451891 0.257543 0.475623 -0.120580
C27   C     C_R   0.959611 0.750585 0.547905 -0.146430
C28   C     C_R   0.951892 0.757542 0.475622 -0.120581
C29   C     C_R   0.483874 0.171671 0.430539 0.041767
C30   C     C_R   0.501741 0.159717 0.575276 0.013381
C31   C     C_R   0.983875 0.671671 0.430539 0.041765
C32   C     C_R   0.001742 0.659718 0.575276 0.013377
C33   C     C_R   0.521280 0.074803 0.458001 -0.160436
C34   C     C_R   0.531156 0.069635 0.530679 -0.159877
C35   C     C_R   0.021280 0.574804 0.458001 -0.160435
C36   C     C_R   0.031156 0.569636 0.530679 -0.159876
C37   C     C_R   0.802693 0.323368 0.530955 0.271921
C38   C     C_R   0.221447 0.279518 0.479142 0.277782
C39   C     C_R   0.302692 0.823364 0.530954 0.271925
C40   C     C_R   0.721446 0.779518 0.479142 0.277778
C41   C     C_R   0.811868 0.343749 0.459766 0.111157
C42   C     C_R   0.220934 0.296745 0.552815 0.085711
C43   C     C_R   0.311868 0.843747 0.459765 0.111157
C44   C     C_R   0.720934 0.796745 0.552815 0.085711
C45   C     C_R   0.528784 0.179286 0.849697 0.545979
C46   C     C_R   0.468612 0.177123 0.148537 0.555326
C47   C     C_R   0.028784 0.679286 0.849697 0.545979
C48   C     C_R   0.968612 0.677123 0.148537 0.555326
C49   C     C_R   0.757657 0.403884 0.420685 -0.034133
C50   C     C_R   0.253300 0.400246 0.582130 -0.055575
C51   C     C_R   0.257657 0.903884 0.420685 -0.034130
C52   C     C_R   0.753300 0.900245 0.582130 -0.055575
C53   C     C_R   0.693089 0.428444 0.451999 -0.073844
C54   C     C_R   0.295053 0.473300 0.539592 -0.133343
C55   C     C_R   0.193088 0.928443 0.451999 -0.073845
C56   C     C_R   0.795053 0.973300 0.539592 -0.133343
C57   C     C_R   0.682316 0.405744 0.523039 0.052898
C58   C     C_R   0.300241 0.452472 0.467328 0.017630
C59   C     C_R   0.182316 0.905742 0.523039 0.052895
C60   C     C_R   0.800241 0.952472 0.467328 0.017630
C61   C     C_R   0.737273 0.352178 0.563963 -0.004988
C62   C     C_R   0.264303 0.353130 0.436383 -0.001086
C63   C     C_R   0.237273 0.852175 0.563963 -0.004986
C64   C     C_R   0.764303 0.853130 0.436383 -0.001087
C65   C     C_R   0.723805 0.315694 0.860592 0.579037
C66   C     C_R   0.275602 0.317320 0.138792 0.570843
C67   C     C_R   0.223805 0.815694 0.860592 0.579037
C68   C     C_R   0.775602 0.817320 0.138792 0.570843
C69   C     C_R   0.729747 0.950689 0.649824 0.538236
C70   C     C_R   0.272728 0.953649 0.351659 0.554397
C71   C     C_R   0.229747 0.450689 0.649824 0.538237
C72   C     C_R   0.772728 0.453649 0.351659 0.554397
C73   C     C_R   0.529782 0.174867 0.645400 0.533903
C74   C     C_R   0.467366 0.177268 0.356503 0.543858
C75   C     C_R   0.029782 0.674867 0.645400 0.533900
C76   C     C_R   0.967366 0.677268 0.356503 0.543857
C77   C     C_R   0.727397 0.317428 0.638137 0.576807
C78   C     C_R   0.272595 0.319206 0.361465 0.593307
C79   C     C_R   0.227396 0.817427 0.638137 0.576812
C80   C     C_R   0.772595 0.819206 0.361465 0.593306
C81   C     C_2   0.491108 0.178800 0.917345 -0.098864
C82   C     C_2   0.495295 0.164527 0.076006 -0.116600
C83   C     C_2   0.991108 0.678799 0.917345 -0.098866
C84   C     C_2   0.995295 0.664527 0.076006 -0.116599
C85   C     C_2   0.460084 0.092905 0.029885 -0.189390
C86   C     C_2   0.481568 0.080407 0.955444 -0.176782
C87   C     C_2   0.960085 0.592904 0.029885 -0.189390
C88   C     C_2   0.981568 0.580406 0.955445 -0.176782
C89   C     C_R   0.674197 0.405579 0.978010 0.097960
C90   C     C_R   0.325978 0.410321 0.023683 0.108770
C91   C     C_R   0.174196 0.905578 0.978010 0.097961
C92   C     C_R   0.825978 0.910321 0.023683 0.108770
Cr1   Cr    Cr6+3 0.769270 0.163730 0.750710 0.981700
Cr2   Cr    Cr6+3 0.230730 0.163730 0.249290 0.984962
Cr3   Cr    Cr6+3 0.269270 0.663730 0.750710 0.981695
Cr4   Cr    Cr6+3 0.730730 0.663730 0.249290 0.984964
Cr5   Cr    Cr6+3 0.612620 0.009790 0.748780 0.980971
Cr6   Cr    Cr6+3 0.387380 0.009790 0.251220 0.994091
Cr7   Cr    Cr6+3 0.112620 0.509790 0.748780 0.980971
Cr8   Cr    Cr6+3 0.887380 0.509790 0.251220 0.994090
Cr9   Cr    Cr6+3 0.614160 0.322500 0.747710 0.976764
Cr10  Cr    Cr6+3 0.385840 0.322500 0.252290 0.980033
Cr11  Cr    Cr6+3 0.114160 0.822500 0.747710 0.976765
Cr12  Cr    Cr6+3 0.885840 0.822500 0.252290 0.980032
H1    H     H_    0.414073 0.042641 0.046945 0.154102
H2    H     H_    0.490029 0.991487 0.932912 0.133722
H3    H     H_    0.914074 0.542639 0.046945 0.154102
H4    H     H_    0.990031 0.491486 0.932913 0.133723
H5    H     H_    0.650757 0.467633 0.421259 0.176867
H6    H     H_    0.320115 0.552590 0.561651 0.223578
H7    H     H_    0.150757 0.967633 0.421259 0.176865
H8    H     H_    0.820115 0.052590 0.561651 0.223577
H9    H     H_    0.538712 0.220529 0.058380 0.167386
H10   H     H_    0.478302 0.265708 0.941330 0.182547
H11   H     H_    0.038712 0.720530 0.058380 0.167387
H12   H     H_    0.978301 0.765708 0.941329 0.182546
H13   H     H_    0.816305 0.222115 0.948348 0.140240
H14   H     H_    0.185856 0.223561 0.046340 0.128794
H15   H     H_    0.316304 0.722115 0.948348 0.140238
H16   H     H_    0.685856 0.723561 0.046340 0.128794
H17   H     H_    0.437078 0.320530 0.581862 0.133150
H18   H     H_    0.420725 0.330153 0.454837 0.140615
H19   H     H_    0.937078 0.820529 0.581862 0.133151
H20   H     H_    0.920726 0.830152 0.454837 0.140616
H21   H     H_    0.544056 0.006121 0.423393 0.112772
H22   H     H_    0.564890 0.999302 0.551442 0.133563
H23   H     H_    0.044055 0.506122 0.423393 0.112773
H24   H     H_    0.064890 0.499303 0.551443 0.133567
O1    O     O_R   0.784320 0.290430 0.830510 -0.529409
O2    O     O_R   0.215680 0.290430 0.169490 -0.525959
O3    O     O_R   0.284320 0.790430 0.830510 -0.529412
O4    O     O_R   0.715680 0.790430 0.169490 -0.525960
O5    O     O_R   0.554640 0.080370 0.673500 -0.513898
O6    O     O_R   0.445360 0.080370 0.326500 -0.509614
O7    O     O_R   0.054640 0.580370 0.673500 -0.513901
O8    O     O_R   0.945360 0.580370 0.326500 -0.509615
O9    O     O_R   0.543920 0.282180 0.666790 -0.548418
O10   O     O_R   0.456080 0.282180 0.333210 -0.537420
O11   O     O_R   0.043920 0.782180 0.666790 -0.548417
O12   O     O_R   0.956080 0.782180 0.333210 -0.537420
O13   O     O_R   0.679040 0.374160 0.674430 -0.504344
O14   O     O_R   0.320960 0.374160 0.325570 -0.518934
O15   O     O_R   0.179040 0.874160 0.674430 -0.504343
O16   O     O_R   0.820960 0.874160 0.325570 -0.518933
O17   O     O_3   0.665350 0.165340 0.749070 -0.271993
O18   O     O_3   0.334650 0.165340 0.250930 -0.277262
O19   O     O_3   0.165350 0.665340 0.749070 -0.271994
O20   O     O_3   0.834650 0.665340 0.250930 -0.277262
O21   O     O_R   0.762640 0.040960 0.825200 -0.570773
O22   O     O_R   0.237360 0.040960 0.174800 -0.566841
O23   O     O_R   0.262640 0.540960 0.825200 -0.570773
O24   O     O_R   0.737360 0.540960 0.174800 -0.566840
O25   O     O_R   0.667400 0.923970 0.829950 -0.461169
O26   O     O_R   0.332600 0.923970 0.170050 -0.461268
O27   O     O_R   0.167400 0.423970 0.829950 -0.461169
O28   O     O_R   0.832600 0.423970 0.170050 -0.461268
O29   O     O_R   0.553960 0.081340 0.821780 -0.504501
O30   O     O_R   0.446040 0.081340 0.178220 -0.506385
O31   O     O_R   0.053960 0.581340 0.821780 -0.504500
O32   O     O_R   0.946040 0.581340 0.178220 -0.506385
O33   O     O_R   0.543180 0.283240 0.826740 -0.554590
O34   O     O_R   0.456820 0.283240 0.173260 -0.541760
O35   O     O_R   0.043180 0.783240 0.826740 -0.554591
O36   O     O_R   0.956820 0.783240 0.173260 -0.541760
O37   O     O_R   0.678360 0.375140 0.822710 -0.491000
O38   O     O_R   0.321640 0.375140 0.177290 -0.496874
O39   O     O_R   0.178360 0.875140 0.822710 -0.491000
O40   O     O_R   0.821640 0.875140 0.177290 -0.496874
O41   O     O_R   0.785050 0.289380 0.670560 -0.471505
O42   O     O_R   0.214950 0.289380 0.329440 -0.476414
O43   O     O_R   0.285050 0.789380 0.670560 -0.471501
O44   O     O_R   0.714950 0.789380 0.329440 -0.476416
O45   O     O_R   0.763320 0.039990 0.676930 -0.517409
O46   O     O_R   0.236680 0.039990 0.323070 -0.494649
O47   O     O_R   0.263320 0.539990 0.676930 -0.517409
O48   O     O_R   0.736680 0.539990 0.323070 -0.494646
O49   O     O_R   0.668130 0.922920 0.670000 -0.528776
O50   O     O_R   0.331870 0.922920 0.330000 -0.537980
O51   O     O_R   0.168130 0.422920 0.670000 -0.528776
O52   O     O_R   0.831870 0.422920 0.330000 -0.537981
N1    N     N_3   0.878662 0.304007 0.430400 -0.586579
H25   H     H_    0.871249 0.249966 0.385193 0.258333
H26   H     H_    0.911147 0.377759 0.419952 0.244754
N2    N     N_3   0.187259 0.208253 0.596230 -0.610213
H27   H     H_    0.218454 0.192610 0.641080 0.241983
H28   H     H_    0.137382 0.239273 0.612112 0.234013
N3    N     N_3   0.378662 0.804006 0.430399 -0.586588
H29   H     H_    0.371249 0.749965 0.385192 0.258333
H30   H     H_    0.411146 0.877758 0.419952 0.244752
N4    N     N_3   0.687259 0.708253 0.596230 -0.610213
H31   H     H_    0.718455 0.692609 0.641080 0.241982
H32   H     H_    0.637382 0.739273 0.612113 0.234014
N5    N     N_3   0.613862 0.435390 0.550055 -0.631308
H33   H     H_    0.617498 0.494788 0.593334 0.276705
H34   H     H_    0.589790 0.355342 0.563282 0.270747
N6    N     N_3   0.336569 0.541026 0.426648 -0.605987
H35   H     H_    0.302870 0.571691 0.386656 0.250625
H36   H     H_    0.382887 0.504871 0.404724 0.253653
N7    N     N_3   0.113861 0.935388 0.550054 -0.631315
H37   H     H_    0.117497 0.994786 0.593334 0.276706
H38   H     H_    0.089790 0.855340 0.563282 0.270749
N8    N     N_3   0.836569 0.041026 0.426648 -0.605988
H39   H     H_    0.802870 0.071691 0.386656 0.250625
H40   H     H_    0.882888 0.004871 0.404724 0.253653
N9    N     N_3   0.612702 0.456096 0.946296 -0.598506
H41   H     H_    0.627689 0.514208 0.905902 0.273308
H42   H     H_    0.582441 0.385659 0.926698 0.261051
N10   N     N_3   0.385269 0.463610 0.058557 -0.593458
H43   H     H_    0.367935 0.522125 0.098901 0.276133
H44   H     H_    0.416643 0.395101 0.078328 0.270481
N11   N     N_3   0.112702 0.956096 0.946296 -0.598504
H45   H     H_    0.127688 0.014208 0.905902 0.273307
H46   H     H_    0.082441 0.885658 0.926698 0.261051
N12   N     N_3   0.885269 0.963611 0.058557 -0.593457
H47   H     H_    0.867934 0.022125 0.098902 0.276133
H48   H     H_    0.916644 0.895102 0.078329 0.270483
O53   O     O_3   0.614869 0.413795 0.088859 -0.561129
C93   C     C_3   0.606087 0.510867 0.136946 0.021605
H49   H     H_    0.632180 0.594067 0.118201 0.155361
H50   H     H_    0.623564 0.482428 0.190542 0.168872
C94   C     C_3   0.529339 0.543475 0.146114 -0.389771
H51   H     H_    0.505341 0.561460 0.093683 0.186337
H52   H     H_    0.500602 0.472749 0.173733 0.195005
H53   H     H_    0.526563 0.623250 0.181889 0.062916
O54   O     O_3   0.390892 0.432101 0.916961 -0.566756
C95   C     C_3   0.391815 0.493359 0.852118 0.009133
H54   H     H_    0.372178 0.586646 0.861798 0.175650
H55   H     H_    0.364249 0.438596 0.810801 0.160681
C96   C     C_3   0.465477 0.509926 0.822298 -0.371969
H56   H     H_    0.505095 0.512613 0.865352 0.190088
H57   H     H_    0.477414 0.439211 0.782078 0.178656
H58   H     H_    0.466896 0.595019 0.792068 0.052964
O55   O     O_3   0.114868 0.913796 0.088859 -0.561128
C97   C     C_3   0.106088 0.010866 0.136948 0.021605
H59   H     H_    0.132179 0.094066 0.118202 0.155363
H60   H     H_    0.123566 0.982424 0.190542 0.168871
C98   C     C_3   0.029340 0.043474 0.146118 -0.389772
H61   H     H_    0.005339 0.061456 0.093688 0.186340
H62   H     H_    0.000603 0.972749 0.173740 0.195002
H63   H     H_    0.026565 0.123250 0.181893 0.062915
O56   O     O_3   0.890892 0.932103 0.916961 -0.566756
C99   C     C_3   0.891815 0.993358 0.852117 0.009132
H64   H     H_    0.872179 0.086645 0.861796 0.175652
H65   H     H_    0.864248 0.938592 0.810801 0.160678
C100  C     C_3   0.965477 0.009921 0.822295 -0.371964
H66   H     H_    0.005096 0.012606 0.865348 0.190089
H67   H     H_    0.977412 0.939207 0.782075 0.178653
H68   H     H_    0.966897 0.095015 0.792066 0.052962
O57   O     O_3   0.849141 0.257709 0.082005 -0.538448
C101  C     C_3   0.914310 0.272462 0.045728 -0.017908
H69   H     H_    0.913492 0.343061 0.004215 0.106596
H70   H     H_    0.928597 0.185922 0.019092 0.167157
C102  C     C_3   0.971456 0.305132 0.099662 -0.353666
H71   H     H_    0.957585 0.269380 0.152528 0.181613
H72   H     H_    0.023898 0.271401 0.081856 0.068965
H73   H     H_    0.976131 0.402867 0.106561 0.170641
O58   O     O_3   0.161443 0.247118 0.910768 -0.538876
C103  C     C_3   0.093171 0.267844 0.939508 -0.006016
H74   H     H_    0.088084 0.355479 0.968948 0.124160
H75   H     H_    0.079845 0.193511 0.976024 0.150556
C104  C     C_3   0.040189 0.267563 0.878794 -0.361936
H76   H     H_    0.056665 0.199916 0.838238 0.164474
H77   H     H_    0.986263 0.247394 0.898751 0.073901
H78   H     H_    0.039164 0.355921 0.852385 0.177069
O59   O     O_3   0.349141 0.757709 0.082005 -0.538448
C105  C     C_3   0.414310 0.772463 0.045728 -0.017907
H79   H     H_    0.413491 0.843062 0.004215 0.106596
H80   H     H_    0.428597 0.685923 0.019092 0.167154
C106  C     C_3   0.471456 0.805134 0.099662 -0.353665
H81   H     H_    0.457584 0.769383 0.152528 0.181614
H82   H     H_    0.523898 0.771404 0.081855 0.068964
H83   H     H_    0.476130 0.902870 0.106561 0.170641
O60   O     O_3   0.661444 0.747118 0.910768 -0.538877
C107  C     C_3   0.593171 0.767846 0.939508 -0.006015
H84   H     H_    0.588085 0.855480 0.968948 0.124161
H85   H     H_    0.579845 0.693512 0.976024 0.150555
C108  C     C_3   0.540189 0.767566 0.878794 -0.361939
H86   H     H_    0.556665 0.699920 0.838238 0.164475
H87   H     H_    0.486263 0.747397 0.898751 0.073898
H88   H     H_    0.539165 0.855925 0.852385 0.177070
O61   O     O_3   0.857221 0.265177 0.566390 -0.523714
C109  C     C_3   0.908386 0.350371 0.588831 0.032434
H89   H     H_    0.884040 0.425156 0.620658 0.144266
H90   H     H_    0.936215 0.389116 0.542676 0.140781
C110  C     C_3   0.963237 0.287525 0.634629 -0.369646
H91   H     H_    0.989162 0.213710 0.603662 0.139787
H92   H     H_    0.004264 0.352795 0.652066 0.115238
H93   H     H_    0.937505 0.249256 0.682361 0.157130
O62   O     O_3   0.179497 0.191238 0.447920 -0.527499
C111  C     C_3   0.106584 0.219490 0.457292 0.020350
H94   H     H_    0.096024 0.314458 0.474636 0.097531
H95   H     H_    0.084113 0.159344 0.498098 0.174011
C112  C     C_3   0.066540 0.197736 0.388023 -0.361956
H96   H     H_    0.079369 0.107771 0.365026 0.149127
H97   H     H_    0.008763 0.202196 0.398279 0.110220
H98   H     H_    0.080147 0.267911 0.348922 0.160058
O63   O     O_3   0.357220 0.765173 0.566390 -0.523717
C113  C     C_3   0.408387 0.850365 0.588828 0.032437
H99   H     H_    0.384040 0.925179 0.620633 0.144248
H100  H     H_    0.436236 0.889071 0.542673 0.140787
C114  C     C_3   0.463217 0.787532 0.634658 -0.369658
H101  H     H_    0.489124 0.713665 0.603726 0.139813
H102  H     H_    0.504260 0.852788 0.652073 0.115226
H103  H     H_    0.437471 0.749344 0.682401 0.157139
O64   O     O_3   0.679495 0.691240 0.447920 -0.527497
C115  C     C_3   0.606583 0.719498 0.457292 0.020356
H104  H     H_    0.596026 0.814472 0.474625 0.097529
H105  H     H_    0.584112 0.659367 0.498104 0.174011
C116  C     C_3   0.566536 0.697727 0.388026 -0.361960
H106  H     H_    0.579353 0.607747 0.365044 0.149113
H107  H     H_    0.508760 0.702213 0.398280 0.110221
H108  H     H_    0.580151 0.767875 0.348913 0.160071

loop_
_geom_bond_atom_site_label_1
_geom_bond_atom_site_label_2
_ccdc_geom_bond_type
Cr2   O18   S    
C55   C59   A    
C111  C112  S    
Cr3   O47   S    
C32   C75   S    
C36   H24   S    
C114  H101  S    
C109  H89   S    
C88   H4    S    
C101  H70   S    
C29   C33   A    
C107  H84   S    
C9    C13   A    
C44   N4    S    
C11   C15   A    
C5    O53   S    
C12   C16   A    
C99   H65   S    
C97   H60   S    
C8    C92   A    
C47   C83   S    
C18   H14   S    
C81   C86   D    
C101  C102  S    
C116  H107  S    
C83   C88   D    
N7    H37   S    
C100  H66   S    
C69   O45   A    
C41   C49   A    
N1    H26   S    
C99   C100  S    
N8    H39   S    
Cr9   O9    S    
C17   C21   A    
Cr12  O12   S    
C97   C98   S    
C19   C23   A    
C96   H56   S    
C43   N3    S    
C16   C20   A    
C33   H21   S    
C115  H104  S    
C45   O29   A    
C35   H23   S    
C60   N8    S    
C106  H82   S    
Cr2   O22   S    
C113  H99   S    
C80   O44   A    
C20   H16   S    
C102  H72   S    
C114  H103  S    
C53   H5    S    
Cr7   O19   S    
C55   H7    S    
Cr5   O17   S    
C45   C81   S    
N6    H35   S    
C14   O58   S    
Cr11  O15   S    
Cr12  O36   S    
C57   C61   A    
C48   O36   A    
C112  H98   S    
C82   C85   D    
C13   O57   S    
C59   C63   A    
N2    H28   S    
C60   C64   A    
C25   C26   A    
C110  H92   S    
Cr2   O42   S    
C31   C76   S    
C73   O9    A    
C49   C53   A    
C74   O6    A    
Cr1   O45   S    
C33   C34   A    
C51   C55   A    
C77   O13   A    
C87   H3    S    
N5    H33   S    
C100  H68   S    
C25   H17   S    
C5    C89   A    
C38   C62   A    
C2    O22   A    
Cr6   O26   S    
Cr11  O39   S    
N4    H31   S    
Cr7   O31   S    
Cr5   O5    S    
Cr11  O19   S    
C47   O31   A    
C85   C86   S    
C48   O32   A    
Cr9   O17   S    
O57   C101  S    
C112  H96   S    
C32   C36   A    
C96   H58   S    
C102  H71   S    
N12   H48   S    
C46   O30   A    
C6    O54   S    
C78   O42   A    
N2    H27   S    
C54   H6    S    
O56   C99   S    
C23   C67   S    
C45   O33   A    
C46   C82   S    
C79   O15   A    
C61   C77   S    
C80   O16   A    
C81   H10   S    
Cr6   O50   S    
O55   C97   S    
C44   C52   A    
Cr10  O38   S    
C108  H86   S    
C86   H2    S    
C1    C12   S    
C2    C11   S    
C24   C92   A    
O60   C107  S    
N9    H42   S    
C4    O24   A    
C89   N9    S    
C30   C34   A    
Cr3   O19   S    
C91   N11   S    
C10   C14   A    
C29   C74   S    
C42   N2    S    
O53   C93   S    
C6    C90   A    
C38   O62   S    
C5    C9    A    
C94   H51   S    
C93   H50   S    
C8    C12   A    
O62   C111  S    
C92   N12   S    
C70   O46   A    
C105  H80   S    
C42   C50   A    
C90   N10   S    
C68   O40   A    
C72   O52   A    
Cr8   O52   S    
C37   O61   S    
C93   C94   S    
C18   C22   A    
C62   C78   S    
C82   H9    S    
C105  C106  S    
C102  H73   S    
C28   H20   S    
C109  H90   S    
C13   C17   A    
C98   H62   S    
C103  H74   S    
C75   O11   A    
C8    O56   S    
C58   N6    S    
C107  H85   S    
C37   C41   A    
C40   C44   A    
C109  C110  S    
C95   H54   S    
C108  H88   S    
Cr10  O14   S    
C4    C9    S    
Cr8   O8    S    
C58   C62   A    
C87   C88   S    
C107  C108  S    
Cr12  O20   S    
Cr1   O21   S    
C35   C36   A    
C21   C89   A    
N1    H25   S    
C15   C19   A    
C74   O10   A    
Cr1   O41   S    
C50   C54   A    
N8    H40   S    
C94   H53   S    
C78   O14   A    
C75   O7    A    
C65   O37   A    
C111  H94   S    
C79   O43   A    
C68   O4    A    
C52   C69   S    
C69   O49   A    
Cr6   O30   S    
N10   H43   S    
Cr7   O27   S    
C115  H105  S    
C1    O21   A    
Cr5   O25   S    
C17   H13   S    
C47   O35   A    
Cr8   O28   S    
C19   H15   S    
C106  H81   S    
Cr3   O3    S    
C64   C80   S    
C41   N1    S    
C113  H100  S    
Cr1   O1    S    
C114  H102  S    
Cr4   O20   S    
C115  C116  S    
N6    H36   S    
C53   C57   A    
C101  H69   S    
C116  H106  S    
C56   C60   A    
C113  C114  S    
C50   C71   S    
Cr7   O51   S    
C110  H91   S    
C104  H78   S    
Cr5   O49   S    
N11   H45   S    
C34   H22   S    
C7    C91   A    
C3    O27   A    
C99   H64   S    
C22   C90   A    
Cr7   O7    S    
C39   O63   S    
Cr2   O2    S    
C1    O25   A    
C4    O28   A    
C100  H67   S    
C31   C35   A    
Cr3   O23   S    
C97   H59   S    
C25   C30   A    
N4    H32   S    
Cr4   O48   S    
C21   C65   S    
C27   C32   A    
C3    O23   A    
C28   C31   A    
C15   O59   S    
C6    C10   A    
C65   O1    A    
C38   C42   A    
N3    H29   S    
C96   H57   S    
Cr9   O37   S    
C67   O39   A    
C43   C51   A    
C104  H76   S    
C71   O47   A    
C72   O48   A    
C24   C68   S    
C94   H52   S    
O64   C115  S    
C106  H83   S    
N7    H38   S    
C26   H18   S    
Cr3   O43   S    
Cr4   O24   S    
C7    O55   S    
O63   C113  S    
C14   C18   A    
C84   C87   D    
C76   O8    A    
C63   C79   S    
N9    H41   S    
C7    C11   A    
O58   C103  S    
C110  H93   S    
Cr10  O10   S    
C71   O51   A    
C22   C66   S    
Cr9   O13   S    
C20   C24   A    
C59   N7    S    
N5    H34   S    
C49   C72   S    
Cr12  O16   S    
Cr1   O17   S    
C51   C70   S    
O59   C105  S    
Cr10  O34   S    
Cr4   O4    S    
C85   H1    S    
C76   O12   A    
C66   O38   A    
C104  H77   S    
C30   C73   S    
C27   H19   S    
N12   H47   S    
C70   O50   A    
C39   C43   A    
Cr6   O18   S    
O61   C109  S    
C48   C84   S    
C57   N5    S    
Cr5   O29   S    
C103  H75   S    
Cr11  O11   S    
Cr12  O40   S    
Cr8   O32   S    
O54   C95   S    
Cr2   O46   S    
C77   O41   A    
N11   H46   S    
C73   O5    A    
C84   H11   S    
C95   H55   S    
C108  H87   S    
Cr4   O44   S    
C23   C91   A    
C98   H63   S    
C103  C104  S    
C40   O64   S    
C54   C58   A    
C116  H108  S    
C83   H12   S    
C67   O3    A    
C16   O60   S    
C37   C61   A    
C95   C96   S    
C39   C63   A    
Cr6   O6    S    
Cr11  O35   S    
C40   C64   A    
Cr9   O33   S    
C112  H97   S    
C3    C10   S    
C2    O26   A    
Cr10  O18   S    
C93   H49   S    
Cr8   O20   S    
C111  H95   S    
N3    H30   S    
C105  H79   S    
C26   C29   A    
N10   H44   S    
C46   O34   A    
C27   C28   A    
C98   H61   S    
C56   H8    S    
C52   C56   A    
C66   O2    A    
