data_mof_unit_6986.cif
_audit_creation_date              2012-12-10T19:00:47-0500
_audit_creation_method            fapswitch 2.2
_symmetry_space_group_name_H-M    P1
_symmetry_Int_Tables_number       1
_space_group_crystal_system       triclinic
_cell_length_a                    15.070576
_cell_length_b                    10.836799
_cell_length_c                    9.54273
_cell_angle_alpha                 90.359947
_cell_angle_beta                  89.84957
_cell_angle_gamma                 90.938769
_cell_volume                      1558.24325774

loop_
_atom_site_label
_atom_site_type_symbol
_atom_type_description
_atom_site_fract_x
_atom_site_fract_y
_atom_site_fract_z
_atom_type_partial_charge
C1    C     C_R   0.493249 0.262205 0.498866 0.887814
C2    C     C_R   0.906823 0.558217 0.614519 0.009577
C3    C     C_R   0.954363 0.370937 0.289570 0.350207
C4    C     C_R   0.046765 0.381188 0.286829 -0.233268
C5    C     C_R   0.092590 0.444610 0.392453 0.048212
C6    C     C_R   0.046264 0.499664 0.504101 0.070277
C7    C     C_R   0.093489 0.557956 0.614074 0.055710
C8    C     C_R   0.047702 0.616158 0.722708 -0.258547
C9    C     C_R   0.954868 0.618751 0.723657 0.436208
C10   C     C_R   0.184808 0.451327 0.389117 -0.172628
C11   C     C_R   0.231923 0.504017 0.500880 -0.072734
C12   C     C_R   0.328690 0.501800 0.500274 0.818332
C13   C     C_R   0.186278 0.557327 0.613427 -0.206100
C14   C     C_R   0.494948 0.064079 0.619558 0.080598
C15   C     C_R   0.477181 0.128526 0.496989 -0.258880
C16   C     C_R   0.441423 0.060939 0.379488 0.370582
C17   C     C_R   0.443119 0.929560 0.382861 0.118101
C18   C     C_R   0.479518 0.869520 0.500629 -0.190273
C19   C     C_R   0.496139 0.937889 0.621319 0.069020
C20   C     C_3   0.571956 0.934857 0.721463 -0.387956
C21   C     C_3   0.570460 0.074943 0.720487 -0.401251
C22   C     C_R   0.577757 0.498583 0.072963 0.214208
C23   C     C_R   0.495669 0.737463 0.500215 0.839933
C24   C     C_R   0.423841 0.518436 0.074643 -0.038355
C25   C     C_R   0.423817 0.518321 0.926184 -0.051667
C26   C     C_R   0.577706 0.497746 0.925752 0.229801
C27   C     C_3   0.645038 0.398880 0.918925 -0.406601
C28   C     C_3   0.646312 0.401491 0.077824 -0.386125
C29   C     C_R   0.671277 0.499554 0.500153 0.799317
C30   C     C_R   0.813931 0.557563 0.610661 -0.147267
C31   C     C_R   0.768012 0.498267 0.501852 -0.111857
C32   C     C_R   0.813810 0.435747 0.396852 -0.177646
C33   C     C_R   0.906541 0.433621 0.396124 0.014130
C34   C     C_R   0.953124 0.497131 0.504999 -0.026375
Cu1   Cu    Cu3+1 0.500000 0.499980 0.640670 0.963406
Cu2   Cu    Cu3+1 0.500000 0.500020 0.359330 1.002188
H1    H     H_    0.775964 0.604435 0.690413 0.204718
H2    H     H_    0.552309 0.894696 0.824105 0.213451
H3    H     H_    0.633012 0.896156 0.673811 0.208887
H4    H     H_    0.549397 0.114782 0.822638 0.230179
H5    H     H_    0.630930 0.117986 0.673314 0.197330
H6    H     H_    0.361719 0.530059 0.129200 0.126999
H7    H     H_    0.361691 0.529907 0.872225 0.142264
H8    H     H_    0.617873 0.311294 0.874520 0.208014
H9    H     H_    0.708418 0.431382 0.871086 0.244445
H10   H     H_    0.622298 0.314461 0.126980 0.249659
H11   H     H_    0.775962 0.388384 0.317148 0.199130
H12   H     H_    0.709388 0.439900 0.119596 0.226725
H13   H     H_    0.083683 0.337083 0.203332 0.197058
H14   H     H_    0.219664 0.412756 0.300696 0.164360
H15   H     H_    0.222984 0.600227 0.698889 0.143517
H16   H     H_    0.084867 0.661336 0.805983 0.191902
N1    N     N_R   0.500570 0.500930 0.147930 -0.166283
N2    N     N_R   0.500570 0.500890 0.852020 -0.186277
O1    O     O_R   0.500000 0.319640 0.618810 -0.582298
O2    O     O_R   0.500010 0.319680 0.381230 -0.505185
O3    O     O_R   0.370250 0.499950 0.618800 -0.596178
O4    O     O_R   0.370260 0.499990 0.381220 -0.583218
O5    O     O_R   0.499990 0.680320 0.618770 -0.587208
O6    O     O_R   0.500000 0.680360 0.381190 -0.550077
O7    O     O_R   0.629740 0.500010 0.618780 -0.591531
O8    O     O_R   0.629750 0.500050 0.381200 -0.591960
N3    N     N_2   0.412463 0.856830 0.267298 -0.390813
H17   H     H_    0.429715 0.886667 0.168528 0.298757
C35   C     C_3   0.323700 0.805284 0.282480 -0.520902
H18   H     H_    0.274187 0.879677 0.290652 0.256252
H19   H     H_    0.319004 0.747872 0.378145 0.192203
H20   H     H_    0.307523 0.746209 0.190317 0.202476
S1    S     S_3+6 0.902902 0.276978 0.158844 0.025478
O9    O     O_2   0.861939 0.358521 0.051114 -0.236250
O10   O     O_2   0.970053 0.196840 0.087413 -0.234979
O11   O     O_3   0.823470 0.185738 0.229435 -0.524005
H21   H     H_    0.853552 0.141026 0.305543 0.352724
S2    S     S_3+6 0.901911 0.700867 0.861234 0.016253
O12   O     O_2   0.968949 0.752538 0.963190 -0.250855
O13   O     O_2   0.850516 0.805078 0.799636 -0.291231
O14   O     O_3   0.831667 0.605540 0.946813 -0.538413
H22   H     H_    0.799192 0.659191 0.013131 0.371832
S3    S     S_3+6 0.397781 0.136864 0.228888 -0.002969
O15   O     O_2   0.473667 0.173493 0.134646 -0.316722
O16   O     O_2   0.333718 0.057358 0.146872 -0.295698
O17   O     O_3   0.342960 0.263079 0.277772 -0.532565
H23   H     H_    0.328974 0.304205 0.188319 0.360916

loop_
_geom_bond_atom_site_label_1
_geom_bond_atom_site_label_2
_ccdc_geom_bond_type
C8    C9    A    
N3    C35   S    
C24   H6    S    
C19   C20   S    
C25   H7    S    
C7    C8    A    
O14   H22   S    
C23   O5    A    
C28   H10   S    
C26   C27   S    
S2    O13   D    
C14   C21   S    
C3    S1    S    
C1    O2    A    
Cu2   O4    S    
C5    C6    A    
C3    C33   A    
C15   C16   A    
Cu1   O5    S    
C18   C19   A    
S1    O10   D    
Cu2   N1    S    
C13   H15   S    
C27   H8    S    
Cu1   Cu2   S    
C16   C17   A    
C35   H19   S    
S2    O14   S    
C1    C15   S    
C8    H16   S    
C12   O4    A    
C2    C34   A    
C22   C28   S    
Cu1   N2    S    
Cu2   O8    S    
C26   N2    A    
C17   C18   A    
C22   N1    A    
C23   O6    A    
C29   O7    A    
S2    O12   D    
Cu1   O1    S    
C18   C23   S    
C25   N2    A    
S3    O16   D    
C20   H3    S    
C4    C5    A    
C24   N1    A    
N3    H17   S    
C30   H1    S    
S1    O11   S    
Cu2   O2    S    
C20   H2    S    
C31   C32   A    
C35   H20   S    
C33   C34   A    
Cu1   O7    S    
C24   C25   A    
C21   H5    S    
C12   O3    A    
C35   H18   S    
C32   H11   S    
C9    S2    S    
C3    C4    A    
C10   H14   S    
C29   O8    A    
C28   H12   S    
C14   C19   A    
O11   H21   S    
Cu2   O6    S    
S3    O17   S    
C11   C12   S    
C6    C7    A    
Cu1   O3    S    
C4    H13   S    
C2    C30   A    
C16   S3    S    
C32   C33   A    
C1    O1    A    
C5    C10   A    
C29   C31   S    
C17   N3    S    
C11   C13   A    
C27   H9    S    
C30   C31   A    
C21   H4    S    
S1    O9    D    
C10   C11   A    
S3    O15   D    
C6    C34   A    
C7    C13   A    
C20   C21   S    
O17   H23   S    
C22   C26   A    
C27   C28   S    
C14   C15   A    
C2    C9    A    
