data_mof_unit_46753.cif
_audit_creation_date              2013-03-05T15:41:59-0500
_audit_creation_method            fapswitch 2.2
_symmetry_space_group_name_H-M    P1
_symmetry_Int_Tables_number       1
_space_group_crystal_system       triclinic
_cell_length_a                    11.871587
_cell_length_b                    11.831041
_cell_length_c                    18.702412
_cell_angle_alpha                 89.660509
_cell_angle_beta                  90.714003
_cell_angle_gamma                 120.105123
_cell_volume                      2272.29764625

loop_
_atom_site_label
_atom_site_type_symbol
_atom_site_description
_atom_site_fract_x
_atom_site_fract_y
_atom_site_fract_z
_atom_type_partial_charge
O1    O     O_R   0.910960 0.572410 0.171010 -0.511787
O2    O     O_R   0.427590 0.338550 0.171010 -0.511687
O3    O     O_R   0.661450 0.089040 0.171010 -0.467913
O4    O     O_R   0.572410 0.910960 0.828990 -0.516220
O5    O     O_R   0.338550 0.427590 0.828990 -0.519944
O6    O     O_R   0.089040 0.661450 0.828990 -0.484849
O7    O     O_R   0.639750 0.528530 0.175600 -0.449528
O8    O     O_R   0.471470 0.111220 0.175600 -0.438617
O9    O     O_R   0.888780 0.360250 0.175600 -0.439087
O10   O     O_R   0.528530 0.639750 0.824400 -0.447954
O11   O     O_R   0.111220 0.471470 0.824400 -0.444698
O12   O     O_R   0.360250 0.888780 0.824400 -0.434474
C1    C     C_R   0.524938 0.448765 0.145675 0.566802
C2    C     C_R   0.545855 0.074347 0.144472 0.559495
C3    C     C_R   0.936689 0.477861 0.148903 0.547574
C4    C     C_R   0.452880 0.523406 0.852911 0.566311
C5    C     C_R   0.077912 0.548974 0.856176 0.585143
C6    C     C_R   0.478460 0.937336 0.850691 0.561097
O13   O     O_R   0.909330 0.572400 0.331540 -0.562515
O14   O     O_R   0.427600 0.336930 0.331540 -0.558835
O15   O     O_R   0.663070 0.090670 0.331540 -0.566127
O16   O     O_R   0.572400 0.909330 0.668460 -0.560936
O17   O     O_R   0.336930 0.427600 0.668460 -0.560010
O18   O     O_R   0.090670 0.663070 0.668460 -0.567744
O19   O     O_R   0.638240 0.528520 0.324410 -0.559868
O20   O     O_R   0.471480 0.109720 0.324410 -0.542293
O21   O     O_R   0.890280 0.361760 0.324410 -0.542221
O22   O     O_R   0.528520 0.638240 0.675590 -0.565668
O23   O     O_R   0.109720 0.471480 0.675590 -0.542311
O24   O     O_R   0.361760 0.890280 0.675590 -0.532556
C7    C     C_R   0.525000 0.449085 0.355212 0.525161
C8    C     C_R   0.542788 0.058354 0.349796 0.522258
C9    C     C_R   0.884085 0.456840 0.360882 0.533706
C10   C     C_R   0.447955 0.525077 0.644550 0.522734
C11   C     C_R   0.057783 0.542247 0.650291 0.529290
C12   C     C_R   0.456926 0.884672 0.639013 0.534663
Cr1   Cr    Cr6+3 0.768550 0.541320 0.250660 0.985410
Cr2   Cr    Cr6+3 0.458680 0.227230 0.250660 0.993013
Cr3   Cr    Cr6+3 0.772770 0.231450 0.250660 1.022796
Cr4   Cr    Cr6+3 0.541320 0.768550 0.749340 0.986125
Cr5   Cr    Cr6+3 0.227230 0.458680 0.749340 0.980923
Cr6   Cr    Cr6+3 0.231450 0.772770 0.749340 1.026699
O25   O     O_3   0.666667 0.333333 0.250630 -0.317360
O26   O     O_3   0.333333 0.666667 0.749370 -0.316208
C13   C     C_R   0.492311 0.016942 0.915578 -0.036496
C14   C     C_R   0.055111 0.516986 0.935234 -0.037180
C15   C     C_R   0.489390 0.505354 0.924887 -0.034933
C16   C     C_R   0.017495 0.492240 0.084442 -0.052895
C17   C     C_R   0.510628 0.051000 0.065106 -0.036115
C18   C     C_R   0.509975 0.478443 0.071951 -0.032194
C19   C     C_R   0.386401 0.012011 0.951726 -0.049012
C20   C     C_R   0.009424 0.391646 0.967547 -0.026996
C21   C     C_R   0.603614 0.599738 0.961885 -0.074299
C22   C     C_R   0.005621 0.384353 0.045012 -0.046489
C23   C     C_R   0.387685 0.014322 0.029488 -0.011899
C24   C     C_R   0.598620 0.597411 0.038382 -0.075099
C25   C     C_R   0.618534 0.096185 0.020685 0.254393
C26   C     C_R   0.098815 0.612485 0.055632 0.249623
C27   C     C_R   0.419736 0.375627 0.029529 0.240806
C28   C     C_R   0.102074 0.624387 0.981398 0.263673
C29   C     C_R   0.608931 0.093538 0.946933 0.251428
C30   C     C_R   0.390653 0.404388 0.963998 0.238806
C31   C     C_R   0.284448 0.014717 0.912979 0.340346
C32   C     C_R   0.963279 0.273619 0.927253 0.380916
C33   C     C_R   0.717004 0.701827 0.928212 0.303109
C34   C     C_R   0.997116 0.272526 0.079029 0.350490
C35   C     C_R   0.267417 0.979265 0.064553 0.430088
C36   C     C_R   0.688929 0.710094 0.077510 0.304623
C37   C     C_R   0.173123 0.983616 0.948682 -0.078313
C38   C     C_R   0.938341 0.161315 0.964673 -0.081014
C39   C     C_R   0.807106 0.804097 0.970218 -0.189102
C40   C     C_R   0.966298 0.165412 0.036844 -0.080528
C41   C     C_R   0.161464 0.959120 0.021258 -0.064031
C42   C     C_R   0.800826 0.799325 0.044049 -0.181098
H1    H     H_    0.092256 0.975904 0.917960 0.079151
H2    H     H_    0.905531 0.070514 0.937765 0.068239
H3    H     H_    0.889637 0.883661 0.945416 0.099802
H4    H     H_    0.954877 0.079044 0.062214 0.080440
H5    H     H_    0.068859 0.931735 0.043216 0.048626
H6    H     H_    0.876344 0.874738 0.076104 0.102914
H7    H     H_    0.330371 0.998478 0.427159 0.154402
H8    H     H_    0.984185 0.333744 0.445463 0.130855
H9    H     H_    0.664335 0.679037 0.435111 0.126115
H10   H     H_    0.997535 0.329037 0.572078 0.154054
H11   H     H_    0.329422 0.979491 0.553498 0.133650
H12   H     H_    0.678067 0.662056 0.567294 0.126122
C43   C     C_R   0.457747 0.901330 0.559303 0.009628
C44   C     C_R   0.967590 0.490536 0.588167 0.014216
C45   C     C_R   0.474015 0.512916 0.570485 0.023856
C46   C     C_R   0.901034 0.457814 0.440515 0.011132
C47   C     C_R   0.491696 0.968969 0.411957 0.012229
C48   C     C_R   0.511751 0.476347 0.429042 0.022507
C49   C     C_R   0.543202 0.881791 0.516974 -0.034189
C50   C     C_R   0.917382 0.564192 0.555536 -0.018892
C51   C     C_R   0.375665 0.419438 0.527469 -0.026277
C52   C     C_R   0.880385 0.542431 0.483241 -0.035599
C53   C     C_R   0.564848 0.918674 0.444859 -0.019316
C54   C     C_R   0.414994 0.379170 0.470444 -0.023811
C55   C     C_R   0.391007 0.966420 0.450991 -0.147293
C56   C     C_R   0.946611 0.383582 0.474922 -0.138502
C57   C     C_R   0.594643 0.594354 0.463318 -0.164583
C58   C     C_R   0.965467 0.389973 0.548538 -0.147544
C59   C     C_R   0.382631 0.945445 0.524420 -0.138114
C60   C     C_R   0.593328 0.594089 0.537801 -0.164257
C61   C     C_R   0.627504 0.849447 0.548663 -0.174615
C62   C     C_R   0.926038 0.676720 0.586451 -0.173626
C63   C     C_R   0.244903 0.356126 0.541303 -0.163548
C64   C     C_R   0.848357 0.626982 0.451671 -0.176911
C65   C     C_R   0.676366 0.926475 0.414281 -0.173367
C66   C     C_R   0.353964 0.247305 0.457912 -0.161142
C67   C     C_R   0.756913 0.916412 0.530491 0.336950
C68   C     C_R   0.965955 0.784879 0.540641 0.369628
C69   C     C_R   0.170344 0.223584 0.524679 0.335197
C70   C     C_R   0.915508 0.756891 0.470386 0.338069
C71   C     C_R   0.784451 0.966450 0.460398 0.367864
C72   C     C_R   0.222999 0.170825 0.475447 0.333549
H13   H     H_    0.596682 0.787677 0.592551 0.176403
H14   H     H_    0.922144 0.687967 0.643454 0.133435
H15   H     H_    0.206966 0.408280 0.569688 0.143716
H16   H     H_    0.787308 0.596079 0.407302 0.175725
H17   H     H_    0.686785 0.921465 0.357325 0.138643
H18   H     H_    0.406580 0.208843 0.430524 0.144382
O27   O     O_3   0.725299 0.100874 0.048167 -0.538347
C73   C     C_3   0.694794 0.969934 0.053242 -0.094783
H19   H     H_    0.712776 0.941260 0.000680 0.140019
H20   H     H_    0.592148 0.896870 0.065726 0.083650
H21   H     H_    0.752729 0.964968 0.098341 0.200427
O28   O     O_3   0.162873 0.721681 0.097903 -0.540130
C74   C     C_3   0.239769 0.703798 0.150153 -0.108625
H22   H     H_    0.319152 0.800008 0.168746 0.167067
H23   H     H_    0.287644 0.652255 0.128189 0.063159
H24   H     H_    0.180709 0.651627 0.197488 0.122171
O29   O     O_3   0.350321 0.248547 0.053490 -0.567716
C75   C     C_3   0.234137 0.227873 0.084244 -0.029576
H25   H     H_    0.154864 0.145153 0.059654 0.087052
H26   H     H_    0.219627 0.311969 0.078650 0.147061
H27   H     H_    0.225031 0.197117 0.140456 0.168886
O30   O     O_3   0.108779 0.733020 0.954462 -0.540377
C76   C     C_3   0.978471 0.703890 0.949851 -0.094308
H28   H     H_    0.950291 0.718308 0.003477 0.146146
H29   H     H_    0.904555 0.602357 0.934285 0.067978
H30   H     H_    0.972801 0.764481 0.906789 0.186261
O31   O     O_3   0.711013 0.178023 0.906352 -0.535730
C77   C     C_3   0.701468 0.290451 0.892065 -0.096823
H31   H     H_    0.799787 0.377314 0.893173 0.146363
H32   H     H_    0.643127 0.309635 0.931590 0.074946
H33   H     H_    0.663818 0.284526 0.836928 0.106693
O32   O     O_3   0.261697 0.365128 0.950053 -0.576469
C78   C     C_3   0.203340 0.244848 0.914547 -0.062466
H34   H     H_    0.141363 0.169027 0.950588 0.090014
H35   H     H_    0.271798 0.221242 0.890940 0.152405
H36   H     H_    0.144835 0.247631 0.869643 0.174310
O33   O     O_3   0.282781 0.039407 0.839762 -0.567551
C79   C     C_3   0.395670 0.153612 0.816322 -0.132893
H37   H     H_    0.450999 0.223127 0.860154 0.070645
H38   H     H_    0.365076 0.205682 0.778245 0.136442
H39   H     H_    0.459325 0.128049 0.786009 0.154269
O34   O     O_3   0.932795 0.270056 0.854088 -0.528758
C80   C     C_3   0.892784 0.151741 0.816613 -0.063223
H40   H     H_    0.867184 0.164408 0.761121 0.125884
H41   H     H_    0.804306 0.068933 0.839309 0.196601
H42   H     H_    0.970349 0.126395 0.813065 0.031969
O35   O     O_3   0.748991 0.708507 0.856148 -0.558816
C81   C     C_3   0.741563 0.592546 0.830455 -0.129610
H43   H     H_    0.703424 0.511374 0.869411 0.057007
H44   H     H_    0.839552 0.614319 0.813509 0.136042
H45   H     H_    0.678806 0.558703 0.781843 0.148885
O36   O     O_3   0.015347 0.257363 0.152050 -0.562790
C82   C     C_3   0.126089 0.364615 0.184390 -0.137175
H46   H     H_    0.191870 0.440695 0.146599 0.067529
H47   H     H_    0.183224 0.327640 0.213209 0.117943
H48   H     H_    0.096269 0.409996 0.226146 0.159478
O37   O     O_3   0.256456 0.963583 0.138944 -0.528058
C83   C     C_3   0.131928 0.920683 0.168725 -0.077421
H49   H     H_    0.137573 0.903527 0.226598 0.106873
H50   H     H_    0.055151 0.827006 0.145766 0.189424
H51   H     H_    0.101049 0.994165 0.163634 0.052585
O38   O     O_3   0.674864 0.740473 0.147762 -0.559489
C84   C     C_3   0.548863 0.719437 0.161756 -0.136257
H52   H     H_    0.484761 0.692936 0.113762 0.079572
H53   H     H_    0.558402 0.810076 0.184761 0.129723
H54   H     H_    0.501014 0.642433 0.202936 0.139494
O39   O     O_3   0.854264 0.927894 0.576675 -0.471358
C85   C     C_3   0.818394 0.894850 0.649374 -0.098950
H55   H     H_    0.754968 0.789429 0.657771 0.123058
H56   H     H_    0.781495 0.954946 0.672625 0.144490
H57   H     H_    0.904673 0.918542 0.682209 0.095275
O40   O     O_3   0.049597 0.913522 0.561600 -0.436429
C86   C     C_3   0.126841 0.923769 0.621859 -0.070211
H58   H     H_    0.207873 0.026000 0.626953 0.114400
H59   H     H_    0.169602 0.861441 0.615219 0.167953
H60   H     H_    0.071800 0.897098 0.672269 0.096751
O41   O     O_3   0.049952 0.148522 0.555361 -0.439551
C87   C     C_3   0.052999 0.169960 0.630660 -0.066453
H61   H     H_    0.955294 0.147989 0.647344 0.112569
H62   H     H_    0.114702 0.269526 0.650193 0.129981
H63   H     H_    0.083200 0.109350 0.660771 0.113515
O42   O     O_3   0.927635 0.854566 0.424420 -0.469563
C88   C     C_3   0.891615 0.817723 0.351773 -0.098309
H64   H     H_    0.786072 0.755533 0.343810 0.126239
H65   H     H_    0.949531 0.779344 0.327750 0.146838
H66   H     H_    0.915629 0.903983 0.319124 0.093450
O43   O     O_3   0.912516 0.049709 0.439797 -0.436443
C89   C     C_3   0.922326 0.126313 0.379526 -0.073131
H67   H     H_    0.024525 0.206501 0.374268 0.108398
H68   H     H_    0.861026 0.170162 0.386222 0.169259
H69   H     H_    0.894026 0.070327 0.329053 0.097892
O44   O     O_3   0.149610 0.048421 0.445557 -0.443231
C90   C     C_3   0.168007 0.049959 0.370080 -0.068974
H70   H     H_    0.144669 0.951304 0.353142 0.117379
H71   H     H_    0.266878 0.111104 0.350129 0.127093
H72   H     H_    0.107143 0.080706 0.340636 0.112172

loop_
_geom_bond_atom_site_label_1
_geom_bond_atom_site_label_2
_geom_bond_distance
_ccdc_geom_bond_type
O19   C7    1.329588 A    
C87   H62   1.091085 S    
O43   C89   1.410972 S    
O20   C8    1.346855 A    
C54   C66   1.371114 A    
C49   C53   1.401668 A    
O18   Cr6   2.133077 S    
C82   H46   1.104829 S    
C64   H16   1.034554 S    
C55   C59   1.389963 A    
O35   C81   1.416429 S    
H12   C60   1.069023 S    
O28   C74   1.414954 S    
C15   C30   1.393662 A    
C68   C70   1.407607 A    
O38   C84   1.415435 S    
C51   C54   1.350553 A    
C48   C54   1.388376 A    
O27   C73   1.405837 S    
C62   C68   1.408854 A    
O37   C83   1.420484 S    
O21   C9    1.352556 A    
C16   C22   1.421614 A    
O8    Cr2   2.028482 S    
C13   C19   1.410126 A    
C18   C27   1.392765 A    
C81   H43   1.105359 S    
C26   O28   1.372547 S    
C78   H35   1.082368 S    
C76   H30   1.098748 S    
C8    C47   1.482335 S    
O22   Cr4   2.021724 S    
C36   C42   1.369968 A    
O31   C77   1.414127 S    
C14   C20   1.431461 A    
O9    Cr3   2.026573 S    
C90   H72   1.099562 S    
H10   C58   1.061083 S    
C85   H55   1.098072 S    
O10   Cr4   2.015851 S    
C64   C70   1.374971 A    
C25   C29   1.381869 A    
C86   H59   1.093200 S    
O2    C1    1.324766 A    
C83   H49   1.107449 S    
C63   C69   1.394854 A    
O5    C4    1.332210 A    
O12   Cr6   2.014078 S    
O13   Cr1   2.131570 S    
C39   C42   1.383049 A    
O19   Cr1   2.033288 S    
C29   O31   1.357401 S    
C34   C40   1.379061 A    
C31   C37   1.363507 A    
O21   Cr3   2.011249 S    
O44   C90   1.429711 S    
C71   O43   1.392094 S    
C88   H66   1.095772 S    
C40   H4    1.069820 S    
C80   H41   1.103240 S    
C37   C41   1.380341 A    
O42   C88   1.422807 S    
O1    C3    1.366355 A    
C32   C38   1.393682 A    
C21   C33   1.431277 A    
C79   H38   1.109686 S    
H11   C59   1.059907 S    
O1    Cr1   2.155232 S    
C15   C21   1.425229 A    
C84   H54   1.108722 S    
C49   C61   1.366016 A    
C13   C29   1.345103 A    
C87   H61   1.102697 S    
C52   C64   1.364839 A    
O3    Cr3   2.133371 S    
C88   H64   1.097854 S    
C42   H6    1.072250 S    
C62   H14   1.079575 S    
C82   H47   1.108010 S    
C61   H13   1.036245 S    
Cr6   O26   2.135851 S    
C3    C16   1.505081 S    
C75   H27   1.099152 S    
C77   H33   1.107242 S    
C4    C15   1.456175 S    
C46   C56   1.392650 A    
C20   C22   1.450747 A    
C12   C43   1.502099 S    
O7    Cr1   2.012090 S    
O15   C8    1.328417 A    
C44   C50   1.411659 A    
O18   C11   1.324329 A    
C38   C40   1.381261 A    
C84   H53   1.109194 S    
O4    Cr4   2.141549 S    
C19   C31   1.416981 A    
C5    C14   1.517655 S    
C31   O33   1.400428 S    
C79   H39   1.107212 S    
C77   H32   1.118080 S    
C20   C32   1.432729 A    
C78   H36   1.094001 S    
O20   Cr2   2.010568 S    
C75   H26   1.095790 S    
H7    C55   1.060470 S    
C33   C39   1.384683 A    
C27   O29   1.377928 S    
C18   C24   1.415212 A    
C84   H52   1.109075 S    
O40   C86   1.410689 S    
C45   C51   1.387558 A    
C86   H60   1.104695 S    
C70   O42   1.385498 S    
O39   C85   1.422642 S    
C25   O27   1.336903 S    
O14   Cr2   2.150878 S    
C11   C44   1.480193 S    
O2    Cr2   2.130855 S    
C23   C35   1.437603 A    
C80   H40   1.108118 S    
O15   Cr3   2.145116 S    
C89   H69   1.104064 S    
Cr4   O26   2.136325 S    
C76   H28   1.102059 S    
O17   C10   1.323217 A    
O16   Cr4   2.136807 S    
C33   O35   1.395813 S    
C67   O39   1.385365 S    
C90   H70   1.103279 S    
C41   H5    1.065170 S    
C80   H42   1.104982 S    
C47   C53   1.409831 A    
C50   C52   1.401155 A    
C83   H51   1.103226 S    
C79   H37   1.110171 S    
C72   O44   1.378586 S    
O3    C2    1.380039 A    
C51   C63   1.370781 A    
C48   C57   1.394694 A    
C73   H21   1.101543 S    
C35   C41   1.403821 A    
O36   C82   1.421298 S    
C56   C58   1.388517 A    
C89   H68   1.093703 S    
C7    C48   1.448084 S    
C57   C60   1.393248 A    
C45   C60   1.397229 A    
C38   H2    1.068075 S    
O34   C80   1.418656 S    
Cr5   O26   2.128917 S    
C43   C59   1.393421 A    
Cr1   O25   2.128909 S    
C32   O34   1.406478 S    
C6    C13   1.496655 S    
C66   C72   1.393368 A    
C39   H3    1.068707 S    
C2    C17   1.525745 S    
C73   H20   1.111144 S    
C74   H22   1.106842 S    
C21   C24   1.432160 A    
O6    C5    1.365299 A    
O5    Cr5   2.129064 S    
O11   C5    1.313919 A    
C27   C30   1.356264 A    
O8    C2    1.308174 A    
H9    C57   1.067549 S    
C14   C28   1.400419 A    
C69   O41   1.379060 S    
C81   H45   1.109114 S    
O13   C9    1.358072 A    
C77   H31   1.102386 S    
C17   C23   1.451241 A    
O17   Cr5   2.157643 S    
C68   O40   1.391891 S    
C17   C25   1.396876 A    
C44   C58   1.394771 A    
C16   C26   1.368327 A    
C69   C72   1.428537 A    
C46   C52   1.400495 A    
C75   H25   1.060920 S    
C22   C34   1.422318 A    
C34   O36   1.404560 S    
O16   C12   1.359988 A    
O23   C11   1.345701 A    
C63   H15   1.074256 S    
C85   H57   1.096883 S    
O24   C12   1.357847 A    
H8    C56   1.060204 S    
C24   C36   1.421423 A    
C74   H24   1.109562 S    
C81   H44   1.107996 S    
C53   C65   1.408521 A    
O9    C3    1.309145 A    
C10   C45   1.446679 S    
O4    C6    1.366757 A    
Cr2   O25   2.136136 S    
O10   C4    1.322381 A    
C78   H34   1.069322 S    
C66   H18   1.074935 S    
C76   H29   1.112684 S    
C65   H17   1.079303 S    
O29   C75   1.404558 S    
C35   O37   1.401541 S    
C43   C49   1.402412 A    
C36   O38   1.398067 S    
C82   H48   1.107251 S    
C85   H56   1.098795 S    
C37   H1    1.076613 S    
C19   C23   1.454493 A    
O32   C78   1.398816 S    
C61   C67   1.375567 A    
C86   H58   1.108709 S    
C83   H50   1.107227 S    
C50   C62   1.409848 A    
O30   C76   1.407648 S    
C65   C71   1.408017 A    
O22   C10   1.324783 A    
C1    C18   1.451429 S    
C87   H63   1.099072 S    
O7    C1    1.326074 A    
C89   H67   1.108567 S    
Cr3   O25   2.136049 S    
C67   C71   1.408235 A    
O41   C87   1.429202 S    
O6    Cr6   2.148882 S    
O11   Cr5   2.037173 S    
O12   C6    1.310934 A    
C88   H65   1.097293 S    
C90   H71   1.093689 S    
O23   Cr5   2.008236 S    
O24   Cr6   2.025187 S    
C30   O32   1.380430 S    
C47   C55   1.395705 A    
O33   C79   1.415971 S    
C9    C46   1.499713 S    
C26   C28   1.393696 A    
C28   O30   1.342643 S    
C73   H19   1.099475 S    
C74   H23   1.104584 S    
O14   C7    1.322400 A    
