data_mof_unit_50509.cif
_audit_creation_date              2012-12-10T17:52:04-0500
_audit_creation_method            fapswitch 2.2
_symmetry_space_group_name_H-M    P1
_symmetry_Int_Tables_number       1
_space_group_crystal_system       triclinic
_cell_length_a                    14.760948
_cell_length_b                    14.866259
_cell_length_c                    19.35221
_cell_angle_alpha                 76.040643
_cell_angle_beta                  102.98148
_cell_angle_gamma                 115.613077
_cell_volume                      3680.94347364

loop_
_atom_site_label
_atom_site_type_symbol
_atom_type_description
_atom_site_fract_x
_atom_site_fract_y
_atom_site_fract_z
_atom_type_partial_charge
C1    C     C_R   0.879935 0.312635 0.510213 0.840200
C2    C     C_R   0.119688 0.687664 0.487474 0.845435
C3    C     C_R   0.810686 0.205244 0.515423 -0.090009
C4    C     C_R   0.186403 0.795932 0.482101 -0.073025
C5    C     C_R   0.778592 0.028392 0.556850 -0.120312
C6    C     C_R   0.216257 0.968512 0.486004 -0.086391
C7    C     C_R   0.845437 0.129709 0.550531 -0.267698
C8    C     C_R   0.150924 0.866638 0.488787 -0.292888
C9    C     C_R   0.708312 0.178185 0.485370 0.365100
C10   C     C_R   0.286697 0.829109 0.470500 0.360720
C11   C     C_R   0.637220 0.078269 0.504103 -0.071026
C12   C     C_R   0.357505 0.926106 0.483873 -0.089117
C13   C     C_R   0.674091 0.001446 0.534403 0.079435
C14   C     C_R   0.320391 0.999223 0.484425 0.082140
C15   C     C_R   0.531322 0.053276 0.495020 0.021075
C16   C     C_R   0.463314 0.950892 0.498243 0.020281
C17   C     C_R   0.501954 0.875153 0.523304 -0.268203
C18   C     C_R   0.492287 0.126815 0.489687 -0.286368
C19   C     C_R   0.606178 0.899528 0.543032 0.425833
C20   C     C_R   0.387831 0.100624 0.484737 0.447931
C21   C     C_R   0.687248 0.609894 0.353769 0.255987
C22   C     C_R   0.269777 0.314677 0.610632 0.256944
C23   C     C_R   0.999806 0.499760 0.632409 0.775051
C24   C     C_R   0.000681 0.500773 0.367617 0.800172
C25   C     C_R   0.783334 0.611553 0.385615 0.478032
C26   C     C_R   0.195880 0.355453 0.597171 0.457227
C27   C     C_R   0.719822 0.520311 0.495635 0.505288
C28   C     C_R   0.287158 0.489626 0.511270 0.466838
C29   C     C_R   0.621933 0.522654 0.467658 -0.180327
C30   C     C_R   0.365531 0.452801 0.523250 -0.195059
C31   C     C_R   0.611465 0.579442 0.398095 -0.186983
C32   C     C_R   0.361836 0.372033 0.580975 -0.151854
C33   C     C_R   0.534738 0.471339 0.505626 0.069055
C34   C     C_R   0.447574 0.494295 0.480915 0.040239
C35   C     C_R   0.442953 0.554549 0.413066 -0.248801
C36   C     C_R   0.530034 0.394889 0.565700 -0.307945
C37   C     C_R   0.525283 0.603221 0.374950 0.487193
C38   C     C_R   0.450161 0.351894 0.606392 0.459867
C39   C     C_R   0.065423 0.466860 0.762300 -0.155927
C40   C     C_R   0.947894 0.547758 0.237183 -0.126052
C41   C     C_R   0.065735 0.466932 0.834336 -0.132034
C42   C     C_R   0.948322 0.548136 0.165224 -0.139542
C43   C     C_R   0.000463 0.499854 0.853931 0.042749
C44   C     C_R   0.004195 0.503650 0.146403 0.043307
C45   C     C_R   0.934522 0.532242 0.800038 -0.124196
C46   C     C_R   0.060309 0.459581 0.201035 -0.119748
C47   C     C_R   0.934099 0.531995 0.728008 -0.152686
C48   C     C_R   0.059521 0.458987 0.273042 -0.147858
C49   C     C_R   0.999661 0.499472 0.708471 -0.041613
C50   C     C_R   0.002517 0.502319 0.291697 -0.042716
C51   C     C_R   0.003598 0.502992 0.070252 0.426655
C52   C     C_R   0.001462 0.500801 0.930101 0.425419
Cu1   Cu    Cu3+1 0.081740 0.475680 0.518680 1.061834
Cu2   Cu    Cu3+1 0.918260 0.524320 0.481320 1.073614
H1    H     H_    0.116644 0.441059 0.748881 0.177292
H2    H     H_    0.905808 0.584127 0.250105 0.221454
H3    H     H_    0.374644 0.565084 0.387527 0.226976
H4    H     H_    0.587857 0.365349 0.582312 0.199384
H5    H     H_    0.117459 0.441504 0.874563 0.171990
H6    H     H_    0.905079 0.583621 0.124445 0.170848
H7    H     H_    0.883184 0.557945 0.813360 0.175690
H8    H     H_    0.104366 0.424900 0.188316 0.171736
H9    H     H_    0.882916 0.558021 0.687704 0.180492
H10   H     H_    0.102809 0.423772 0.314060 0.168089
H11   H     H_    0.072508 0.843472 0.495201 0.189346
H12   H     H_    0.924559 0.148833 0.572228 0.240123
H13   H     H_    0.808594 0.971620 0.581955 0.208068
H14   H     H_    0.185915 0.022002 0.488642 0.221209
H15   H     H_    0.451049 0.796372 0.533067 0.175105
H16   H     H_    0.542750 0.204266 0.494425 0.188817
N1    N     N_R   0.943077 0.538286 0.948975 -0.213715
N2    N     N_R   0.061969 0.465469 0.051390 -0.212222
N3    N     N_R   0.944144 0.539379 0.017665 -0.215965
N4    N     N_R   0.060985 0.464477 0.982682 -0.214830
N5    N     N_R   0.795420 0.560800 0.453240 -0.219647
N6    N     N_R   0.204580 0.439200 0.546760 -0.222500
O1    O     O_R   0.977910 0.338110 0.524620 -0.544991
O2    O     O_R   0.022090 0.661890 0.475380 -0.570951
O3    O     O_R   0.839850 0.379180 0.493080 -0.508166
O4    O     O_R   0.160150 0.620820 0.506920 -0.497649
O5    O     O_R   0.069040 0.479450 0.615630 -0.558257
O6    O     O_R   0.930960 0.520550 0.384370 -0.519258
O7    O     O_R   0.930990 0.520520 0.584090 -0.538208
O8    O     O_R   0.069010 0.479480 0.415910 -0.560413
S1    S     S_3+6 0.526271 0.712662 0.312072 0.062073
O9    O     O_2   0.633056 0.789915 0.307583 -0.253956
O10   O     O_2   0.475587 0.685147 0.239172 -0.188646
O11   O     O_3   0.461435 0.763661 0.339562 -0.558453
H17   H     H_    0.466347 0.824903 0.303454 0.381292
S2    S     S_3+6 0.480638 0.302134 0.697524 0.079008
O12   O     O_2   0.421814 0.315992 0.745269 -0.207128
O13   O     O_2   0.458719 0.191796 0.705784 -0.211143
O14   O     O_3   0.605048 0.364849 0.724429 -0.518236
H18   H     H_    0.639492 0.327010 0.713014 0.356350
O15   O     O_3   0.296575 0.581217 0.470157 -0.641181
H19   H     H_    0.367919 0.628715 0.481554 0.334180
O16   O     O_3   0.744768 0.487338 0.566889 -0.714709
H20   H     H_    0.718704 0.516606 0.594935 0.315860
O17   O     O_3   0.112024 0.310730 0.632813 -0.669736
H21   H     H_    0.127237 0.269656 0.678748 0.348891
O18   O     O_3   0.865984 0.660960 0.348750 -0.678932
H22   H     H_    0.851322 0.708744 0.307011 0.345562
S3    S     S_3+6 0.653419 0.602001 0.260351 0.064558
O19   O     O_2   0.541946 0.539622 0.243540 -0.227249
O20   O     O_2   0.680555 0.705855 0.216133 -0.213665
O21   O     O_3   0.717409 0.545268 0.238432 -0.546793
H23   H     H_    0.700471 0.548962 0.185590 0.378532
S4    S     S_3+6 0.228471 0.181487 0.640143 0.056143
O22   O     O_2   0.287158 0.139614 0.612673 -0.228368
O23   O     O_2   0.239915 0.157957 0.720824 -0.213875
O24   O     O_3   0.105190 0.124603 0.607886 -0.554889
H24   H     H_    0.087029 0.051541 0.625981 0.371302
O25   O     O_3   0.642957 0.824981 0.570763 -0.727829
H25   H     H_    0.585597 0.757669 0.572088 0.329273
O26   O     O_3   0.350322 0.173018 0.479339 -0.696130
H26   H     H_    0.407102 0.240659 0.477418 0.331615
O27   O     O_3   0.309944 0.770694 0.437697 -0.688967
H27   H     H_    0.367441 0.815616 0.410644 0.355712
O28   O     O_3   0.682090 0.247932 0.433124 -0.714149
H28   H     H_    0.624447 0.210861 0.398923 0.338593

loop_
_geom_bond_atom_site_label_1
_geom_bond_atom_site_label_2
_ccdc_geom_bond_type
C18   H16   S    
C15   C18   A    
C17   H15   S    
O14   H18   S    
C27   C29   A    
C1    O1    A    
Cu1   O1    S    
O15   H19   S    
C5    H13   S    
O16   H20   S    
C47   C49   A    
Cu1   Cu2   S    
C21   C31   A    
O18   H22   S    
C22   C32   A    
C46   H8    S    
C28   O15   S    
C2    O2    A    
C37   S1    S    
C35   C37   A    
O25   H25   S    
C3    C7    A    
C36   H4    S    
C47   H9    S    
C22   S4    S    
C43   C52   S    
C23   C49   S    
O21   H23   S    
C19   O25   S    
O26   H26   S    
C29   C33   A    
C33   C36   A    
S4    O22   D    
Cu1   O5    S    
C34   C35   A    
C45   H7    S    
C24   O6    A    
C11   C15   A    
C39   H1    S    
C12   C16   A    
C16   C17   A    
C40   H2    S    
C26   N6    A    
C32   C38   A    
C5    C13   A    
C4    C8    A    
C26   O17   S    
C6    H14   S    
C8    H11   S    
C41   C43   A    
C42   C44   A    
C27   N5    A    
C10   C12   A    
Cu2   O7    S    
C44   C46   A    
C45   C47   A    
C24   C50   S    
C46   C48   A    
C30   C34   A    
S1    O10   D    
C14   C20   A    
Cu1   O4    S    
C2    O4    A    
C41   H5    S    
N2    N4    A    
C42   H6    S    
C5    C7    A    
C13   C19   A    
C6    C8    A    
S1    O9    D    
C31   C37   A    
C1    C3    S    
C2    C4    S    
C3    C9    A    
C6    C14   A    
C43   C45   A    
S2    O13   D    
O17   H21   S    
C33   C34   A    
S3    O20   D    
C48   C50   A    
C9    C11   A    
C23   O7    A    
C44   C51   S    
C39   C49   A    
C12   C14   A    
Cu1   O8    S    
C9    O28   S    
Cu1   N6    S    
C51   N2    A    
C4    C10   A    
C28   N6    A    
Cu2   O6    S    
S2    O14   S    
N1    N3    A    
Cu2   O3    S    
S1    O11   S    
C21   C25   A    
C27   O16   S    
C23   O5    A    
O24   H24   S    
C51   N3    A    
C20   O26   S    
O28   H28   S    
C38   S2    S    
C52   N4    A    
S4    O24   S    
C35   H3    S    
C1    O3    A    
C36   C38   A    
C24   O8    A    
C28   C30   A    
C29   C31   A    
C10   O27   S    
O27   H27   S    
C7    H12   S    
C30   C32   A    
C11   C13   A    
C25   O18   S    
S2    O12   D    
C40   C50   A    
C40   C42   A    
C17   C19   A    
S4    O23   D    
S3    O21   S    
C18   C20   A    
C48   H10   S    
Cu2   N5    S    
C21   S3    S    
O11   H17   S    
C39   C41   A    
C22   C26   A    
S3    O19   D    
C52   N1    A    
C25   N5    A    
C15   C16   A    
Cu2   O2    S    
