data_mof_unit_33958.cif
_audit_creation_date              2012-10-26T19:52:28-0400
_audit_creation_method            fapswitch 2.2
_symmetry_space_group_name_H-M    P1
_symmetry_Int_Tables_number       1
_space_group_crystal_system       triclinic
_cell_length_a                    9.547679
_cell_length_b                    10.84965
_cell_length_c                    13.469393
_cell_angle_alpha                 90.858796
_cell_angle_beta                  72.627308
_cell_angle_gamma                 90.837709
_cell_volume                      1331.40692577

loop_
_atom_site_label
_atom_site_type_symbol
_atom_type_description
_atom_site_fract_x
_atom_site_fract_y
_atom_site_fract_z
_atom_type_partial_charge
C1    C     C_R   0.499750 0.737525 0.502977 0.554031
C2    C     C_R   0.376897 0.508199 0.814509 -0.009697
C3    C     C_R   0.366732 0.933533 0.527411 0.014905
C4    C     C_R   0.421638 0.496780 0.700170 0.539940
C5    C     C_R   0.496713 0.870289 0.515313 0.014122
C6    C     C_R   0.622113 0.937414 0.518786 -0.146439
C7    C     C_R   0.620931 0.066056 0.518183 -0.150174
C8    C     C_R   0.494625 0.128691 0.513652 0.013961
C9    C     C_R   0.365169 0.060443 0.526839 0.015727
C10   C     C_3   0.255632 0.060060 0.467529 -0.267712
C11   C     C_3   0.257707 0.920599 0.468559 -0.246400
C12   C     C_R   0.452426 0.535449 0.972745 0.055662
C13   C     C_R   0.960852 0.459059 0.414883 0.139995
C14   C     C_R   0.893160 0.552148 0.579565 -0.019715
C15   C     C_R   0.041840 0.551858 0.579698 -0.028513
C16   C     C_R   0.498482 0.262054 0.502239 0.554110
C17   C     C_R   0.108847 0.459683 0.414267 0.222194
C18   C     C_3   0.127877 0.332380 0.368952 0.084306
C19   C     C_3   0.969549 0.333323 0.368602 -0.225525
C20   C     C_R   0.578719 0.500917 0.300177 0.568807
C21   C     C_R   0.798074 0.433989 0.024107 -0.125557
C22   C     C_R   0.625536 0.498007 0.186477 0.005639
C23   C     C_R   0.476350 0.483205 0.871525 0.001130
C24   C     C_R   0.244696 0.567400 0.863834 -0.175572
C25   C     C_R   0.221439 0.620032 0.961707 -0.084135
C26   C     C_R   0.328124 0.613293 0.012999 0.242033
C27   C     C_R   0.555968 0.509147 0.026891 0.060480
C28   C     C_R   0.690854 0.451719 0.973853 0.042872
C29   C     C_R   0.711708 0.402365 0.874864 -0.139337
C30   C     C_R   0.601203 0.409561 0.828222 -0.113419
C31   C     C_R   0.523293 0.524965 0.134577 -0.042351
C32   C     C_R   0.766288 0.459206 0.129992 -0.122762
Cl1   Cl    Cl    0.253216 0.324187 0.241083 -0.624742
Cl2   Cl    Cl    0.311543 0.725448 0.112322 -0.628846
Cu1   Cu    Cu3+1 0.359330 0.500020 0.500010 0.981262
Cu2   Cu    Cu3+1 0.640670 0.499980 0.499990 0.945410
H1    H     H_    0.847721 0.439606 0.168675 0.141601
H2    H     H_    0.954826 0.333890 0.289865 0.169360
H3    H     H_    0.809689 0.350725 0.836230 0.111241
H4    H     H_    0.900058 0.265039 0.422566 0.113697
H5    H     H_    0.903280 0.394291 0.982872 0.123554
H6    H     H_    0.413668 0.546966 0.180829 0.223594
H7    H     H_    0.165633 0.584873 0.822512 0.127242
H8    H     H_    0.125259 0.676320 0.993581 0.163261
H9    H     H_    0.615674 0.356363 0.757470 0.147504
H10   H     H_    0.723015 0.891283 0.516177 0.141255
H11   H     H_    0.721056 0.115438 0.515961 0.128249
H12   H     H_    0.148274 0.097017 0.515181 0.125138
H13   H     H_    0.301400 0.098182 0.388047 0.187813
H14   H     H_    0.152559 0.878841 0.516276 0.142596
H15   H     H_    0.304760 0.878483 0.390012 0.185548
H16   H     H_    0.811179 0.592973 0.644792 0.131784
H17   H     H_    0.070624 0.592141 0.644985 0.117348
H18   H     H_    0.148632 0.266290 0.423780 0.121994
N1    N     N_R   0.852320 0.499070 0.499340 -0.244685
N2    N     N_R   0.148230 0.499110 0.499340 -0.254682
O1    O     O_R   0.381190 0.680360 0.500000 -0.500098
O2    O     O_R   0.618780 0.680320 0.499990 -0.500398
O3    O     O_R   0.323230 0.500000 0.650990 -0.513330
O4    O     O_R   0.560820 0.499960 0.650980 -0.518381
O5    O     O_R   0.381220 0.319680 0.500010 -0.494166
O6    O     O_R   0.618810 0.319640 0.500000 -0.519272
O7    O     O_R   0.439180 0.500040 0.349020 -0.461196
O8    O     O_R   0.676770 0.500000 0.349010 -0.502261

loop_
_geom_bond_atom_site_label_1
_geom_bond_atom_site_label_2
_ccdc_geom_bond_type
C20   O8    A    
C2    C4    S    
C6    C7    A    
C3    C9    A    
C31   H6    S    
C1    O1    A    
C9    C10   S    
C22   C32   A    
C30   H9    S    
Cu1   Cu2   S    
C12   C23   A    
C13   C17   A    
Cu1   O1    S    
C15   N2    A    
C4    O4    A    
C20   O7    A    
C17   C18   S    
C25   C26   A    
C7    C8    A    
C8    C16   S    
C11   H14   S    
Cu2   O8    S    
C1    O2    A    
C2    C24   A    
C17   N2    A    
C29   H3    S    
C29   C30   A    
C16   O6    A    
C1    C5    S    
C15   H17   S    
C25   H8    S    
Cu1   O3    S    
C28   C29   A    
C18   Cl1   S    
C21   C28   A    
C20   C22   S    
C14   N1    A    
Cu2   O2    S    
C10   C11   S    
C10   H12   S    
C5    C6    A    
C21   C32   A    
C21   H5    S    
C19   H4    S    
C11   H15   S    
C16   O5    A    
C13   C19   S    
C12   C27   A    
C27   C31   A    
C23   C30   A    
C3    C5    A    
C2    C23   A    
C19   H2    S    
C3    C11   S    
C24   C25   A    
C4    O3    A    
Cu1   O5    S    
C18   C19   S    
C22   C31   A    
C27   C28   A    
Cu2   N1    S    
C24   H7    S    
C18   H18   S    
C14   C15   A    
Cu1   O7    S    
C6    H10   S    
Cu2   O6    S    
Cu2   O4    S    
Cu1   N2    S    
C32   H1    S    
C10   H13   S    
C26   Cl2   S    
C14   H16   S    
C12   C26   A    
C8    C9    A    
C13   N1    A    
C7    H11   S    
