data_mof_unit_46274.cif
_audit_creation_date              2013-03-05T15:39:56-0500
_audit_creation_method            fapswitch 2.2
_symmetry_space_group_name_H-M    P1
_symmetry_Int_Tables_number       1
_space_group_crystal_system       triclinic
_cell_length_a                    27.849689
_cell_length_b                    18.918007
_cell_length_c                    16.88623
_cell_angle_alpha                 89.992826
_cell_angle_beta                  62.684839
_cell_angle_gamma                 89.993514
_cell_volume                      7904.67148737

loop_
_atom_site_label
_atom_site_type_symbol
_atom_site_description
_atom_site_fract_x
_atom_site_fract_y
_atom_site_fract_z
_atom_type_partial_charge
O1    O     O_R   0.255040 0.869590 0.478480 -0.526683
O2    O     O_R   0.744960 0.130410 0.521520 -0.527059
O3    O     O_R   0.744960 0.869590 0.521520 -0.527146
O4    O     O_R   0.255040 0.130410 0.478480 -0.526598
O5    O     O_R   0.755040 0.369590 0.478480 -0.526877
O6    O     O_R   0.244960 0.630410 0.521520 -0.528610
O7    O     O_R   0.244960 0.369590 0.521520 -0.528556
O8    O     O_R   0.755040 0.630410 0.478480 -0.526888
O9    O     O_R   0.182050 0.796550 0.624440 -0.523404
O10   O     O_R   0.817950 0.203450 0.375560 -0.497617
O11   O     O_R   0.817950 0.796550 0.375560 -0.497568
O12   O     O_R   0.182050 0.203450 0.624440 -0.525581
O13   O     O_R   0.682050 0.296550 0.624440 -0.510304
O14   O     O_R   0.317950 0.703450 0.375560 -0.528950
O15   O     O_R   0.317950 0.296550 0.375560 -0.531140
O16   O     O_R   0.682050 0.703450 0.624440 -0.510088
Cu1   Cu    Cu3+1 0.209920 0.785290 0.495070 1.218940
Cu2   Cu    Cu3+1 0.790080 0.214710 0.504930 1.221167
Cu3   Cu    Cu3+1 0.790080 0.785290 0.504930 1.221454
Cu4   Cu    Cu3+1 0.209920 0.214710 0.495070 1.219621
Cu5   Cu    Cu3+1 0.709920 0.285290 0.495070 1.224276
Cu6   Cu    Cu3+1 0.290080 0.714710 0.504930 1.214775
Cu7   Cu    Cu3+1 0.290080 0.285290 0.504930 1.215670
Cu8   Cu    Cu3+1 0.709920 0.714710 0.495070 1.225010
C1    C     C_R   0.295778 0.730071 0.328990 0.850470
C2    C     C_R   0.704280 0.270076 0.670961 0.848130
C3    C     C_R   0.704280 0.729923 0.670959 0.848239
C4    C     C_R   0.295758 0.269981 0.329016 0.854433
C5    C     C_R   0.795678 0.229852 0.329046 0.863239
C6    C     C_R   0.204273 0.770035 0.670987 0.849186
C7    C     C_R   0.204307 0.229885 0.670956 0.853172
C8    C     C_R   0.795678 0.770149 0.329048 0.863239
O17   O     O_R   0.250530 0.763330 0.367210 -0.505864
O18   O     O_R   0.749470 0.236670 0.632790 -0.546167
O19   O     O_R   0.749470 0.763330 0.632790 -0.546239
O20   O     O_R   0.250530 0.236670 0.367210 -0.500781
O21   O     O_R   0.750530 0.263330 0.367210 -0.521614
O22   O     O_R   0.249470 0.736670 0.632790 -0.514963
O23   O     O_R   0.249470 0.263330 0.632790 -0.509812
O24   O     O_R   0.750530 0.736670 0.367210 -0.521655
O25   O     O_R   0.177260 0.690030 0.513710 -0.544977
O26   O     O_R   0.822740 0.309970 0.486290 -0.542234
O27   O     O_R   0.822740 0.690030 0.486290 -0.542499
O28   O     O_R   0.177260 0.309970 0.513710 -0.546582
O29   O     O_R   0.677260 0.190030 0.513710 -0.549444
O30   O     O_R   0.322740 0.809970 0.486290 -0.547298
O31   O     O_R   0.322740 0.190030 0.486290 -0.548511
O32   O     O_R   0.677260 0.809970 0.513710 -0.549131
C9    C     C_R   0.200612 0.631211 0.512665 0.834611
C10   C     C_R   0.803489 0.368226 0.472625 0.838182
C11   C     C_R   0.803488 0.631776 0.472628 0.838051
C12   C     C_R   0.200608 0.368790 0.512677 0.832742
C13   C     C_R   0.700018 0.131302 0.515178 0.817332
C14   C     C_R   0.299973 0.868697 0.484845 0.820739
C15   C     C_R   0.299973 0.131303 0.484845 0.819263
C16   C     C_R   0.700019 0.868697 0.515175 0.817543
C17   C     C_R   0.069703 0.500014 0.436456 0.038605
C18   C     C_R   0.972001 0.500006 0.422434 0.039484
C19   C     C_R   0.552416 0.000003 0.492159 0.045703
C20   C     C_R   0.447398 0.999992 0.508369 0.045061
C21   C     C_R   0.048333 0.564530 0.424026 0.006642
C22   C     C_R   0.998928 0.435382 0.417424 0.009142
C23   C     C_R   0.998921 0.564635 0.417405 0.008849
C24   C     C_R   0.048342 0.435496 0.424034 0.006074
C25   C     C_R   0.526843 0.064545 0.493385 0.004232
C26   C     C_R   0.472958 0.935451 0.507184 0.004430
C27   C     C_R   0.472936 0.064536 0.507224 0.004258
C28   C     C_R   0.526866 0.935457 0.493343 0.004264
C29   C     C_R   0.138747 0.435577 0.461900 -0.080780
C30   C     C_R   0.892791 0.564716 0.430078 -0.075353
C31   C     C_R   0.892794 0.435284 0.430098 -0.074449
C32   C     C_R   0.138743 0.564451 0.461896 -0.079961
C33   C     C_R   0.630412 0.935663 0.485524 -0.077839
C34   C     C_R   0.369465 0.064334 0.514773 -0.079733
C35   C     C_R   0.369480 0.935642 0.514749 -0.079772
C36   C     C_R   0.630395 0.064355 0.485555 -0.078044
C37   C     C_R   0.176400 0.435265 0.498611 -0.191493
C38   C     C_R   0.836021 0.565099 0.455344 -0.181302
C39   C     C_R   0.836024 0.434901 0.455348 -0.181547
C40   C     C_R   0.176400 0.564747 0.498603 -0.191929
C41   C     C_R   0.674530 0.935287 0.506900 -0.192712
C42   C     C_R   0.325428 0.064712 0.493202 -0.193625
C43   C     C_R   0.325433 0.935278 0.493194 -0.194330
C44   C     C_R   0.674523 0.064721 0.506911 -0.192963
C45   C     C_R   0.190950 0.500003 0.523075 0.241543
C46   C     C_R   0.808047 0.500001 0.473087 0.249046
C47   C     C_R   0.693134 0.000000 0.524175 0.246422
C48   C     C_R   0.306873 0.999999 0.475822 0.245271
C49   C     C_R   0.114683 0.500015 0.456280 -0.060913
C50   C     C_R   0.918725 0.500002 0.429108 -0.066571
C51   C     C_R   0.603996 0.000007 0.489631 -0.060536
C52   C     C_R   0.395856 0.999989 0.510761 -0.061662
C53   C     C_R   0.610998 0.875431 0.458980 0.658371
C54   C     C_R   0.388832 0.124567 0.541399 0.656182
C55   C     C_R   0.388870 0.875397 0.541338 0.652138
C56   C     C_R   0.610954 0.124599 0.459055 0.658182
C57   C     C_R   0.125462 0.375364 0.425888 0.640118
C58   C     C_R   0.925763 0.625801 0.403488 0.642575
C59   C     C_R   0.925772 0.374199 0.403538 0.641214
C60   C     C_R   0.125445 0.624673 0.425888 0.633623
C61   C     C_R   0.558342 0.873913 0.470161 -0.253376
C62   C     C_R   0.441458 0.126080 0.530362 -0.254592
C63   C     C_R   0.441501 0.873893 0.530287 -0.252887
C64   C     C_R   0.558296 0.126104 0.470243 -0.254536
C65   C     C_R   0.079314 0.374213 0.413479 -0.232892
C66   C     C_R   0.976088 0.626540 0.402556 -0.239608
C67   C     C_R   0.976097 0.373469 0.402607 -0.242640
C68   C     C_R   0.079294 0.625819 0.413479 -0.234068
H1    H     H_    0.544240 0.825837 0.452908 0.187261
H2    H     H_    0.455540 0.174158 0.547649 0.187239
H3    H     H_    0.455602 0.825808 0.547543 0.187654
H4    H     H_    0.544175 0.174187 0.453020 0.187228
H5    H     H_    0.070714 0.324983 0.390541 0.186877
H6    H     H_    0.996887 0.676538 0.387268 0.183354
H7    H     H_    0.996898 0.323469 0.387350 0.182813
H8    H     H_    0.070680 0.675052 0.390551 0.187697
C69   C     C_R   0.219315 0.767662 0.956217 -0.084308
C70   C     C_R   0.780160 0.231279 0.044254 -0.089045
C71   C     C_R   0.780168 0.768725 0.044240 -0.089079
C72   C     C_R   0.219683 0.231580 0.955852 -0.084539
C73   C     C_R   0.719213 0.267555 0.956215 -0.087192
C74   C     C_R   0.280851 0.732648 0.043648 -0.082596
C75   C     C_R   0.280604 0.267897 0.043909 -0.083057
C76   C     C_R   0.719208 0.732437 0.956227 -0.087231
C77   C     C_R   0.249432 0.819820 0.972637 -0.282520
C78   C     C_R   0.777091 0.301924 0.021735 -0.247617
C79   C     C_R   0.777092 0.698076 0.021758 -0.246899
C80   C     C_R   0.222297 0.302133 0.979122 -0.244358
C81   C     C_R   0.722278 0.196901 0.978735 -0.243654
C82   C     C_R   0.250733 0.680492 0.027220 -0.286413
C83   C     C_R   0.278023 0.197345 0.020573 -0.243067
C84   C     C_R   0.722279 0.803095 0.978710 -0.242929
H9    H     H_    0.249703 0.873687 0.950600 0.214852
H10   H     H_    0.798174 0.342897 0.038232 0.215917
H11   H     H_    0.798174 0.657102 0.038274 0.216147
H12   H     H_    0.200879 0.343013 0.963183 0.218600
H13   H     H_    0.701196 0.155932 0.962230 0.216389
H14   H     H_    0.250441 0.626628 0.049288 0.213890
H15   H     H_    0.299442 0.156465 0.036507 0.217400
H16   H     H_    0.701198 0.844064 0.962186 0.216627
C85   C     C_R   0.280222 0.802481 0.015857 0.710228
C86   C     C_R   0.746699 0.320105 0.978165 0.676824
C87   C     C_R   0.746695 0.679889 0.978203 0.676523
C88   C     C_R   0.252652 0.320332 0.022756 0.670671
C89   C     C_R   0.752669 0.178719 0.022326 0.680186
C90   C     C_R   0.219966 0.697825 0.983963 0.709339
C91   C     C_R   0.247630 0.179141 0.976999 0.673721
C92   C     C_R   0.752676 0.821282 0.022286 0.679886
C93   C     C_R   0.145917 0.831970 0.942716 -0.296845
C94   C     C_R   0.853951 0.167626 0.057466 -0.228576
C95   C     C_R   0.853954 0.832386 0.057460 -0.227785
C96   C     C_R   0.145982 0.167760 0.942596 -0.237641
C97   C     C_R   0.645628 0.331624 0.942863 -0.230359
C98   C     C_R   0.354051 0.668050 0.057361 -0.299792
C99   C     C_R   0.354055 0.332091 0.057431 -0.239721
C100  C     C_R   0.645627 0.668361 0.942867 -0.229536
H17   H     H_    0.133778 0.852409 0.009167 0.216007
H18   H     H_    0.866228 0.147309 0.990919 0.220017
H19   H     H_    0.866232 0.852708 0.990910 0.220055
H20   H     H_    0.133717 0.147448 0.009147 0.218374
H21   H     H_    0.633294 0.351793 0.009492 0.219385
H22   H     H_    0.366123 0.647519 0.990971 0.216017
H23   H     H_    0.366261 0.352480 0.990932 0.218441
H24   H     H_    0.633292 0.648186 0.009499 0.219424
C101  C     C_R   0.117926 0.851731 0.895126 -0.172392
C102  C     C_R   0.882081 0.148206 0.104913 -0.196014
C103  C     C_R   0.882081 0.851798 0.104912 -0.195756
C104  C     C_R   0.117925 0.148197 0.895082 -0.188933
C105  C     C_R   0.617781 0.351594 0.895158 -0.190498
C106  C     C_R   0.382034 0.648230 0.104936 -0.171917
C107  C     C_R   0.382062 0.351798 0.104969 -0.188694
C108  C     C_R   0.617781 0.648401 0.895159 -0.190263
C109  C     C_R   0.134833 0.825969 0.808710 0.552849
C110  C     C_R   0.865220 0.174099 0.191261 0.561737
C111  C     C_R   0.865220 0.825896 0.191259 0.563349
C112  C     C_R   0.134834 0.173988 0.808678 0.546960
C113  C     C_R   0.634794 0.326029 0.808631 0.562702
C114  C     C_R   0.365142 0.673986 0.191346 0.548276
C115  C     C_R   0.365150 0.326055 0.191389 0.542307
C116  C     C_R   0.634793 0.673976 0.808633 0.564413
C117  C     C_R   0.181019 0.783479 0.767841 -0.295917
C118  C     C_R   0.818822 0.216191 0.232290 -0.283472
C119  C     C_R   0.818824 0.783809 0.232290 -0.283430
C120  C     C_R   0.181128 0.216267 0.767733 -0.282163
C121  C     C_R   0.680973 0.283526 0.767794 -0.283273
C122  C     C_R   0.319091 0.716728 0.232106 -0.295433
C123  C     C_R   0.319030 0.283449 0.232190 -0.281243
C124  C     C_R   0.680971 0.716473 0.767795 -0.283243
C125  C     C_R   0.207354 0.760414 0.818190 0.295465
C126  C     C_R   0.792165 0.238638 0.182225 0.254925
C127  C     C_R   0.792170 0.761368 0.182222 0.255021
C128  C     C_R   0.207647 0.238955 0.817907 0.257771
C129  C     C_R   0.707268 0.260433 0.818150 0.247626
C130  C     C_R   0.292915 0.740112 0.181636 0.300523
C131  C     C_R   0.292733 0.260321 0.181840 0.262830
C132  C     C_R   0.707264 0.739558 0.818151 0.247702
C133  C     C_R   0.189910 0.785975 0.905311 0.055353
C134  C     C_R   0.809598 0.213019 0.095148 0.043735
C135  C     C_R   0.809604 0.786989 0.095138 0.043872
C136  C     C_R   0.190251 0.213295 0.904966 0.044214
C137  C     C_R   0.689807 0.285924 0.905298 0.046950
C138  C     C_R   0.310210 0.714309 0.094629 0.052777
C139  C     C_R   0.309973 0.286227 0.094895 0.041608
C140  C     C_R   0.689803 0.714063 0.905306 0.047101
O33   O     O_R   0.051640 0.926880 0.885090 -0.508970
O34   O     O_R   0.948360 0.073120 0.114910 -0.506985
O35   O     O_R   0.948360 0.926880 0.114910 -0.506160
O36   O     O_R   0.051640 0.073120 0.885090 -0.508080
O37   O     O_R   0.551640 0.426880 0.885090 -0.503709
O38   O     O_R   0.448360 0.573120 0.114910 -0.509509
O39   O     O_R   0.448360 0.426880 0.114910 -0.508586
O40   O     O_R   0.551640 0.573120 0.885090 -0.502843
Cu9   Cu    Cu3+1 0.495240 0.500000 0.924150 1.125725
Cu10  Cu    Cu3+1 0.504760 0.500000 0.075850 1.122304
Cu11  Cu    Cu3+1 0.995240 1.000000 0.924150 1.125417
Cu12  Cu    Cu3+1 0.004760 0.000000 0.075850 1.126268
C141  C     C_R   0.926411 0.903268 0.066656 0.842722
C142  C     C_R   0.073604 0.096711 0.933333 0.834517
C143  C     C_R   0.073634 0.903307 0.933322 0.836252
C144  C     C_R   0.926411 0.096734 0.066653 0.840353
C145  C     C_R   0.426365 0.403323 0.066699 0.832375
C146  C     C_R   0.573573 0.596753 0.933353 0.845786
C147  C     C_R   0.573573 0.403245 0.933356 0.843372
C148  C     C_R   0.426332 0.596652 0.066712 0.834232
O41   O     O_R   0.940620 0.926560 0.986760 -0.595972
O42   O     O_R   0.059380 0.073440 0.013240 -0.599185
O43   O     O_R   0.059380 0.926560 0.013240 -0.598084
O44   O     O_R   0.940620 0.073440 0.986760 -0.596196
O45   O     O_R   0.440620 0.426560 0.986760 -0.601016
O46   O     O_R   0.559380 0.573440 0.013240 -0.596819
O47   O     O_R   0.559380 0.426560 0.013240 -0.597051
O48   O     O_R   0.440620 0.573440 0.986760 -0.599869
N1    N     N_R   0.218387 0.499996 0.577324 0.145346
O49   O     O_R   0.270972 0.499985 0.540791 -0.268165
O50   O     O_R   0.190484 0.500099 0.663705 -0.290823
N2    N     N_R   0.749962 0.500001 0.516835 0.141685
O51   O     O_R   0.723451 0.500007 0.470247 -0.262024
O52   O     O_R   0.723654 0.499994 0.603448 -0.328154
N3    N     N_R   0.729373 0.999993 0.563222 0.151587
O53   O     O_R   0.781480 0.999993 0.512778 -0.275829
O54   O     O_R   0.710083 0.999993 0.649473 -0.287984
N4    N     N_R   0.270770 0.000006 0.436514 0.151508
O55   O     O_R   0.290207 0.000004 0.350237 -0.279864
O56   O     O_R   0.218640 0.000006 0.486741 -0.277184
F1    F     F_    0.644262 0.822975 0.408788 -0.608203
F2    F     F_    0.355543 0.177043 0.591489 -0.609362
F3    F     F_    0.355600 0.822900 0.591421 -0.613993
F4    F     F_    0.644195 0.177081 0.408883 -0.608120
F5    F     F_    0.160234 0.320825 0.389533 -0.618996
F6    F     F_    0.913140 0.683061 0.368390 -0.623591
F7    F     F_    0.913158 0.316930 0.368465 -0.625258
F8    F     F_    0.160204 0.679227 0.389537 -0.624275
F9    F     F_    0.190621 0.646745 0.969582 -0.595179
F10   F     F_    0.754319 0.110204 0.044870 -0.598525
F11   F     F_    0.754329 0.889801 0.044792 -0.598543
F12   F     F_    0.246404 0.110729 0.953732 -0.623858
F13   F     F_    0.745055 0.388629 0.955644 -0.599926
F14   F     F_    0.309572 0.853561 0.030225 -0.596494
F15   F     F_    0.253816 0.388735 0.046110 -0.625981
F16   F     F_    0.745047 0.611361 0.955720 -0.599948
F17   F     F_    0.107084 0.843969 0.763205 -0.607805
F18   F     F_    0.893241 0.156654 0.236505 -0.589769
F19   F     F_    0.893241 0.843329 0.236501 -0.588649
F20   F     F_    0.106960 0.156259 0.763294 -0.608314
F21   F     F_    0.607162 0.344239 0.763002 -0.602411
F22   F     F_    0.392792 0.655775 0.236942 -0.610495
F23   F     F_    0.392869 0.344107 0.236919 -0.610965
F24   F     F_    0.607161 0.655781 0.763007 -0.601175
N5    N     N_R   0.252042 0.712083 0.781407 0.166579
O57   O     O_R   0.244368 0.647189 0.764285 -0.233550
O58   O     O_R   0.299363 0.731141 0.771541 -0.298679
N6    N     N_R   0.747030 0.286230 0.219372 0.153554
O59   O     O_R   0.699700 0.265984 0.230444 -0.277201
O60   O     O_R   0.754343 0.351687 0.234926 -0.306476
N7    N     N_R   0.747038 0.713779 0.219375 0.153529
O61   O     O_R   0.754355 0.648320 0.234939 -0.306160
O62   O     O_R   0.699707 0.734029 0.230441 -0.277133
N8    N     N_R   0.252564 0.286893 0.780920 0.152019
O63   O     O_R   0.299957 0.267078 0.769995 -0.280328
O64   O     O_R   0.244999 0.352208 0.765173 -0.279659
N9    N     N_R   0.752101 0.212367 0.781175 0.142092
O65   O     O_R   0.744461 0.147129 0.765272 -0.283631
O66   O     O_R   0.799586 0.232129 0.769836 -0.320788
N10   N     N_R   0.248735 0.789273 0.218045 0.172787
O67   O     O_R   0.201531 0.771742 0.226071 -0.303070
O68   O     O_R   0.256960 0.853669 0.236065 -0.237844
N11   N     N_R   0.248419 0.211393 0.218387 0.156907
O69   O     O_R   0.256649 0.146658 0.235253 -0.283150
O70   O     O_R   0.201118 0.229447 0.227255 -0.286090
N12   N     N_R   0.752096 0.787618 0.781170 0.142058
O71   O     O_R   0.799582 0.767848 0.769833 -0.320730
O72   O     O_R   0.744454 0.852860 0.765259 -0.283255

loop_
_geom_bond_atom_site_label_1
_geom_bond_atom_site_label_2
_geom_bond_distance
_ccdc_geom_bond_type
C82   C90   1.396275 A    
Cu2   Cu5   2.671091 S    
C33   C53   1.419273 A    
C10   C39   1.501566 S    
C35   C55   1.419299 A    
C16   C41   1.483637 S    
C93   C133  1.395292 A    
C106  C114  1.399270 A    
C45   N1    1.437162 S    
C125  N5    1.435674 S    
N10   O67   1.301205 A    
C2    C121  1.478414 S    
C29   C49   1.415044 A    
C131  C139  1.406839 A    
Cu6   O22   1.967830 S    
C129  C137  1.406419 A    
C96   C136  1.395330 A    
Cu11  O44   1.971249 S    
C34   C52   1.407363 A    
C21   C23   1.430864 A    
C22   C24   1.430829 A    
Cu4   O28   1.977642 S    
N3    O53   1.302681 A    
N6    O59   1.301180 A    
N4    O56   1.302673 A    
C85   F14   1.357575 S    
N11   O70   1.301236 A    
O3    Cu3   1.969111 S    
C132  C140  1.406438 A    
C81   C89   1.395771 A    
C57   C65   1.394017 A    
C43   C48   1.411120 A    
Cu10  O47   1.971252 S    
C73   C86   1.404405 A    
C33   C41   1.430726 A    
C14   C43   1.483642 S    
C97   C137  1.395435 A    
O35   C141  1.301691 A    
O38   C148  1.301939 A    
Cu7   O31   1.977642 S    
C28   C61   1.400774 A    
C59   F7    1.356162 S    
C4    C123  1.478394 S    
C53   C61   1.390269 A    
C57   F5    1.354071 S    
C3    O19   1.286212 A    
C71   C92   1.404433 A    
C31   C59   1.414890 A    
Cu12  O42   1.971307 S    
C97   H21   1.083912 S    
C69   C90   1.404641 A    
Cu11  Cu12  2.693627 S    
C113  F21   1.359619 S    
C110  F18   1.359647 S    
O12   Cu4   1.965686 S    
O13   Cu5   1.965726 S    
C79   C87   1.395532 A    
C80   C88   1.395665 A    
C53   F1    1.356744 S    
C106  C148  1.469613 S    
C56   C64   1.390281 A    
C89   F10   1.357574 S    
C12   C37   1.496370 S    
C82   H14   1.083687 S    
C98   H22   1.083920 S    
Cu9   O45   1.971306 S    
C111  C119  1.400720 A    
C125  C133  1.406529 A    
C112  C120  1.400703 A    
C129  N9    1.435285 S    
C26   C63   1.400837 A    
C126  N6    1.435403 S    
O2    C13   1.304360 A    
C17   C21   1.415025 A    
C132  N12   1.435281 S    
C58   C66   1.394471 A    
C9    C40   1.496396 S    
C75   C139  1.475428 S    
C11   C38   1.501457 S    
C73   C137  1.475402 S    
Cu3   O19   1.967770 S    
C36   C56   1.419287 A    
C74   C138  1.475080 S    
O10   Cu2   1.965726 S    
C95   C103  1.402403 A    
O35   Cu12  1.965994 S    
C128  C136  1.406327 A    
O4    Cu4   1.969114 S    
C81   H13   1.083256 S    
O40   Cu9   1.965994 S    
C54   C62   1.390296 A    
C118  C126  1.421982 A    
C61   H1    1.082349 S    
C142  O42   1.296441 A    
O6    Cu6   1.969285 S    
C29   C37   1.442385 A    
C105  C113  1.399305 A    
O27   C11   1.291863 A    
C110  C118  1.400736 A    
C31   C39   1.436266 A    
O40   C146  1.301625 A    
C6    O22   1.285934 A    
C13   C44   1.483710 S    
C65   H5    1.077054 S    
O7    C12   1.310544 A    
Cu2   O26   1.977758 S    
C145  O45   1.296557 A    
C94   C102  1.402325 A    
C115  F23   1.359612 S    
N2    O51   1.302719 A    
C76   C84   1.402925 A    
C111  F19   1.359645 S    
C112  F20   1.359618 S    
C20   C27   1.408804 A    
C77   C85   1.396332 A    
C83   C91   1.395772 A    
N1    O49   1.302366 A    
O28   C12   1.284950 A    
O16   C3    1.302952 A    
C37   C45   1.410188 A    
C130  N10   1.436119 S    
C107  C115  1.399166 A    
C99   C139  1.395552 A    
C127  N7    1.435402 S    
C116  F24   1.359618 S    
C55   C63   1.390342 A    
Cu5   O29   1.977758 S    
C20   C52   1.417352 A    
C60   C68   1.394094 A    
C47   N3    1.436680 S    
C5    C118  1.478253 S    
Cu8   O32   1.977642 S    
C93   C101  1.402861 A    
C64   H4    1.082350 S    
C99   H23   1.083913 S    
C100  C108  1.402322 A    
C46   N2    1.437267 S    
C95   H19   1.083900 S    
C114  C122  1.400753 A    
Cu2   O18   1.967830 S    
Cu4   Cu7   2.671364 S    
O5    Cu5   1.969287 S    
N3    O54   1.300688 A    
O33   Cu11  1.965861 S    
O9    C6    1.303370 A    
O26   C10   1.291749 A    
O11   C8    1.303192 A    
O36   Cu11  1.965994 S    
O12   C7    1.303190 A    
O13   C2    1.302858 A    
C5    O21   1.285946 A    
C70   C134  1.475316 S    
C103  C111  1.399320 A    
C104  C112  1.399242 A    
O33   C143  1.301956 A    
C122  C130  1.422502 A    
C70   C89   1.404420 A    
C107  C145  1.469162 S    
C114  F22   1.359603 S    
N9    O66   1.301171 A    
O1    Cu1   1.969287 S    
O14   Cu6   1.965726 S    
N10   O68   1.301267 A    
C32   C40   1.442470 A    
C19   C25   1.408820 A    
C31   C50   1.417712 A    
C42   C48   1.411141 A    
O8    Cu8   1.969114 S    
C56   F4    1.356734 S    
C83   H15   1.083268 S    
C101  C143  1.469450 S    
C36   C51   1.407441 A    
C109  C117  1.400749 A    
O39   Cu10  1.965994 S    
C146  O46   1.296545 A    
N6    O60   1.301195 A    
N8    O63   1.301181 A    
C131  N11   1.435901 S    
C74   C85   1.404725 A    
C69   C77   1.402755 A    
C103  C141  1.468939 S    
C141  O41   1.296481 A    
C71   C79   1.402772 A    
C18   C22   1.416244 A    
C7    C120  1.478319 S    
C34   C54   1.419267 A    
C8    C119  1.478250 S    
N7    O61   1.301196 A    
C36   C44   1.430804 A    
Cu9   Cu10  2.693627 S    
O11   Cu3   1.965686 S    
C17   C49   1.437408 A    
C71   C135  1.475445 S    
C98   C106  1.402776 A    
C79   H11   1.083267 S    
C80   H12   1.083276 S    
C48   N4    1.436696 S    
C115  C123  1.400715 A    
O34   Cu12  1.965858 S    
C130  C138  1.406962 A    
C113  C121  1.400723 A    
C144  O44   1.296534 A    
C63   H3    1.082349 S    
N12   O71   1.301174 A    
O25   C9    1.284812 A    
C88   F15   1.357580 S    
C124  C132  1.421836 A    
C116  C124  1.400707 A    
C96   C104  1.402422 A    
C117  C125  1.422400 A    
C147  O47   1.296599 A    
C25   C27   1.409429 A    
C75   C88   1.404470 A    
C120  C128  1.421978 A    
C76   C87   1.404417 A    
C108  C116  1.399257 A    
C20   C26   1.408771 A    
N5    O57   1.301266 A    
Cu1   O17   1.967828 S    
C34   C42   1.430679 A    
C98   C138  1.395467 A    
Cu3   O27   1.977642 S    
O36   C142  1.301727 A    
C102  C110  1.399367 A    
C58   F6    1.356172 S    
C22   C67   1.408885 A    
O34   C144  1.301622 A    
C78   C86   1.395481 A    
Cu11  O41   1.971306 S    
C86   F13   1.357588 S    
C40   C45   1.410183 A    
N11   O69   1.301234 A    
O30   C14   1.284900 A    
N4    O55   1.300684 A    
C23   C66   1.408861 A    
C54   F2    1.356756 S    
C41   C47   1.411120 A    
Cu6   O30   1.977758 S    
C76   C140  1.475532 S    
O4    C15   1.304295 A    
O37   C147  1.301554 A    
C6    C117  1.478823 S    
O5    C10   1.307133 A    
C62   H2    1.082350 S    
Cu10  O46   1.971307 S    
C102  C144  1.468898 S    
C126  C134  1.406290 A    
C94   H18   1.083905 S    
C75   C83   1.402861 A    
C73   C81   1.402896 A    
C72   C80   1.402723 A    
C84   H16   1.083253 S    
C59   C67   1.394478 A    
Cu1   Cu6   2.671091 S    
C68   H8    1.077055 S    
Cu3   Cu8   2.671364 S    
O10   C5    1.303098 A    
C35   C43   1.430758 A    
O15   C4    1.303197 A    
C72   C136  1.475259 S    
N2    O52   1.300941 A    
C3    C124  1.478413 S    
O14   C1    1.303385 A    
O37   Cu9   1.965861 S    
C1    C122  1.478852 S    
Cu4   O20   1.967768 S    
Cu5   O21   1.967828 S    
C4    O20   1.286140 A    
C72   C91   1.404387 A    
C97   C105  1.402242 A    
C143  O43   1.296436 A    
C93   H17   1.083917 S    
C94   C134  1.395229 A    
C39   C46   1.413931 A    
C128  N8    1.435420 S    
O39   C145  1.301696 A    
C26   C28   1.409444 A    
C96   H20   1.083910 S    
C30   C38   1.436186 A    
C44   C47   1.411087 A    
C24   C65   1.406647 A    
C66   H6    1.076865 S    
N7    O62   1.301180 A    
C127  C135  1.406313 A    
C148  O48   1.296519 A    
O7    Cu7   1.969111 S    
C101  C109  1.399341 A    
C91   F12   1.357556 S    
C21   C68   1.406700 A    
C2    O18   1.286148 A    
C109  F17   1.359605 S    
C55   F3    1.356800 S    
C38   C46   1.413968 A    
O15   Cu7   1.965686 S    
O16   Cu8   1.965686 S    
C30   C50   1.417643 A    
C78   H10   1.083268 S    
Cu12  O43   1.971252 S    
C84   C92   1.395821 A    
C95   C135  1.395280 A    
C108  C146  1.468961 S    
C33   C51   1.407387 A    
C19   C51   1.417422 A    
N9    O65   1.301214 A    
O38   Cu10  1.965858 S    
O1    C14   1.304290 A    
C19   C28   1.408863 A    
C18   C50   1.435494 A    
O3    C16   1.304357 A    
C15   C42   1.483597 S    
N1    O50   1.300478 A    
O8    C11   1.307124 A    
C67   H7    1.076863 S    
Cu9   O48   1.971249 S    
C35   C52   1.407401 A    
O9    Cu1   1.965726 S    
N8    O64   1.301212 A    
C100  C140  1.395485 A    
C69   C133  1.474969 S    
C17   C24   1.415067 A    
O31   C15   1.285037 A    
C32   C60   1.418174 A    
C77   H9    1.083672 S    
C18   C23   1.416302 A    
O32   C16   1.285002 A    
C123  C131  1.422088 A    
C87   F16   1.357587 S    
C121  C129  1.421803 A    
O2    Cu2   1.969285 S    
C60   F8    1.354162 S    
C119  C127  1.422014 A    
N5    O58   1.301177 A    
C90   F9    1.357580 S    
C32   C49   1.415084 A    
C105  C147  1.468922 S    
Cu7   O23   1.967770 S    
Cu8   O24   1.967768 S    
C7    O23   1.286004 A    
N12   O72   1.301214 A    
C8    O24   1.286011 A    
O6    C9    1.310538 A    
Cu1   O25   1.977758 S    
O29   C13   1.284871 A    
C99   C107  1.402308 A    
C100  H24   1.083908 S    
C92   F11   1.357572 S    
C1    O17   1.286030 A    
C70   C78   1.402744 A    
C25   C64   1.400787 A    
C104  C142  1.468958 S    
C74   C82   1.402807 A    
C30   C58   1.414897 A    
C27   C62   1.400809 A    
C29   C57   1.418109 A    
