data_mof_unit_53648.cif
_audit_creation_date              2012-12-10T19:42:52-0500
_audit_creation_method            fapswitch 2.2
_symmetry_space_group_name_H-M    P1
_symmetry_Int_Tables_number       1
_space_group_crystal_system       triclinic
_cell_length_a                    10.982402
_cell_length_b                    12.970883
_cell_length_c                    11.682241
_cell_angle_alpha                 100.31339
_cell_angle_beta                  95.045808
_cell_angle_gamma                 90.549405
_cell_volume                      1630.37490524

loop_
_atom_site_label
_atom_site_type_symbol
_atom_type_description
_atom_site_fract_x
_atom_site_fract_y
_atom_site_fract_z
_atom_type_partial_charge
C1    C     C_R   0.503737 0.299190 0.478304 0.820107
C2    C     C_R   0.498521 0.700959 0.521871 0.825629
C3    C     C_R   0.871058 0.483062 0.500714 -0.147348
C4    C     C_R   0.127372 0.493918 0.498824 -0.154839
C5    C     C_R   0.946290 0.499877 0.607637 -0.069851
C6    C     C_R   0.051913 0.468568 0.391947 -0.070471
C7    C     C_R   0.491619 0.814518 0.534793 -0.078226
C8    C     C_R   0.514036 0.185910 0.466374 -0.114863
C9    C     C_R   0.588931 0.018570 0.375964 -0.218608
C10   C     C_R   0.424422 0.983095 0.630913 -0.268524
C11   C     C_R   0.582076 0.127233 0.380792 0.242272
C12   C     C_R   0.432462 0.874885 0.625795 0.242632
C13   C     C_R   0.462326 0.137530 0.549195 -0.302963
C14   C     C_R   0.542915 0.862836 0.451981 -0.312378
C15   C     C_R   0.473817 0.030654 0.546385 0.138209
C16   C     C_R   0.535158 0.970471 0.457565 0.120002
C17   C     C_R   0.456858 0.364413 0.019965 0.164003
C18   C     C_R   0.547606 0.632400 0.980159 0.155963
C19   C     C_R   0.448593 0.384518 0.142637 0.079758
C20   C     C_R   0.552647 0.614800 0.858083 0.060001
C21   C     C_R   0.509402 0.561877 0.157859 0.022902
C22   C     C_R   0.489447 0.437903 0.841475 0.024913
C23   C     C_R   0.261773 0.499030 0.499308 0.788933
C24   C     C_R   0.737481 0.493385 0.500105 0.805388
C25   C     C_R   0.515483 0.548576 0.035053 -0.010408
C26   C     C_R   0.488063 0.449055 0.965093 -0.072202
C27   C     C_R   0.153378 0.523871 0.106939 -0.130286
C28   C     C_R   0.819476 0.414177 0.868253 -0.129687
C29   C     C_R   0.123822 0.539097 0.222702 -0.120583
C30   C     C_R   0.854732 0.411845 0.755688 -0.112101
C31   C     C_R   0.100998 0.452471 0.275420 0.163557
C32   C     C_R   0.896176 0.504249 0.722865 0.159592
C33   C     C_R   0.107880 0.350692 0.210885 -0.149487
C34   C     C_R   0.901727 0.598642 0.803829 -0.134820
C35   C     C_R   0.134536 0.335987 0.094401 -0.164786
C36   C     C_R   0.870239 0.599788 0.917107 -0.158929
C37   C     C_R   0.157495 0.422378 0.042546 -0.073316
C38   C     C_R   0.828275 0.507979 0.949121 -0.086430
C39   C     C_R   0.924950 0.459673 0.393712 -0.068010
C40   C     C_R   0.073261 0.507981 0.606626 -0.070926
Cu1   Cu    Cu3+1 0.509250 0.507730 0.615930 0.965445
Cu2   Cu    Cu3+1 0.490750 0.492270 0.384070 0.951986
H1    H     H_    0.178366 0.410368 0.952450 0.159822
H2    H     H_    0.802787 0.509780 0.036609 0.152520
H3    H     H_    0.459274 0.365364 0.785310 0.136868
H4    H     H_    0.532879 0.636928 0.212311 0.172913
H5    H     H_    0.577900 0.679627 0.817866 0.139219
H6    H     H_    0.422036 0.322182 0.185381 0.139436
H7    H     H_    0.170823 0.590725 0.066508 0.147358
H8    H     H_    0.787090 0.343093 0.893354 0.134685
H9    H     H_    0.116460 0.618048 0.270627 0.114198
H10   H     H_    0.851109 0.338252 0.694551 0.116854
H11   H     H_    0.087581 0.283223 0.249415 0.118962
H12   H     H_    0.935249 0.670177 0.780413 0.114846
H13   H     H_    0.135550 0.257640 0.043725 0.134660
H14   H     H_    0.880386 0.671638 0.980393 0.129303
H15   H     H_    0.589698 0.816316 0.383346 0.152547
H16   H     H_    0.413098 0.183533 0.616429 0.154248
H17   H     H_    0.637146 0.971137 0.309731 0.142167
H18   H     H_    0.377580 0.029497 0.699598 0.138266
N1    N     N_R   0.523180 0.519350 0.790130 -0.187145
N2    N     N_R   0.476820 0.480650 0.209870 -0.206236
O1    O     O_R   0.506570 0.354460 0.582000 -0.599530
O2    O     O_R   0.493430 0.645540 0.418000 -0.603085
O3    O     O_R   0.490940 0.341410 0.386200 -0.605055
O4    O     O_R   0.509060 0.658590 0.613800 -0.567716
O5    O     O_R   0.327460 0.506540 0.597900 -0.562848
O6    O     O_R   0.672540 0.493460 0.402100 -0.569862
O7    O     O_R   0.311830 0.493480 0.402100 -0.571458
O8    O     O_R   0.688170 0.506520 0.597900 -0.576242
N3    N     N_2   0.436522 0.260925 0.951555 -0.441523
H19   H     H_    0.494369 0.242082 0.886516 0.246007
C41   C     C_3   0.412931 0.172438 0.007157 -0.740312
H20   H     H_    0.393099 0.101288 0.939123 0.224673
H21   H     H_    0.331956 0.185551 0.057645 0.227988
H22   H     H_    0.494510 0.157710 0.064332 0.228745
N4    N     N_2   0.566835 0.735995 0.045215 -0.442415
H23   H     H_    0.538824 0.794709 0.000584 0.249794
C42   C     C_3   0.685242 0.758303 0.110394 -0.753980
H24   H     H_    0.746421 0.797605 0.059753 0.219723
H25   H     H_    0.728386 0.686147 0.131918 0.230081
H26   H     H_    0.673997 0.811927 0.193512 0.225795
C43   C     C_1   0.851382 0.422368 0.283812 0.284566
N5    N     N_1   0.792997 0.392344 0.196574 -0.320167
C44   C     C_1   0.145794 0.531494 0.719281 0.269152
N6    N     N_1   0.202925 0.550588 0.808927 -0.315935
N7    N     N_2   0.377508 0.827319 0.709898 -0.422043
H27   H     H_    0.383878 0.873285 0.792099 0.236464
C45   C     C_3   0.254008 0.787995 0.672836 -0.657922
H28   H     H_    0.218783 0.750309 0.741823 0.232259
H29   H     H_    0.251862 0.728867 0.591148 0.220457
H30   H     H_    0.193347 0.853380 0.658078 0.208172
N8    N     N_2   0.646612 0.178832 0.304883 -0.418836
H31   H     H_    0.592099 0.216014 0.249633 0.266462
C46   C     C_3   0.750913 0.128989 0.252632 -0.713699
H32   H     H_    0.802311 0.186464 0.214428 0.245840
H33   H     H_    0.720075 0.062832 0.181317 0.216005
H34   H     H_    0.813668 0.100977 0.319808 0.233709

loop_
_geom_bond_atom_site_label_1
_geom_bond_atom_site_label_2
_ccdc_geom_bond_type
N7    H27   S    
N8    H31   S    
C27   C29   A    
C1    C8    S    
C41   H20   S    
C23   O7    A    
C46   H32   S    
Cu1   N1    S    
C46   H34   S    
C24   O8    A    
Cu1   O5    S    
C44   N6    T    
C8    C13   A    
C17   C26   A    
C35   C37   A    
C9    C16   A    
C10   C15   A    
C8    C11   A    
C19   N2    A    
C15   C16   A    
Cu1   Cu2   S    
C23   O5    A    
C20   N1    A    
C21   C25   A    
C2    C7    S    
C17   C19   A    
C28   H8    S    
C7    C14   A    
C4    C40   A    
Cu2   O3    S    
C1    O3    A    
C31   C33   A    
C45   H29   S    
Cu2   N2    S    
C18   C20   A    
C5    C32   S    
C11   N8    S    
C6    C31   S    
C3    C39   A    
N8    C46   S    
Cu2   O6    S    
C41   H21   S    
C3    C24   S    
C18   C25   A    
C1    O1    A    
C2    O2    A    
N4    C42   S    
C33   H11   S    
C7    C12   A    
C35   H13   S    
C4    C6    A    
N3    C41   S    
C4    C23   S    
C19   H6    S    
C13   H16   S    
C2    O4    A    
C25   C26   A    
N4    H23   S    
Cu2   O7    S    
C9    H17   S    
C32   C34   A    
C40   C44   S    
C37   H1    S    
C10   H18   S    
C38   H2    S    
C36   H14   S    
C43   N5    T    
C28   C38   A    
C45   H30   S    
C9    C11   A    
C21   N2    A    
C10   C12   A    
C17   N3    S    
C13   C15   A    
C41   H22   S    
C14   C16   A    
Cu1   O1    S    
Cu2   O2    S    
C42   H25   S    
C21   H4    S    
C29   H9    S    
C14   H15   S    
C30   H10   S    
C12   N7    S    
C3    C5    A    
C42   H26   S    
C46   H33   S    
C34   H12   S    
Cu1   O4    S    
C36   C38   A    
C39   C43   S    
N3    H19   S    
C29   C31   A    
C22   N1    A    
C30   C32   A    
C27   C37   A    
C18   N4    S    
C28   C30   A    
C33   C35   A    
C34   C36   A    
C20   H5    S    
C24   O6    A    
C42   H24   S    
C22   H3    S    
C22   C26   A    
C5    C40   A    
N7    C45   S    
C6    C39   A    
C45   H28   S    
C27   H7    S    
Cu1   O8    S    
