data_mof_unit_32147.cif
_audit_creation_date              2012-12-10T18:12:34-0500
_audit_creation_method            fapswitch 2.2
_symmetry_space_group_name_H-M    P1
_symmetry_Int_Tables_number       1
_space_group_crystal_system       triclinic
_cell_length_a                    12.765713
_cell_length_b                    13.115525
_cell_length_c                    15.708493
_cell_angle_alpha                 93.657299
_cell_angle_beta                  103.472205
_cell_angle_gamma                 81.17874
_cell_volume                      2526.35529068

loop_
_atom_site_label
_atom_site_type_symbol
_atom_type_description
_atom_site_fract_x
_atom_site_fract_y
_atom_site_fract_z
_atom_type_partial_charge
C1    C     C_R   0.439007 0.690273 0.482706 0.870725
C2    C     C_3   0.504307 0.506622 0.917681 0.144921
C3    C     C_3   0.533518 0.411448 0.029403 0.024157
C4    C     C_3   0.495002 0.505559 0.082964 0.116854
C5    C     C_3   0.603826 0.475919 0.992819 -0.231865
C6    C     C_3   0.563754 0.570977 0.046540 -0.049694
C7    C     C_1   0.507330 0.504800 0.827218 0.039681
C8    C     C_1   0.491996 0.502700 0.173232 0.127167
C9    C     C_R   0.732963 0.041538 0.519528 -0.090127
C10   C     C_R   0.598409 0.196780 0.510085 -0.102224
C11   C     C_R   0.293546 0.840393 0.462075 -0.216946
C12   C     C_R   0.502101 0.500765 0.661787 0.912176
C13   C     C_R   0.264622 0.946252 0.471453 0.002295
C14   C     C_R   0.344979 0.011597 0.484375 -0.056446
C15   C     C_R   0.450972 0.971651 0.469733 0.035973
C16   C     C_R   0.475145 0.864894 0.452556 0.070721
C17   C     C_R   0.537287 0.031071 0.478218 0.092530
C18   C     C_R   0.646173 0.983644 0.485387 0.089993
C19   C     C_R   0.663193 0.880905 0.456022 -0.224708
C20   C     C_R   0.576156 0.825732 0.432128 -0.136309
C21   C     C_R   0.517475 0.136539 0.474885 -0.256781
C22   C     C_R   0.707743 0.148805 0.538402 -0.042938
C23   C     C_R   0.561427 0.308385 0.510614 0.911512
C24   C     C_R   0.400893 0.799060 0.461474 -0.135230
C25   C     C_R   0.086071 0.362185 0.360261 -0.084713
C26   C     C_R   0.807087 0.615018 0.617002 0.120382
C27   C     C_R   0.916052 0.621392 0.651983 -0.249827
C28   C     C_R   0.993225 0.572949 0.608316 -0.097795
C29   C     C_R   0.962068 0.526718 0.524357 0.035162
C30   C     C_R   0.851754 0.509682 0.495834 0.104167
C31   C     C_R   0.039127 0.486926 0.472961 0.004522
C32   C     C_R   0.006314 0.426944 0.395989 -0.031253
C33   C     C_R   0.895067 0.431659 0.359503 -0.122551
C34   C     C_R   0.497744 0.499768 0.338242 0.866157
C35   C     C_R   0.823728 0.450554 0.415838 -0.005550
C36   C     C_R   0.147755 0.506912 0.492214 0.066988
C37   C     C_R   0.194804 0.370842 0.394076 0.004848
C38   C     C_3   0.397101 0.535947 0.007090 -0.067182
C39   C     C_3   0.465609 0.601675 0.970288 -0.096963
C40   C     C_1   0.506495 0.502951 0.751622 -0.130771
C41   C     C_1   0.492762 0.500751 0.248557 -0.074511
C42   C     C_3   0.434704 0.440353 0.952901 -0.280329
H1    H     H_    0.437494 0.171834 0.441805 0.171575
H2    H     H_    0.233785 0.790018 0.461313 0.217998
H3    H     H_    0.590839 0.749644 0.402575 0.189379
H4    H     H_    0.257932 0.323242 0.368016 0.136876
H5    H     H_    0.077100 0.571717 0.642342 0.139395
H6    H     H_    0.941589 0.662357 0.713713 0.163508
H7    H     H_    0.688618 0.450997 0.985802 0.162256
H8    H     H_    0.382214 0.386327 0.913289 0.162682
H9    H     H_    0.742153 0.842580 0.449398 0.150080
N1    N     N_R   0.222180 0.444680 0.455580 -0.145801
N2    N     N_R   0.776980 0.554790 0.543960 -0.143251
O1    O     O_R   0.366730 0.627160 0.478790 -0.629085
O2    O     O_R   0.544830 0.662520 0.507160 -0.624311
O3    O     O_R   0.410960 0.482330 0.609040 -0.642607
O4    O     O_R   0.589060 0.517690 0.637410 -0.591974
O5    O     O_R   0.455170 0.337480 0.492840 -0.620575
O6    O     O_R   0.633270 0.372840 0.521210 -0.594424
O7    O     O_R   0.410940 0.482310 0.362590 -0.608276
O8    O     O_R   0.589040 0.517670 0.390960 -0.615721
Zn1   Zn    Zn3+2 0.381080 0.476390 0.481050 0.956158
Zn2   Zn    Zn3+2 0.618920 0.523610 0.518950 0.983887
C43   C     C_2   0.427289 0.709512 0.938844 0.375819
H10   H     H_    0.402199 0.769707 0.983565 0.084745
O9    O     O_2   0.424079 0.730167 0.863567 -0.544731
C44   C     C_1   0.319873 0.112895 0.523902 0.161164
N3    N     N_1   0.299300 0.193317 0.555729 -0.172368
C45   C     C_1   0.153558 0.985483 0.475322 0.238509
N4    N     N_1   0.064751 0.017404 0.478129 -0.182205
C46   C     C_2   0.852908 0.420019 0.262665 0.472968
H11   H     H_    0.907386 0.416839 0.218644 0.076050
O10   O     O_2   0.756187 0.419509 0.230517 -0.570397
C47   C     C_1   0.060988 0.278861 0.297548 0.126077
N5    N     N_1   0.041205 0.211908 0.247538 -0.171012
C48   C     C_2   0.177302 0.605132 0.535630 0.387540
H12   H     H_    0.253477 0.607786 0.582406 0.124072
O11   O     O_2   0.114822 0.685434 0.519452 -0.587084
C49   C     C_1   0.727610 0.670698 0.660706 0.258507
N6    N     N_1   0.664331 0.716362 0.696163 -0.168131
C50   C     C_2   0.281175 0.569287 0.012535 0.398160
H13   H     H_    0.219606 0.588335 0.953227 0.075086
O12   O     O_2   0.255422 0.575283 0.082947 -0.555949
C51   C     C_1   0.755258 0.370832 0.401943 0.327445
N7    N     N_1   0.704304 0.303562 0.383969 -0.232681
C52   C     C_2   0.636707 0.644141 0.096811 0.423227
H14   H     H_    0.681151 0.685368 0.062626 0.071585
O13   O     O_2   0.646572 0.657797 0.175672 -0.547933
C53   C     C_1   0.570793 0.307052 0.062835 0.234653
N8    N     N_1   0.600246 0.224776 0.089325 -0.166473
C54   C     C_2   0.795438 0.209003 0.583069 0.514161
H15   H     H_    0.872985 0.197296 0.564084 0.077291
O14   O     O_2   0.783281 0.268967 0.643874 -0.546996
C55   C     C_2   0.847272 0.988551 0.541170 0.380714
H16   H     H_    0.877255 0.932104 0.495880 0.097140
O15   O     O_2   0.908530 0.005655 0.611101 -0.532942

loop_
_geom_bond_atom_site_label_1
_geom_bond_atom_site_label_2
_ccdc_geom_bond_type
C27   H6    S    
O5    Zn1   S    
C23   O5    A    
C3    C42   S    
C11   C13   A    
C19   C20   A    
C4    C8    S    
C50   H13   S    
C28   H5    S    
C10   C22   A    
C23   O6    A    
C39   C43   S    
C26   C27   A    
C30   C35   A    
C28   C29   A    
C48   O11   D    
C38   C42   S    
C5    C6    S    
C52   O13   D    
C9    C22   A    
C14   C44   S    
C15   C16   A    
C11   C24   A    
O7    Zn1   S    
C25   C47   S    
O8    Zn2   S    
C36   C48   S    
C25   C37   A    
C21   H1    S    
C51   N7    T    
C2    C7    S    
O2    Zn2   S    
C7    C40   T    
C20   H3    S    
C36   N1    A    
C25   C32   A    
C16   C24   A    
C13   C14   A    
C34   O7    A    
C5    H7    S    
C55   H16   S    
C34   C41   S    
C2    C39   S    
C50   O12   D    
O4    Zn2   S    
C10   C21   A    
C30   N2    A    
C47   N5    T    
C44   N3    T    
C8    C41   T    
C4    C6    S    
C54   H15   S    
C46   O10   D    
C37   N1    A    
C52   H14   S    
C18   C19   A    
O1    Zn1   S    
C34   O8    A    
C17   C21   A    
C43   O9    D    
C12   C40   S    
C1    O1    A    
C29   C30   A    
C54   O14   D    
C31   C32   A    
C14   C15   A    
C16   C20   A    
C17   C18   A    
C11   H2    S    
C48   H12   S    
C55   O15   D    
C12   O3    A    
C42   H8    S    
C12   O4    A    
C4    C38   S    
C38   C50   S    
O3    Zn1   S    
C2    C5    S    
C3    C4    S    
C26   N2    A    
C15   C17   A    
C37   H4    S    
C31   C36   A    
C3    C5    S    
C22   C54   S    
C35   C51   S    
C10   C23   S    
O6    Zn2   S    
C26   C49   S    
C6    C52   S    
C3    C53   S    
C43   H10   S    
C1    O2    A    
C46   H11   S    
C29   C31   A    
N1    Zn1   S    
C32   C33   A    
N2    Zn2   S    
C38   C39   S    
C13   C45   S    
C2    C42   S    
C33   C35   A    
C45   N4    T    
C33   C46   S    
C49   N6    T    
C19   H9    S    
C9    C18   A    
C1    C24   S    
C27   C28   A    
C6    C39   S    
C53   N8    T    
C9    C55   S    
