data_mof_unit_15863.cif
_audit_creation_date              2012-12-11T14:41:07-0500
_audit_creation_method            fapswitch 2.2
_symmetry_space_group_name_H-M    P1
_symmetry_Int_Tables_number       1
_space_group_crystal_system       monoclinic
_cell_length_a                    6.964419
_cell_length_b                    17.845132
_cell_length_c                    18.780522
_cell_angle_alpha                 90.0
_cell_angle_beta                  90.0
_cell_angle_gamma                 89.097353
_cell_volume                      2333.77196706

loop_
_atom_site_label
_atom_site_type_symbol
_atom_type_description
_atom_site_fract_x
_atom_site_fract_y
_atom_site_fract_z
_atom_type_partial_charge
O1    O     O_R   0.377350 0.828520 0.186660 -0.530937
O2    O     O_R   0.622650 0.171480 0.813340 -0.530671
O3    O     O_R   0.122650 0.171480 0.686660 -0.530937
O4    O     O_R   0.877350 0.828520 0.313340 -0.530671
O5    O     O_R   0.877350 0.671480 0.313340 -0.529182
O6    O     O_R   0.122650 0.328520 0.686660 -0.528916
O7    O     O_R   0.622650 0.328520 0.813340 -0.529182
O8    O     O_R   0.377350 0.671480 0.186660 -0.528916
O9    O     O_R   0.707090 0.671930 0.178410 -0.534110
O10   O     O_R   0.292910 0.328070 0.821590 -0.533869
O11   O     O_R   0.792910 0.328070 0.678410 -0.534110
O12   O     O_R   0.207090 0.671930 0.321590 -0.533869
O13   O     O_R   0.207090 0.828070 0.321590 -0.527588
O14   O     O_R   0.792910 0.171930 0.678410 -0.528220
O15   O     O_R   0.292910 0.171930 0.821590 -0.527588
O16   O     O_R   0.707090 0.828070 0.178410 -0.528220
C1    C     C_R   0.539696 0.646052 0.161359 0.757396
C2    C     C_R   0.460130 0.354529 0.838039 0.759297
C3    C     C_R   0.960304 0.353948 0.661359 0.757395
C4    C     C_R   0.039870 0.645471 0.338039 0.759297
C5    C     C_R   0.037216 0.853787 0.338676 0.763771
C6    C     C_R   0.962702 0.146259 0.661362 0.762000
C7    C     C_R   0.462784 0.146213 0.838676 0.763772
C8    C     C_R   0.537298 0.853741 0.161362 0.762000
O17   O     O_3   0.543850 0.750000 0.294270 -0.366073
O18   O     O_3   0.456150 0.250000 0.705730 -0.366795
O19   O     O_3   0.956150 0.250000 0.794270 -0.366073
O20   O     O_3   0.043850 0.750000 0.205730 -0.366795
V1    V     V_3+5 0.818700 0.750000 0.241790 1.540429
V2    V     V_3+5 0.181300 0.250000 0.758210 1.542281
V3    V     V_3+5 0.681300 0.250000 0.741790 1.540430
V4    V     V_3+5 0.318700 0.750000 0.258210 1.542281
C9    C     C_R   0.964653 0.418442 0.611302 -0.144283
C10   C     C_R   0.035762 0.580557 0.387711 -0.146785
C11   C     C_R   0.535347 0.581558 0.111303 -0.144282
C12   C     C_R   0.464238 0.419443 0.887711 -0.146785
C13   C     C_R   0.474854 0.081368 0.888078 -0.130908
C14   C     C_R   0.525942 0.918556 0.112089 -0.130346
C15   C     C_R   0.025146 0.918632 0.388078 -0.130908
C16   C     C_R   0.974058 0.081444 0.612089 -0.130347
C17   C     C_R   0.105426 0.449540 0.419892 -0.069814
C18   C     C_R   0.897165 0.549339 0.579005 -0.055362
C19   C     C_R   0.394572 0.550459 0.919893 -0.069814
C20   C     C_R   0.602837 0.450661 0.079004 -0.055360
C21   C     C_R   0.507129 0.053138 0.086753 -0.077024
C22   C     C_R   0.501518 0.946922 0.913659 -0.077574
C23   C     C_R   0.992872 0.946862 0.586754 -0.077023
C24   C     C_R   0.998481 0.053077 0.413659 -0.077575
C25   C     C_R   0.107919 0.508564 0.368403 -0.121329
C26   C     C_R   0.893446 0.490528 0.630520 -0.121403
C27   C     C_R   0.392079 0.491435 0.868404 -0.121330
C28   C     C_R   0.606554 0.509472 0.130520 -0.121404
C29   C     C_R   0.515872 0.993331 0.137169 -0.113533
C30   C     C_R   0.487482 0.006493 0.863040 -0.118129
C31   C     C_R   0.984129 0.006669 0.637169 -0.113533
C32   C     C_R   0.012518 0.993507 0.363040 -0.118130
C33   C     C_R   0.965912 0.592796 0.456632 -0.187852
C34   C     C_R   0.034590 0.405926 0.542324 -0.197230
C35   C     C_R   0.534091 0.407204 0.956632 -0.187852
C36   C     C_R   0.465409 0.594074 0.042325 -0.197231
C37   C     C_R   0.520432 0.904198 0.038907 -0.205227
C38   C     C_R   0.483210 0.095945 0.961289 -0.210247
C39   C     C_R   0.979568 0.095802 0.538907 -0.205227
C40   C     C_R   0.016790 0.904055 0.461289 -0.210246
C41   C     C_R   0.965189 0.535434 0.508645 0.078120
C42   C     C_R   0.036278 0.463270 0.490223 0.077351
C43   C     C_R   0.534813 0.464566 0.008645 0.078120
C44   C     C_R   0.463721 0.536730 0.990223 0.077352
C45   C     C_R   0.506738 0.962550 0.988085 0.076536
C46   C     C_R   0.498152 0.037741 0.012233 0.073810
C47   C     C_R   0.993261 0.037450 0.488085 0.076537
C48   C     C_R   0.001848 0.962259 0.512233 0.073810
H1    H     H_    0.083859 0.349709 0.529646 0.125003
H2    H     H_    0.915642 0.648884 0.469348 0.128172
H3    H     H_    0.416140 0.650291 0.029646 0.125002
H4    H     H_    0.584363 0.351116 0.969347 0.128169
H5    H     H_    0.479385 0.154052 0.977590 0.131240
H6    H     H_    0.524467 0.846096 0.022398 0.118572
H7    H     H_    0.020614 0.845948 0.477590 0.131240
H8    H     H_    0.975534 0.153904 0.522399 0.118574
C49   C     C_2   0.813930 0.504176 0.703865 0.866622
O21   O     O_2   0.693267 0.553535 0.713955 -0.514605
O22   O     O_R   0.876057 0.460681 0.761636 -0.657297
H9    H     H_    0.812916 0.476180 0.808113 0.305191
C50   C     C_2   0.187339 0.495413 0.295009 0.871213
O23   O     O_2   0.309674 0.446737 0.284744 -0.510497
O24   O     O_R   0.123207 0.538678 0.237379 -0.657878
H10   H     H_    0.186537 0.523615 0.190811 0.307111
C51   C     C_2   0.686068 0.495824 0.203866 0.866620
O25   O     O_2   0.806730 0.446464 0.213956 -0.514605
O26   O     O_R   0.623941 0.539319 0.261636 -0.657297
H11   H     H_    0.687081 0.523820 0.308113 0.305191
C52   C     C_2   0.312659 0.504587 0.795009 0.871214
O27   O     O_2   0.190323 0.553263 0.784744 -0.510497
O28   O     O_R   0.376791 0.461321 0.737379 -0.657878
H12   H     H_    0.313460 0.476385 0.690811 0.307111
C53   C     C_2   0.494977 0.991046 0.784362 0.858404
O29   O     O_2   0.579046 0.935331 0.761665 -0.501084
O30   O     O_R   0.410194 0.040864 0.735771 -0.665735
H13   H     H_    0.428909 0.024657 0.684448 0.295749
C54   C     C_2   0.505705 0.008735 0.215799 0.853492
O31   O     O_2   0.420274 0.064393 0.238023 -0.503127
O32   O     O_R   0.589193 0.959014 0.264777 -0.665595
H14   H     H_    0.568825 0.975276 0.315999 0.294579
C55   C     C_2   0.005023 0.008954 0.284363 0.858406
O33   O     O_2   0.920952 0.064669 0.261665 -0.501085
O34   O     O_R   0.089807 0.959136 0.235771 -0.665735
H15   H     H_    0.071093 0.975343 0.184448 0.295749
C56   C     C_2   0.994296 0.991265 0.715799 0.853493
O35   O     O_2   0.079727 0.935608 0.738023 -0.503127
O36   O     O_R   0.910808 0.040986 0.764777 -0.665595
H16   H     H_    0.931176 0.024724 0.815999 0.294580
C57   C     C_2   0.169414 0.372732 0.399555 0.846544
O37   O     O_2   0.082482 0.338691 0.353517 -0.500234
O38   O     O_R   0.330472 0.340127 0.432321 -0.656559
H17   H     H_    0.360167 0.287852 0.413800 0.335345
C58   C     C_2   0.838599 0.626467 0.599704 0.845285
O39   O     O_2   0.933549 0.660400 0.643517 -0.503481
O40   O     O_R   0.674325 0.659544 0.569648 -0.651336
H18   H     H_    0.648737 0.712145 0.588032 0.322078
C59   C     C_2   0.330583 0.627267 0.899555 0.846545
O41   O     O_2   0.417513 0.661309 0.853518 -0.500233
O42   O     O_R   0.169525 0.659872 0.932321 -0.656559
H19   H     H_    0.139828 0.712147 0.913801 0.335345
C60   C     C_2   0.661408 0.373534 0.099703 0.845286
O43   O     O_2   0.566456 0.339597 0.143514 -0.503483
O44   O     O_R   0.825689 0.340461 0.069649 -0.651334
H20   H     H_    0.851287 0.287860 0.088035 0.322080
C61   C     C_2   0.521098 0.131395 0.112686 0.853515
O45   O     O_2   0.390200 0.176487 0.102041 -0.517610
O46   O     O_R   0.681721 0.151895 0.152368 -0.618135
H21   H     H_    0.670750 0.204647 0.171860 0.358767
C62   C     C_2   0.509392 0.867996 0.888885 0.858353
O47   O     O_2   0.371798 0.841479 0.857899 -0.493696
O48   O     O_R   0.675557 0.824706 0.900411 -0.648398
H22   H     H_    0.665376 0.772165 0.880480 0.342452
C63   C     C_2   0.978906 0.868604 0.612686 0.853510
O49   O     O_2   0.109804 0.823513 0.602039 -0.517613
O50   O     O_R   0.818288 0.848104 0.652371 -0.618134
H23   H     H_    0.829261 0.795353 0.671862 0.358767
C64   C     C_2   0.990606 0.132004 0.388885 0.858350
O51   O     O_2   0.128197 0.158520 0.357896 -0.493694
O52   O     O_R   0.824443 0.175294 0.400414 -0.648401
H24   H     H_    0.834623 0.227835 0.380483 0.342451

loop_
_geom_bond_atom_site_label_1
_geom_bond_atom_site_label_2
_ccdc_geom_bond_type
O24   H10   S    
C21   C61   S    
C9    C34   A    
C38   H5    S    
O28   H12   S    
O14   V3    S    
C12   C35   A    
C49   O21   D    
O42   H19   S    
O5    C4    A    
C50   O23   D    
O6    C3    A    
C63   O50   S    
O11   C3    A    
C52   O27   D    
C16   C39   A    
O20   V1    S    
C61   O45   D    
C56   O36   S    
O52   H24   S    
C35   C43   A    
C38   C46   A    
C52   O28   S    
C22   C45   A    
O13   V4    S    
C53   O30   S    
C34   C42   A    
O36   H16   S    
C29   C54   S    
C19   C44   A    
C18   C41   A    
C8    C14   S    
O34   H15   S    
C30   C53   S    
C51   O26   S    
O48   H22   S    
C19   C59   S    
O4    V1    S    
O9    V1    S    
C14   C37   A    
C4    C10   S    
C20   C28   A    
O17   V4    S    
O15   C7    A    
O11   V3    S    
O18   V3    S    
O16   C8    A    
C31   C56   S    
O19   V2    S    
O12   C4    A    
C28   C51   S    
C17   C25   A    
C49   O22   S    
C53   O29   D    
O5    V1    S    
C39   H8    S    
C50   O24   S    
O17   V1    S    
C32   C55   S    
C20   C60   S    
O7    V3    S    
O19   V3    S    
C43   C44   A    
O8    V4    S    
C54   O31   D    
C25   C50   S    
O20   V4    S    
C3    C9    S    
C33   C41   A    
O26   H11   S    
O16   V1    S    
C7    C13   S    
O1    V4    S    
O2    V3    S    
C64   O52   S    
C33   H2    S    
O3    V2    S    
C15   C40   A    
C10   C33   A    
C55   O34   S    
O10   V2    S    
O22   H9    S    
C5    C15   S    
C37   H6    S    
O40   H18   S    
O7    C2    A    
C6    C16   S    
C23   C63   S    
O13   C5    A    
C15   C32   A    
C60   O44   S    
C59   O41   D    
C12   C27   A    
C18   C26   A    
C13   C30   A    
O9    C1    A    
O6    V2    S    
C22   C30   A    
C39   C47   A    
O18   V2    S    
C62   O47   D    
C40   H7    S    
C24   C47   A    
O46   H21   S    
C11   C28   A    
O15   V2    S    
C23   C31   A    
C57   O37   D    
C63   O49   D    
C37   C45   A    
C24   C32   A    
C10   C25   A    
C21   C46   A    
C17   C57   S    
C20   C43   A    
C16   C31   A    
O50   H23   S    
C18   C58   S    
C17   C42   A    
C55   O33   D    
C36   H3    S    
O8    C1    A    
C27   C52   S    
O30   H13   S    
O14   C6    A    
C58   O40   S    
C9    C26   A    
C47   C48   A    
C64   O51   D    
C22   C62   S    
O4    C5    A    
C19   C27   A    
O38   H17   S    
C60   O43   D    
C14   C29   A    
O10   C2    A    
C24   C64   S    
O2    C7    A    
C40   C48   A    
C26   C49   S    
C45   C46   A    
C23   C48   A    
C59   O42   S    
C21   C29   A    
C36   C44   A    
O1    C8    A    
C54   O32   S    
C41   C42   A    
C56   O35   D    
O32   H14   S    
C62   O48   S    
C13   C38   A    
C11   C36   A    
O3    C6    A    
C1    C11   S    
C61   O46   S    
C51   O25   D    
C58   O39   D    
C2    C12   S    
C35   H4    S    
O12   V4    S    
O44   H20   S    
C34   H1    S    
C57   O38   S    
