data_mof_unit_64901.cif
_audit_creation_date              2012-12-11T14:24:18-0500
_audit_creation_method            fapswitch 2.2
_symmetry_space_group_name_H-M    P1
_symmetry_Int_Tables_number       1
_space_group_crystal_system       triclinic
_cell_length_a                    6.947805
_cell_length_b                    17.461128
_cell_length_c                    18.878904
_cell_angle_alpha                 105.312882
_cell_angle_beta                  89.375287
_cell_angle_gamma                 90.282809
_cell_volume                      2208.87557818

loop_
_atom_site_label
_atom_site_type_symbol
_atom_type_description
_atom_site_fract_x
_atom_site_fract_y
_atom_site_fract_z
_atom_type_partial_charge
O1    O     O_R   0.494360 0.416740 0.414860 -0.543388
O2    O     O_R   0.818980 0.432970 0.557290 -0.527467
O3    O     O_R   0.994290 0.583260 0.585140 -0.539178
C1    C     C_R   0.649827 0.415944 0.580635 0.711387
O4    O     O_R   0.823740 0.407570 0.413690 -0.507116
O5    O     O_R   0.999090 0.557670 0.440510 -0.522354
C2    C     C_R   0.655635 0.384995 0.386280 0.771289
O6    O     O_R   0.489560 0.442330 0.559490 -0.524423
O7    O     O_3   0.662450 0.549280 0.508970 -0.366763
V1    V     V_3+5 0.935350 0.490860 0.498340 1.446185
O8    O     O_R   0.329100 0.567030 0.442710 -0.526749
C3    C     C_R   0.161109 0.584042 0.419356 0.722285
O9    O     O_R   0.324330 0.592430 0.586310 -0.540165
C4    C     C_R   0.154133 0.615010 0.613275 0.756843
V2    V     V_3+5 0.435960 0.509140 0.501660 1.417038
O10   O     O_3   0.158990 0.450720 0.491030 -0.355814
C5    C     C_2   0.286330 0.789609 0.780818 0.228748
C6    C     C_2   0.121608 0.816660 0.819585 -0.355899
H1    H     H_    0.985835 0.787229 0.802615 0.124943
C7    C     C_2   0.291004 0.719937 0.715047 -0.111249
C8    C     C_2   0.136514 0.682994 0.679057 -0.375536
H2    H     H_    0.433296 0.699192 0.694386 0.158868
H3    H     H_    0.992074 0.702649 0.696810 0.141934
C9    C     C_1   0.110316 0.863884 0.132629 -0.213122
C10   C     C_1   0.117957 0.821311 0.176183 0.001174
C11   C     C_1   0.127695 0.771097 0.228065 -0.000059
C12   C     C_1   0.136046 0.728817 0.271858 0.000274
C13   C     C_1   0.145783 0.678607 0.323742 0.002086
C14   C     C_1   0.153425 0.636039 0.367302 -0.212288
C15   C     C_1   0.640937 0.364011 0.632669 -0.209996
C16   C     C_1   0.636610 0.321415 0.676231 0.000685
C17   C     C_1   0.633124 0.271163 0.728103 0.000272
C18   C     C_1   0.630534 0.228833 0.771903 0.000533
C19   C     C_1   0.627056 0.178586 0.823779 0.001581
C20   C     C_1   0.622743 0.135998 0.867347 -0.211737
C21   C     C_2   0.778251 0.211224 0.213610 -0.190119
C22   C     C_2   0.612613 0.183283 0.179656 -0.343626
H4    H     H_    0.912367 0.182871 0.190916 0.146162
H5    H     H_    0.475810 0.210474 0.199517 0.128075
C23   C     C_2   0.796625 0.280197 0.280103 0.225823
C24   C     C_2   0.642883 0.316849 0.319749 -0.292917
H6    H     H_    0.498335 0.296614 0.303733 0.096528
O11   O     O_R   0.774180 0.057760 0.940580 -0.521075
O12   O     O_R   0.439830 0.092440 0.086330 -0.542035
O13   O     O_R   0.264640 0.942310 0.059470 -0.522458
C25   C     C_R   0.607892 0.115142 0.113465 0.763952
O14   O     O_R   0.444740 0.067040 0.942730 -0.526531
O15   O     O_R   0.269590 0.916730 0.914840 -0.538369
C26   C     C_R   0.613884 0.084070 0.919381 0.716876
O16   O     O_R   0.769230 0.083340 0.085210 -0.534912
O17   O     O_3   0.601340 0.950770 0.991070 -0.365202
V3    V     V_3+5 0.328370 0.009130 0.001660 1.399052
O18   O     O_R   0.939550 0.907490 0.913620 -0.537234
C27   C     C_R   0.110125 0.885090 0.886140 0.748259
O19   O     O_R   0.934640 0.932890 0.057220 -0.525117
C28   C     C_R   0.102629 0.915892 0.080584 0.717947
V4    V     V_3+5 0.827780 0.990750 0.998250 1.406618
O20   O     O_3   0.104690 0.049230 0.008930 -0.361663
N1    N     N_3   0.470255 0.826328 0.801373 -0.671118
H7    H     H_    0.507470 0.820465 0.853176 0.249993
H8    H     H_    0.464513 0.886146 0.801351 0.237684
N2    N     N_3   0.988079 0.306986 0.301880 -0.636601
H9    H     H_    0.055178 0.322524 0.257797 0.214019
H10   H     H_    0.064054 0.259387 0.311799 0.215169

loop_
_geom_bond_atom_site_label_1
_geom_bond_atom_site_label_2
_ccdc_geom_bond_type
O5    V1    S    
C21   C22   D    
O2    C1    A    
O8    C3    A    
C20   C26   S    
N2    H9    S    
O17   V4    S    
C3    C14   S    
C9    C28   S    
C24   H6    S    
C25   O16   A    
N2    H10   S    
C16   C17   S    
C22   C25   S    
O9    V2    S    
O15   V3    S    
C1    O6    A    
C17   C18   T    
O12   V3    S    
O19   C28   A    
O19   V4    S    
C5    C6    D    
O7    V2    S    
N1    H7    S    
C22   H5    S    
O3    V1    S    
V1    O10   S    
O9    C4    A    
C9    C10   T    
O15   C27   A    
C2    C24   S    
C13   C14   T    
V4    O20   S    
O14   V3    S    
O3    C4    A    
V3    O20   S    
C5    N1    S    
O1    V2    S    
C4    C8    S    
O4    V1    S    
C23   C24   D    
C7    H2    S    
C18   C19   S    
O6    V2    S    
C8    H3    S    
O5    C3    A    
C15   C16   T    
N1    H8    S    
V2    O10   S    
O11   V4    S    
C21   H4    S    
O2    V1    S    
C21   C23   S    
C5    C7    S    
C23   N2    S    
C7    C8    D    
O14   C26   A    
C19   C20   T    
O7    V1    S    
C12   C13   S    
O4    C2    A    
C6    H1    S    
C6    C27   S    
O11   C26   A    
C11   C12   T    
O18   V4    S    
O13   V3    S    
O1    C2    A    
C10   C11   S    
O18   C27   A    
O16   V4    S    
O8    V2    S    
C1    C15   S    
O17   V3    S    
O13   C28   A    
O12   C25   A    
