data_mof_unit_25754.cif
_audit_creation_date              2012-12-11T15:08:37-0500
_audit_creation_method            fapswitch 2.2
_symmetry_space_group_name_H-M    P1
_symmetry_Int_Tables_number       1
_space_group_crystal_system       triclinic
_cell_length_a                    19.393757
_cell_length_b                    11.53168
_cell_length_c                    18.680019
_cell_angle_alpha                 89.901393
_cell_angle_beta                  90.205635
_cell_angle_gamma                 90.001984
_cell_volume                      4177.61491741

loop_
_atom_site_label
_atom_site_type_symbol
_atom_type_description
_atom_site_fract_x
_atom_site_fract_y
_atom_site_fract_z
_atom_type_partial_charge
C1    C     C_R   0.273103 0.040478 0.855333 0.529056
C2    C     C_R   0.726928 0.040698 0.144744 0.529438
C3    C     C_R   0.773073 0.540592 0.855279 0.528119
C4    C     C_R   0.226887 0.540570 0.144684 0.529337
C5    C     C_3   0.524573 0.724365 0.968166 -0.135852
C6    C     C_3   0.475394 0.724424 0.032160 -0.134448
C7    C     C_3   0.024552 0.224508 0.968143 -0.134636
C8    C     C_3   0.975420 0.224320 0.032178 -0.135423
C9    C     C_3   0.309669 0.518191 0.041360 -0.200606
C10   C     C_3   0.690362 0.518246 0.958783 -0.200772
C11   C     C_3   0.809606 0.018253 0.041388 -0.200554
C12   C     C_3   0.190300 0.018098 0.958817 -0.200963
C13   C     C_3   0.320916 0.548781 0.961737 0.192172
C14   C     C_3   0.679180 0.548751 0.038371 0.191625
C15   C     C_3   0.820799 0.048606 0.961741 0.191596
C16   C     C_3   0.179058 0.048870 0.038373 0.192298
C17   C     C_3   0.179351 0.519184 0.023189 -0.174319
C18   C     C_3   0.820700 0.519633 0.976780 -0.173859
C19   C     C_3   0.679235 0.019556 0.023402 -0.173931
C20   C     C_3   0.320588 0.019285 0.976958 -0.174383
C21   C     C_3   0.243949 0.698240 0.054270 -0.269467
C22   C     C_3   0.755928 0.698421 0.945377 -0.268989
C23   C     C_3   0.744031 0.198445 0.054330 -0.269846
C24   C     C_3   0.255917 0.198178 0.945454 -0.268434
C25   C     C_3   0.240599 0.568624 0.068020 -0.035669
C26   C     C_3   0.759348 0.568788 0.931909 -0.035853
C27   C     C_3   0.740604 0.068836 0.068100 -0.036161
C28   C     C_3   0.259331 0.068561 0.931986 -0.036164
C29   C     C_3   0.253996 0.606178 0.929974 0.098025
C30   C     C_3   0.746041 0.606346 0.069980 0.096553
C31   C     C_3   0.753927 0.106110 0.929984 0.097304
C32   C     C_3   0.245979 0.106328 0.070010 0.097297
C33   C     C_3   0.189500 0.531022 0.940715 0.165517
C34   C     C_3   0.810761 0.531748 0.059184 0.166347
C35   C     C_3   0.689125 0.031682 0.940966 0.166368
C36   C     C_3   0.310477 0.031209 0.059391 0.165778
C37   C     C_3   0.238928 0.718495 0.973356 -0.302555
C38   C     C_3   0.760848 0.718752 0.026294 -0.301843
C39   C     C_3   0.739165 0.218632 0.973365 -0.302123
C40   C     C_3   0.261021 0.218587 0.026318 -0.302010
C41   C     C_3   0.507578 0.699313 0.461957 -0.223811
C42   C     C_3   0.506311 0.700130 0.542283 -0.233442
C43   C     C_3   0.998206 0.198859 0.459728 -0.237236
C44   C     C_3   0.001942 0.199074 0.540432 -0.236589
C45   C     C_R   0.462493 0.819179 0.857333 0.533750
C46   C     C_R   0.537361 0.819322 0.142723 0.533897
C47   C     C_R   0.962287 0.319162 0.857422 0.533671
C48   C     C_R   0.037343 0.319319 0.142738 0.533925
C49   C     C_3   0.562001 0.905200 0.473430 -0.214041
C50   C     C_3   0.430060 0.875995 0.525935 -0.222577
C51   C     C_3   0.068749 0.382125 0.474993 -0.230739
C52   C     C_3   0.929974 0.380964 0.524303 -0.231742
C53   C     C_3   0.440697 0.875904 0.443766 -0.265805
C54   C     C_3   0.553206 0.898279 0.555336 -0.259207
C55   C     C_3   0.946665 0.395360 0.444139 -0.256373
C56   C     C_3   0.051689 0.397323 0.554912 -0.256573
C57   C     C_3   0.511401 0.825138 0.431184 0.065744
C58   C     C_3   0.490375 0.824735 0.569759 0.061044
C59   C     C_3   0.010930 0.324937 0.430677 0.064504
C60   C     C_3   0.988298 0.325023 0.568894 0.063914
C61   C     C_3   0.178980 0.642479 0.462414 -0.266813
C62   C     C_3   0.818862 0.647544 0.539437 -0.262503
C63   C     C_3   0.676586 0.130542 0.463432 -0.258324
C64   C     C_3   0.321360 0.142615 0.537712 -0.265590
C65   C     C_3   0.178068 0.642297 0.542393 -0.287563
C66   C     C_3   0.816321 0.655054 0.460100 -0.273753
C67   C     C_3   0.678193 0.140060 0.543068 -0.280623
C68   C     C_3   0.321640 0.144475 0.457792 -0.284506
C69   C     C_3   0.244424 0.450719 0.477514 -0.165211
C70   C     C_3   0.756656 0.454212 0.524173 -0.165708
C71   C     C_3   0.753919 0.946111 0.478685 -0.173851
C72   C     C_3   0.255507 0.951612 0.523044 -0.165129
C73   C     C_3   0.306275 0.625664 0.445707 -0.264891
C74   C     C_3   0.692625 0.631465 0.555836 -0.278960
C75   C     C_3   0.802451 0.133330 0.445754 -0.273838
C76   C     C_3   0.194077 0.127869 0.553847 -0.268853
C77   C     C_3   0.238682 0.564528 0.432978 0.025298
C78   C     C_3   0.760237 0.568893 0.568323 0.024307
C79   C     C_3   0.738594 0.060082 0.433950 0.023992
C80   C     C_3   0.261299 0.065741 0.567141 0.025536
C81   C     C_3   0.249421 0.599502 0.570846 0.092607
C82   C     C_3   0.747763 0.602990 0.430703 0.089838
C83   C     C_3   0.749155 0.097885 0.571440 0.093186
C84   C     C_3   0.250879 0.099687 0.429078 0.093308
C85   C     C_3   0.251323 0.468892 0.560285 0.142882
C86   C     C_3   0.753784 0.471494 0.440978 0.129234
C87   C     C_3   0.751954 0.966604 0.561470 0.136597
C88   C     C_3   0.249780 0.969177 0.440133 0.139881
C89   C     C_R   0.262266 0.642652 0.854514 0.546508
C90   C     C_R   0.737742 0.642783 0.145446 0.546259
C91   C     C_R   0.762216 0.142537 0.854489 0.544871
C92   C     C_R   0.237707 0.142841 0.145438 0.545952
C93   C     C_3   0.308439 0.653396 0.525841 -0.199187
C94   C     C_3   0.682624 0.641155 0.474434 -0.208445
C95   C     C_3   0.807239 0.154036 0.526709 -0.207285
C96   C     C_3   0.191397 0.152812 0.473223 -0.199321
C97   C     C_R   0.274326 0.039373 0.644131 0.534888
C98   C     C_R   0.724703 0.035822 0.356980 0.537002
C99   C     C_R   0.773676 0.541144 0.644924 0.532801
C100  C     C_R   0.225411 0.538513 0.356098 0.535392
C101  C     C_R   0.469051 0.822176 0.646165 0.529114
C102  C     C_R   0.532257 0.822091 0.354685 0.532672
C103  C     C_R   0.967363 0.322085 0.645214 0.535167
C104  C     C_R   0.032264 0.322014 0.354534 0.534126
C105  C     C_R   0.259875 0.638971 0.645026 0.529857
C106  C     C_R   0.738969 0.641485 0.356190 0.535999
C107  C     C_R   0.759660 0.138280 0.645429 0.535338
C108  C     C_R   0.240315 0.138539 0.354756 0.530260
C109  C     C_3   0.474557 0.914181 0.031805 -0.111098
C110  C     C_3   0.525269 0.914131 0.967926 -0.107850
C111  C     C_3   0.974400 0.414074 0.031940 -0.107983
C112  C     C_3   0.025058 0.414284 0.968018 -0.111461
C113  C     C_3   0.431572 0.817903 0.995540 -0.123554
C114  C     C_3   0.568329 0.818066 0.004486 -0.122544
C115  C     C_3   0.931486 0.317739 0.995656 -0.122790
C116  C     C_3   0.068250 0.318272 0.004476 -0.124055
C117  C     C_3   0.482377 0.820089 0.932573 0.059488
C118  C     C_3   0.517526 0.820363 0.067457 0.058757
C119  C     C_3   0.982229 0.320152 0.932645 0.058430
C120  C     C_3   0.017489 0.320330 0.067490 0.059683
Cr1   Cr    Cr6+3 0.229620 0.836040 0.749110 0.977712
Cr2   Cr    Cr6+3 0.770380 0.836040 0.250890 0.977243
Cr3   Cr    Cr6+3 0.729620 0.336040 0.749110 0.975709
Cr4   Cr    Cr6+3 0.270380 0.336040 0.250890 0.977095
Cr5   Cr    Cr6+3 0.387630 0.990680 0.750730 0.970037
Cr6   Cr    Cr6+3 0.612370 0.990680 0.249270 0.971234
Cr7   Cr    Cr6+3 0.887630 0.490680 0.750730 0.970406
Cr8   Cr    Cr6+3 0.112370 0.490680 0.249270 0.970240
Cr9   Cr    Cr6+3 0.386020 0.676590 0.749210 0.986635
Cr10  Cr    Cr6+3 0.613980 0.676590 0.250790 0.981521
Cr11  Cr    Cr6+3 0.886020 0.176590 0.749210 0.987695
Cr12  Cr    Cr6+3 0.113980 0.176590 0.250790 0.986355
H1    H     H_    0.377367 0.795153 0.999588 0.110182
H2    H     H_    0.622568 0.795666 0.000368 0.111858
H3    H     H_    0.877280 0.295112 0.999714 0.110852
H4    H     H_    0.122489 0.295821 0.000259 0.111097
H5    H     H_    0.202957 0.745644 0.082969 0.222841
H6    H     H_    0.796909 0.745840 0.916559 0.222195
H7    H     H_    0.703006 0.245845 0.082972 0.222622
H8    H     H_    0.296820 0.245665 0.916563 0.222898
H9    H     H_    0.294247 0.728680 0.073326 0.185599
H10   H     H_    0.705663 0.728803 0.926199 0.185580
H11   H     H_    0.794248 0.228921 0.073531 0.185503
H12   H     H_    0.205530 0.228420 0.926451 0.185443
H13   H     H_    0.273369 0.786784 0.956206 0.122143
H14   H     H_    0.726314 0.786876 0.043260 0.122269
H15   H     H_    0.773728 0.286706 0.956161 0.121998
H16   H     H_    0.226584 0.286886 0.043251 0.122620
H17   H     H_    0.185398 0.747004 0.961810 0.131189
H18   H     H_    0.814270 0.747675 0.037772 0.131332
H19   H     H_    0.685736 0.247571 0.961821 0.131243
H20   H     H_    0.314539 0.247204 0.037734 0.131481
H21   H     H_    0.631071 0.066073 0.038185 0.102865
H22   H     H_    0.368779 0.065833 0.962218 0.102824
H23   H     H_    0.131177 0.565854 0.037748 0.102723
H24   H     H_    0.868872 0.566131 0.961889 0.103261
H25   H     H_    0.143770 0.580382 0.920491 0.076076
H26   H     H_    0.856291 0.581960 0.078896 0.075876
H27   H     H_    0.643624 0.082089 0.921267 0.076218
H28   H     H_    0.356166 0.080699 0.079463 0.075996
H29   H     H_    0.548444 0.642382 0.444128 0.140897
H30   H     H_    0.468970 0.632924 0.558936 0.148195
H31   H     H_    0.033963 0.131337 0.440778 0.148779
H32   H     H_    0.966165 0.131357 0.559480 0.150237
H33   H     H_    0.460260 0.655714 0.441577 0.117478
H34   H     H_    0.556123 0.671447 0.564290 0.115531
H35   H     H_    0.946906 0.169294 0.441804 0.115991
H36   H     H_    0.053495 0.170507 0.558633 0.117462
H37   H     H_    0.615310 0.892678 0.457316 0.111041
H38   H     H_    0.389258 0.818456 0.538844 0.108635
H39   H     H_    0.109046 0.319824 0.472450 0.109631
H40   H     H_    0.889783 0.318650 0.527261 0.109654
H41   H     H_    0.599004 0.859086 0.581271 0.091845
H42   H     H_    0.400390 0.824776 0.416030 0.095491
H43   H     H_    0.095072 0.368025 0.589406 0.088575
H44   H     H_    0.904220 0.362061 0.409954 0.087633
H45   H     H_    0.457882 0.995452 0.057716 0.094109
H46   H     H_    0.541890 0.995411 0.941841 0.095202
H47   H     H_    0.957709 0.495252 0.057913 0.095079
H48   H     H_    0.041635 0.495633 0.941929 0.094137
H49   H     H_    0.438986 0.964335 0.421146 0.107311
H50   H     H_    0.544627 0.985855 0.578256 0.116291
H51   H     H_    0.955708 0.488137 0.430859 0.122173
H52   H     H_    0.040194 0.489619 0.567011 0.124172
H53   H     H_    0.419213 0.963952 0.544270 0.133358
H54   H     H_    0.546830 0.994125 0.458441 0.124332
H55   H     H_    0.915002 0.463975 0.547487 0.133280
H56   H     H_    0.083713 0.464749 0.451269 0.136282
H57   H     H_    0.126492 0.625625 0.442361 0.140801
H58   H     H_    0.871689 0.624822 0.556012 0.138259
H59   H     H_    0.626738 0.099376 0.446144 0.135527
H60   H     H_    0.373685 0.122584 0.557144 0.140272
H61   H     H_    0.188879 0.731369 0.446413 0.193182
H62   H     H_    0.812013 0.734371 0.560002 0.196693
H63   H     H_    0.677930 0.218465 0.440927 0.197293
H64   H     H_    0.312785 0.231341 0.554547 0.192841
H65   H     H_    0.163035 0.730850 0.559071 0.156365
H66   H     H_    0.824917 0.745850 0.445172 0.152695
H67   H     H_    0.666245 0.231499 0.556079 0.155055
H68   H     H_    0.335651 0.233546 0.441406 0.155590
H69   H     H_    0.136648 0.585761 0.562651 0.105638
H70   H     H_    0.861088 0.608339 0.437001 0.105195
H71   H     H_    0.636468 0.089018 0.567590 0.105439
H72   H     H_    0.363743 0.090826 0.436960 0.103297
H73   H     H_    0.721510 0.874185 0.462522 0.076648
H74   H     H_    0.303804 0.913281 0.534358 0.067398
H75   H     H_    0.195875 0.412662 0.466945 0.065041
H76   H     H_    0.803852 0.413960 0.538468 0.068849
H77   H     H_    0.704080 0.926342 0.582266 0.068254
H78   H     H_    0.296099 0.929050 0.414986 0.065462
H79   H     H_    0.205723 0.427982 0.586240 0.062592
H80   H     H_    0.802499 0.438825 0.417588 0.075730
H81   H     H_    0.350420 0.569189 0.430691 0.131720
H82   H     H_    0.650747 0.579260 0.580376 0.119771
H83   H     H_    0.848412 0.086299 0.425847 0.115377
H84   H     H_    0.150471 0.071011 0.569885 0.130288
H85   H     H_    0.309543 0.705789 0.413134 0.087790
H86   H     H_    0.692103 0.718564 0.580560 0.099550
H87   H     H_    0.801147 0.217082 0.417171 0.106387
H88   H     H_    0.190333 0.209465 0.585075 0.090924
H89   H     H_    0.543685 0.645740 0.940643 0.094521
H90   H     H_    0.456296 0.645865 0.059939 0.096003
H91   H     H_    0.043753 0.146023 0.940531 0.096186
H92   H     H_    0.956427 0.145662 0.059926 0.094871
H93   H     H_    0.297242 0.743315 0.529707 0.094293
H94   H     H_    0.662108 0.725410 0.458519 0.100499
H95   H     H_    0.797820 0.243854 0.535199 0.100178
H96   H     H_    0.200531 0.242832 0.466399 0.093458
H97   H     H_    0.359472 0.630745 0.547846 0.168133
H98   H     H_    0.642297 0.577587 0.461406 0.180313
H99   H     H_    0.858250 0.126953 0.546462 0.164454
H100  H     H_    0.140998 0.126709 0.451718 0.169167
H101  H     H_    0.286432 0.395600 0.457314 0.149533
H102  H     H_    0.712798 0.400609 0.542293 0.154303
H103  H     H_    0.806906 0.918536 0.465464 0.150448
H104  H     H_    0.213125 0.896486 0.542976 0.150092
H105  H     H_    0.310902 0.424933 0.049526 0.167149
H106  H     H_    0.689211 0.425048 0.950830 0.167054
H107  H     H_    0.810793 0.925050 0.049647 0.167222
H108  H     H_    0.189132 0.924849 0.950976 0.167059
H109  H     H_    0.352969 0.552589 0.074083 0.061650
H110  H     H_    0.646996 0.552533 0.926035 0.061736
H111  H     H_    0.852960 0.052660 0.074033 0.061842
H112  H     H_    0.146964 0.052309 0.925993 0.061901
H113  H     H_    0.361349 0.617017 0.958676 0.090020
H114  H     H_    0.638723 0.616960 0.041297 0.090613
H115  H     H_    0.861195 0.116920 0.958629 0.090962
H116  H     H_    0.138643 0.117148 0.041226 0.090047
H117  H     H_    0.670897 0.933104 0.041657 0.123792
H118  H     H_    0.328865 0.932871 0.958921 0.123929
H119  H     H_    0.170960 0.432855 0.041605 0.123357
H120  H     H_    0.828974 0.433127 0.958853 0.124289
O1    O     O_R   0.214130 0.708570 0.829890 -0.565370
O2    O     O_R   0.785870 0.708570 0.170110 -0.564067
O3    O     O_R   0.714130 0.208570 0.829890 -0.564589
O4    O     O_R   0.285870 0.208570 0.170110 -0.565162
O5    O     O_R   0.446360 0.919990 0.675230 -0.513417
O6    O     O_R   0.553640 0.919990 0.324770 -0.513612
O7    O     O_R   0.946360 0.419990 0.675230 -0.512950
O8    O     O_R   0.053640 0.419990 0.324770 -0.513980
O9    O     O_R   0.457170 0.717300 0.668380 -0.536335
O10   O     O_R   0.542830 0.717300 0.331620 -0.537003
O11   O     O_R   0.957170 0.217300 0.668380 -0.534738
O12   O     O_R   0.042830 0.217300 0.331620 -0.536213
O13   O     O_R   0.320870 0.624890 0.673130 -0.492224
O14   O     O_R   0.679130 0.624890 0.326870 -0.499166
O15   O     O_R   0.820870 0.124890 0.673130 -0.486201
O16   O     O_R   0.179130 0.124890 0.326870 -0.492661
O17   O     O_3   0.334430 0.834430 0.749680 -0.275930
O18   O     O_3   0.665570 0.834430 0.250320 -0.277518
O19   O     O_3   0.834430 0.334430 0.749680 -0.276628
O20   O     O_3   0.165570 0.334430 0.250320 -0.276552
O21   O     O_R   0.236050 0.959150 0.825270 -0.510576
O22   O     O_R   0.763950 0.959150 0.174730 -0.510534
O23   O     O_R   0.736050 0.459150 0.825270 -0.510673
O24   O     O_R   0.263950 0.459150 0.174730 -0.510636
O25   O     O_R   0.332100 0.076650 0.832310 -0.537640
O26   O     O_R   0.667900 0.076650 0.167690 -0.536512
O27   O     O_R   0.832100 0.576650 0.832310 -0.538870
O28   O     O_R   0.167900 0.576650 0.167690 -0.537418
O29   O     O_R   0.446500 0.918620 0.826240 -0.514891
O30   O     O_R   0.553500 0.918620 0.173760 -0.514667
O31   O     O_R   0.946500 0.418620 0.826240 -0.514910
O32   O     O_R   0.053500 0.418620 0.173760 -0.514634
O33   O     O_R   0.457310 0.715830 0.831280 -0.545682
O34   O     O_R   0.542690 0.715830 0.168720 -0.544719
O35   O     O_R   0.957310 0.215830 0.831280 -0.544718
O36   O     O_R   0.042690 0.215830 0.168720 -0.545404
O37   O     O_R   0.321000 0.623520 0.824130 -0.486616
O38   O     O_R   0.679000 0.623520 0.175870 -0.487620
O39   O     O_R   0.821000 0.123520 0.824130 -0.489739
O40   O     O_R   0.179000 0.123520 0.175870 -0.486744
O41   O     O_R   0.213990 0.710040 0.667000 -0.552489
O42   O     O_R   0.786010 0.710040 0.333000 -0.551949
O43   O     O_R   0.713990 0.210040 0.667000 -0.554600
O44   O     O_R   0.286010 0.210040 0.333000 -0.553041
O45   O     O_R   0.235920 0.960520 0.674260 -0.509968
O46   O     O_R   0.764080 0.960520 0.325740 -0.510131
O47   O     O_R   0.735920 0.460520 0.674260 -0.510937
O48   O     O_R   0.264080 0.460520 0.325740 -0.510230
O49   O     O_R   0.331960 0.078120 0.669410 -0.542418
O50   O     O_R   0.668040 0.078120 0.330590 -0.543649
O51   O     O_R   0.831960 0.578120 0.669410 -0.542517
O52   O     O_R   0.168040 0.578120 0.330590 -0.543278
O53   O     O_3   0.314098 0.423125 0.587844 -0.583229
C121  C     C_3   0.304812 0.375333 0.657620 -0.003537
H121  H     H_    0.274469 0.294128 0.655683 0.114100
H122  H     H_    0.276115 0.433122 0.694330 0.139839
C122  C     C_3   0.374852 0.349513 0.690727 -0.320640
H123  H     H_    0.404209 0.431255 0.698383 0.159594
H124  H     H_    0.367674 0.306883 0.743432 0.112430
H125  H     H_    0.404686 0.290768 0.655430 0.148309
O54   O     O_3   0.695839 0.413183 0.410892 -0.599346
C123  C     C_3   0.708093 0.375211 0.339605 -0.004921
H126  H     H_    0.734772 0.290913 0.339398 0.123618
H127  H     H_    0.740563 0.435286 0.307814 0.128589
C124  C     C_3   0.639584 0.358625 0.301007 -0.320352
H128  H     H_    0.610842 0.441611 0.297781 0.171374
H129  H     H_    0.649292 0.326768 0.245960 0.117521
H130  H     H_    0.607499 0.294150 0.329913 0.147456
O55   O     O_3   0.811621 0.921588 0.596265 -0.584774
C125  C     C_3   0.795460 0.875677 0.665089 -0.003443
H131  H     H_    0.766021 0.793862 0.660717 0.111535
H132  H     H_    0.763324 0.934825 0.697702 0.130653
C126  C     C_3   0.861755 0.851158 0.705997 -0.316430
H133  H     H_    0.890158 0.933092 0.716192 0.165026
H134  H     H_    0.849056 0.809902 0.757979 0.120270
H135  H     H_    0.895134 0.791696 0.674813 0.151321
O56   O     O_3   0.187629 0.922205 0.411910 -0.584724
C127  C     C_3   0.197838 0.875140 0.342214 -0.003754
H136  H     H_    0.227772 0.793608 0.344550 0.114699
H137  H     H_    0.227225 0.933113 0.306067 0.136933
C128  C     C_3   0.128240 0.850154 0.307916 -0.319401
H138  H     H_    0.099158 0.932120 0.299924 0.160931
H139  H     H_    0.136144 0.808053 0.255250 0.113978
H140  H     H_    0.097732 0.791238 0.342602 0.148802
O57   O     O_3   0.341351 0.448534 0.923173 -0.527006
C129  C     C_3   0.414277 0.437094 0.925040 -0.024463
H141  H     H_    0.436744 0.461926 0.977894 0.096198
H142  H     H_    0.437266 0.492916 0.882845 0.167761
C130  C     C_3   0.435157 0.312070 0.911289 -0.391126
H143  H     H_    0.411931 0.280459 0.860673 0.168563
H144  H     H_    0.492174 0.306090 0.907265 0.091064
H145  H     H_    0.418127 0.256473 0.956381 0.131429
O58   O     O_3   0.658787 0.448477 0.077165 -0.528883
C131  C     C_3   0.585837 0.437156 0.075495 -0.025468
H146  H     H_    0.563246 0.462435 0.022725 0.096731
H147  H     H_    0.562995 0.492709 0.117790 0.167763
C132  C     C_3   0.564824 0.312070 0.089161 -0.391620
H148  H     H_    0.587666 0.280093 0.139952 0.168107
H149  H     H_    0.507779 0.306181 0.092817 0.091516
H150  H     H_    0.582051 0.256690 0.044168 0.131884
O59   O     O_3   0.841355 0.948308 0.923268 -0.529630
C133  C     C_3   0.914337 0.937179 0.925104 -0.024740
H151  H     H_    0.937036 0.964567 0.977369 0.096811
H152  H     H_    0.937090 0.991100 0.881849 0.166954
C134  C     C_3   0.935505 0.811639 0.913674 -0.393820
H153  H     H_    0.913225 0.777781 0.863182 0.166567
H154  H     H_    0.992587 0.805686 0.910704 0.091945
H155  H     H_    0.917859 0.757856 0.959338 0.131902
O60   O     O_3   0.158589 0.948709 0.077223 -0.527012
C135  C     C_3   0.085661 0.937273 0.075342 -0.024528
H156  H     H_    0.063201 0.962247 0.022460 0.096240
H157  H     H_    0.062667 0.992985 0.117469 0.167753
C136  C     C_3   0.064757 0.812211 0.089209 -0.390960
H158  H     H_    0.087909 0.780458 0.139894 0.168560
H159  H     H_    0.007735 0.806231 0.093164 0.091308
H160  H     H_    0.081832 0.756724 0.044199 0.131520
O61   O     O_3   0.693778 0.923342 0.905396 -0.559330
C137  C     C_3   0.660129 0.926537 0.837435 -0.011689
H161  H     H_    0.686584 0.986579 0.800312 0.148527
H162  H     H_    0.605419 0.953714 0.842089 0.127375
C138  C     C_3   0.660499 0.807538 0.802257 -0.387270
H163  H     H_    0.628332 0.745930 0.833371 0.147587
H164  H     H_    0.638515 0.814152 0.747393 0.094661
H165  H     H_    0.714075 0.774338 0.798209 0.154247
O62   O     O_3   0.304734 0.922839 0.094953 -0.558103
C139  C     C_3   0.338964 0.924390 0.162592 -0.013287
H166  H     H_    0.316710 0.990589 0.198600 0.149728
H167  H     H_    0.394846 0.942311 0.156528 0.129456
C140  C     C_3   0.331901 0.808128 0.200660 -0.383566
H168  H     H_    0.362288 0.740621 0.172548 0.143877
H169  H     H_    0.352208 0.815432 0.256165 0.091045
H170  H     H_    0.276841 0.782084 0.203273 0.161610
O63   O     O_3   0.195377 0.422740 0.905317 -0.558394
C141  C     C_3   0.160934 0.424177 0.837776 -0.014207
H171  H     H_    0.181514 0.492718 0.802219 0.149854
H172  H     H_    0.104776 0.438642 0.844286 0.130567
C142  C     C_3   0.170310 0.309553 0.798602 -0.382893
H173  H     H_    0.140603 0.239778 0.825508 0.142841
H174  H     H_    0.150603 0.317811 0.742900 0.089994
H175  H     H_    0.225784 0.285994 0.796522 0.162764
O64   O     O_3   0.805865 0.423324 0.094844 -0.558760
C143  C     C_3   0.839501 0.426059 0.162792 -0.011609
H176  H     H_    0.813286 0.486380 0.199813 0.150140
H177  H     H_    0.894335 0.452549 0.158063 0.127332
C144  C     C_3   0.838549 0.307010 0.198136 -0.386033
H178  H     H_    0.870554 0.245092 0.167209 0.147161
H179  H     H_    0.860412 0.313270 0.253051 0.094600
H180  H     H_    0.784816 0.274433 0.202049 0.156457

loop_
_geom_bond_atom_site_label_1
_geom_bond_atom_site_label_2
_ccdc_geom_bond_type
C90   O38   A    
C125  H132  S    
C134  H153  S    
C82   C94   S    
C55   C59   S    
C83   C87   S    
C73   C93   S    
C42   C58   S    
C29   C89   S    
O57   C129  S    
C48   O32   A    
C75   C95   S    
C48   C120  S    
C128  H138  S    
C24   H8    S    
C57   C102  S    
Cr6   O26   S    
C91   O39   A    
C59   C104  S    
Cr8   O8    S    
C41   H29   S    
C144  H179  S    
C5    C6    S    
Cr10  O18   S    
C125  C126  S    
Cr11  O15   S    
C110  H46   S    
C22   C38   S    
C29   C33   S    
C30   C38   S    
C77   C100  S    
C44   H36   S    
C33   O63   S    
C131  C132  S    
C9    C13   S    
C11   C15   S    
C49   H54   S    
C12   C16   S    
C101  O5    A    
C102  O10   A    
C52   H55   S    
C21   H5    S    
C60   C103  S    
C122  H124  S    
C113  H1    S    
C74   H82   S    
C111  H47   S    
C23   H11   S    
C64   H60   S    
C109  C118  S    
C16   H116  S    
C50   C53   S    
C127  H136  S    
Cr6   O6    S    
C46   O34   A    
C7    C119  S    
C62   H58   S    
C138  H165  S    
C30   C34   S    
C72   H74   S    
C20   C28   S    
C123  H126  S    
C72   H104  S    
C100  O52   A    
C124  H130  S    
C141  H172  S    
C43   C44   S    
C1    O25   A    
C66   C82   S    
C7    H91   S    
C3    O27   A    
C11   C27   S    
C121  H121  S    
C58   C101  S    
C134  H155  S    
C140  H168  S    
C4    O28   A    
C141  C142  S    
C62   H62   S    
C17   H23   S    
C13   O57   S    
C32   C40   S    
C18   H24   S    
C87   O55   S    
C128  H140  S    
Cr6   O18   S    
C3    C26   S    
Cr3   O47   S    
C84   C88   S    
C86   H80   S    
Cr12  O20   S    
Cr1   O1    S    
C105  O41   A    
O64   C143  S    
Cr11  O39   S    
Cr1   O41   S    
C17   C25   S    
Cr9   O33   S    
C19   C35   S    
C136  H158  S    
C76   C96   S    
C32   C92   S    
C91   O3    A    
C75   H83   S    
C142  H173  S    
C98   O50   A    
C95   H95   S    
C67   H71   S    
C143  H176  S    
C21   H9    S    
C116  C120  S    
C12   H108  S    
O55   C125  S    
C5    C117  S    
C78   C99   S    
C73   C77   S    
C76   H88   S    
C104  O12   A    
C139  H166  S    
C75   C79   S    
C6    H90   S    
C14   O58   S    
C67   C83   S    
C132  H148  S    
C80   C97   S    
C68   H72   S    
C11   H111  S    
C69   C77   S    
C111  C112  S    
Cr10  O34   S    
C9    H109  S    
C52   H40   S    
C71   C79   S    
C137  H161  S    
C7    C8    S    
C135  H157  S    
C96   H96   S    
C15   O59   S    
Cr12  O16   S    
C135  H156  S    
C105  O13   A    
C39   H19   S    
C49   C57   S    
C40   H20   S    
C108  O16   A    
C69   H101  S    
C38   H14   S    
C51   H56   S    
C52   C60   S    
C131  H147  S    
C61   C77   S    
C12   H112  S    
C142  H175  S    
C93   H93   S    
C71   H103  S    
C110  C114  S    
C34   O64   S    
C43   C59   S    
C112  H48   S    
Cr5   O49   S    
C90   O2    A    
Cr7   O19   S    
Cr8   O20   S    
C22   H10   S    
C85   H79   S    
Cr3   O23   S    
Cr11  O11   S    
C130  H144  S    
C81   C105  S    
C62   C66   S    
C99   O47   A    
C10   C14   S    
C136  H160  S    
C94   H94   S    
C102  O6    A    
Cr10  O14   S    
C7    C116  S    
C61   C65   S    
Cr1   O45   S    
C71   H73   S    
C74   H86   S    
C114  H2    S    
C21   C37   S    
C66   H66   S    
C47   O31   A    
C113  C117  S    
C89   O37   A    
Cr5   O29   S    
C132  H150  S    
C31   C91   S    
C9    H105  S    
C46   O30   A    
Cr7   O7    S    
Cr8   O32   S    
C61   H61   S    
C112  C116  S    
C69   C85   S    
C94   H98   S    
C86   O54   S    
C142  H174  S    
C45   C117  S    
C21   C25   S    
Cr4   O20   S    
C62   C78   S    
C24   C28   S    
C8    H92   S    
C2    O26   A    
C42   H30   S    
C3    O23   A    
C43   H35   S    
C16   C32   S    
C129  C130  S    
C115  C119  S    
C4    C25   S    
C72   C80   S    
C144  H178  S    
C115  H3    S    
C64   H64   S    
C125  H131  S    
C82   C106  S    
C55   H44   S    
C66   H70   S    
C51   C59   S    
C133  H151  S    
C31   C39   S    
C88   H78   S    
C61   H57   S    
Cr7   O27   S    
Cr4   O44   S    
Cr8   O28   S    
C81   C85   S    
C98   O46   A    
C13   H113  S    
Cr1   O17   S    
C87   H77   S    
C41   C42   S    
C74   C94   S    
C18   C26   S    
C30   C90   S    
O59   C133  S    
C9    C25   S    
C127  H137  S    
C12   C28   S    
C13   C29   S    
C95   H99   S    
C67   H67   S    
C138  H164  S    
C107  O43   A    
C122  H125  S    
C123  H127  S    
C45   O33   A    
C46   C118  S    
C104  O8    A    
C124  H129  S    
C127  C128  S    
C1    C28   S    
C121  H122  S    
C2    C27   S    
Cr2   O42   S    
Cr3   O3    S    
Cr4   O48   S    
C52   C55   S    
Cr12  O12   S    
C123  C124  S    
C32   C36   S    
Cr3   O43   S    
C134  H154  S    
C64   C80   S    
C73   H81   S    
C17   C33   S    
Cr9   O9    S    
C110  C117  S    
C38   H18   S    
C33   H25   S    
C35   O61   S    
C128  H139  S    
C106  O14   A    
C121  C122  S    
C69   H75   S    
C40   H16   S    
C68   C84   S    
C76   C80   S    
C97   O45   A    
C144  H180  S    
C53   C57   S    
C19   H117  S    
C82   C86   S    
C17   H119  S    
C56   C60   S    
C50   C58   S    
C88   O56   S    
C76   H84   S    
C65   C81   S    
Cr6   O50   S    
C50   H38   S    
C24   H12   S    
C15   C31   S    
Cr10  O10   S    
C143  H177  S    
C71   C87   S    
C92   O4    A    
C15   H115  S    
C92   O40   A    
C31   C35   S    
C139  H167  S    
C64   C68   S    
Cr9   O13   S    
O63   C141  S    
C103  O7    A    
C37   H17   S    
C143  C144  S    
Cr2   O2    S    
C112  C119  S    
C137  H162  S    
C116  H4    S    
C56   H52   S    
C22   H6    S    
C133  H152  S    
C139  C140  S    
C141  H171  S    
C41   C57   S    
C47   O35   A    
C109  C110  S    
C49   H37   S    
C48   O36   A    
O54   C123  S    
Cr5   O25   S    
C44   C60   S    
C63   H59   S    
Cr6   O30   S    
C84   C108  S    
C126  H133  S    
Cr1   O21   S    
C137  C138  S    
Cr2   O18   S    
C20   C36   S    
C109  H45   S    
Cr11  O19   S    
O53   C121  S    
C22   C26   S    
C29   C37   S    
C140  H169  S    
C55   H51   S    
C44   H32   S    
C11   H107  S    
C42   H34   S    
C135  C136  S    
C43   H31   S    
C5    H89   S    
C101  O9    A    
C5    C114  S    
C70   C78   S    
O56   C127  S    
C79   C98   S    
C10   H110  S    
Cr4   O4    S    
C108  O44   A    
C63   C79   S    
C122  H123  S    
C20   H22   S    
C16   O60   S    
C54   H41   S    
C23   H7    S    
C136  H159  S    
Cr7   O51   S    
Cr8   O52   S    
C2    O22   A    
C70   H76   S    
C49   C54   S    
Cr5   O5    S    
Cr2   O22   S    
C126  H134  S    
C51   C56   S    
C84   C96   S    
Cr7   O31   S    
C8    C115  S    
C20   H118  S    
C18   H120  S    
C41   H33   S    
Cr12  O40   S    
C75   H87   S    
C100  O48   A    
C19   C27   S    
C74   C78   S    
C109  C113  S    
C10   C26   S    
C47   C119  S    
C36   O62   S    
Cr9   O37   S    
C132  H149  S    
C89   O1    A    
C14   C30   S    
C106  O42   A    
C72   C88   S    
C53   H42   S    
C129  H142  S    
C63   C67   S    
C45   O29   A    
C56   H43   S    
C4    O24   A    
Cr5   O17   S    
C111  C120  S    
Cr2   O46   S    
C126  H135  S    
C6    C113  S    
C53   H49   S    
C140  H170  S    
C81   C93   S    
C83   C95   S    
Cr10  O38   S    
C54   H50   S    
C73   H85   S    
C18   C34   S    
O62   C139  S    
C114  C118  S    
C65   H65   S    
C34   H26   S    
C10   H106  S    
C23   C27   S    
C107  O15   A    
C97   O49   A    
C70   C86   S    
C99   O51   A    
C8    C120  S    
C85   O53   S    
O61   C137  S    
C54   C58   S    
C130  H145  S    
C93   H97   S    
C103  O11   A    
C1    O21   A    
Cr3   O19   S    
C133  C134  S    
O60   C135  S    
C70   H102  S    
C68   H68   S    
C51   H39   S    
C138  H163  S    
Cr11  O35   S    
Cr4   O24   S    
C131  H146  S    
Cr12  O36   S    
C23   C39   S    
C24   C40   S    
C83   C107  S    
C63   H63   S    
C96   H100  S    
C124  H128  S    
C35   H27   S    
Cr9   O17   S    
C36   H28   S    
C19   H21   S    
C65   H69   S    
C129  H141  S    
C39   H15   S    
C130  H143  S    
C111  C115  S    
C37   H13   S    
O58   C131  S    
C50   H53   S    
C6    C118  S    
C14   H114  S    
