data_mof_unit_7811.cif
_audit_creation_date              2012-12-10T17:36:48-0500
_audit_creation_method            fapswitch 2.2
_symmetry_space_group_name_H-M    P1
_symmetry_Int_Tables_number       1
_space_group_crystal_system       triclinic
_cell_length_a                    10.67477
_cell_length_b                    12.443096
_cell_length_c                    13.46428
_cell_angle_alpha                 117.1274
_cell_angle_beta                  74.088085
_cell_angle_gamma                 100.288488
_cell_volume                      1527.69613043

loop_
_atom_site_label
_atom_site_type_symbol
_atom_type_description
_atom_site_fract_x
_atom_site_fract_y
_atom_site_fract_z
_atom_type_partial_charge
C1    C     C_R   0.503865 0.854989 0.289008 0.798995
C2    C     C_3   0.017092 0.024222 0.605006 -0.072116
C3    C     C_3   0.932568 0.917231 0.533623 -0.008219
C4    C     C_3   0.872145 0.008393 0.515504 -0.076679
C5    C     C_R   0.394092 0.258923 0.032053 -0.007033
C6    C     C_R   0.475113 0.224248 0.834235 -0.079632
C7    C     C_R   0.575173 0.807864 0.086138 -0.160453
C8    C     C_R   0.625070 0.725647 0.976071 -0.132780
C9    C     C_R   0.602633 0.602745 0.945676 -0.107047
C10   C     C_R   0.514362 0.557640 0.019649 0.096685
C11   C     C_R   0.459619 0.641490 0.133819 0.049501
C12   C     C_R   0.737507 0.004951 0.508283 0.870108
C13   C     C_R   0.484513 0.430404 0.983844 0.078699
C14   C     C_R   0.415119 0.385406 0.064477 0.075017
C15   C     C_R   0.357337 0.466553 0.172720 -0.156919
C16   C     C_R   0.372089 0.590694 0.206500 -0.018140
C17   C     C_R   0.515256 0.346533 0.868455 -0.190257
C18   C     C_R   0.420876 0.179958 0.916192 -0.208944
C19   C     C_R   0.503545 0.768247 0.168799 -0.113248
C20   C     C_R   0.760732 0.366144 0.396095 -0.111895
C21   C     C_R   0.316963 0.762266 0.643811 0.123359
C22   C     C_R   0.291773 0.683880 0.694763 -0.239179
C23   C     C_R   0.485403 0.144238 0.712536 0.802353
C24   C     C_R   0.376568 0.593042 0.658847 -0.097957
C25   C     C_R   0.477221 0.568103 0.557534 -0.103861
C26   C     C_R   0.509233 0.658344 0.515223 0.222885
C27   C     C_R   0.550961 0.460179 0.499583 -0.088780
C28   C     C_R   0.682356 0.467059 0.440319 0.029783
C29   C     C_R   0.725631 0.566921 0.414766 -0.104266
C30   C     C_R   0.633182 0.647213 0.433083 -0.071528
C31   C     C_R   0.498446 0.343857 0.493526 0.163658
C32   C     C_R   0.701772 0.256125 0.389659 0.047539
C33   C     C_R   0.260589 0.999519 0.497294 0.786460
C34   C     C_3   0.978474 0.991320 0.407392 -0.218338
C35   C     C_3   0.040231 0.899732 0.424727 -0.030051
C36   C     C_3   0.124158 0.004142 0.496716 -0.078738
C37   C     C_3   0.063703 0.096214 0.478899 -0.110278
C38   C     C_3   0.954768 0.115435 0.587843 -0.185873
Cu1   Cu    Cu3+1 0.529830 0.098270 0.475420 0.974359
Cu2   Cu    Cu3+1 0.470170 0.901730 0.524580 0.997113
H1    H     H_    0.563307 0.374627 0.802180 0.196522
H2    H     H_    0.604808 0.902620 0.109146 0.170609
H3    H     H_    0.658687 0.544806 0.863846 0.142142
H4    H     H_    0.689181 0.757360 0.915830 0.151867
H5    H     H_    0.759726 0.178426 0.352476 0.143061
H6    H     H_    0.255690 0.837113 0.677702 0.154852
H7    H     H_    0.960064 0.979650 0.325535 0.163942
H8    H     H_    0.212226 0.701378 0.769240 0.182951
H9    H     H_    0.114504 0.164380 0.447712 0.184762
H10   H     H_    0.918194 0.203314 0.656156 0.160332
H11   H     H_    0.397418 0.083794 0.889820 0.196673
H12   H     H_    0.292028 0.432488 0.230905 0.180108
N1    N     N_R   0.575030 0.246270 0.438190 -0.218235
N2    N     N_R   0.425760 0.754330 0.561190 -0.213727
O1    O     O_R   0.537510 0.972500 0.318130 -0.576029
O2    O     O_R   0.487140 0.806530 0.359650 -0.593377
O3    O     O_R   0.708330 0.082950 0.479220 -0.610565
O4    O     O_R   0.657960 0.916980 0.520740 -0.527227
O5    O     O_R   0.512860 0.193470 0.640350 -0.577614
O6    O     O_R   0.462490 0.027500 0.681870 -0.588171
O7    O     O_R   0.342040 0.083020 0.479260 -0.579375
O8    O     O_R   0.291670 0.917050 0.520780 -0.580976
C39   C     C_1   0.080870 0.796633 0.314603 0.328309
N3    N     N_1   0.111460 0.717701 0.225299 -0.275237
C40   C     C_1   0.289763 0.653187 0.317085 0.315144
N4    N     N_1   0.220807 0.694399 0.406214 -0.177016
C41   C     C_2   0.855915 0.565545 0.336967 0.863255
O9    O     O_2   0.952300 0.609802 0.376896 -0.566490
O10   O     O_R   0.868646 0.504018 0.218403 -0.728001
H13   H     H_    0.962583 0.503374 0.174700 0.351877
C42   C     C_1   0.901940 0.369400 0.362743 0.286296
N5    N     N_1   0.014759 0.370361 0.336153 -0.243633
C43   C     C_1   0.362148 0.325213 0.538647 0.340392
N6    N     N_1   0.252407 0.313691 0.577275 -0.278973
C44   C     C_2   0.372017 0.543447 0.741565 0.885658
O11   O     O_2   0.268222 0.531168 0.803334 -0.527936
O12   O     O_R   0.485039 0.511962 0.751759 -0.776208
H14   H     H_    0.568318 0.542555 0.712126 0.283428
C45   C     C_2   0.657242 0.671544 0.332222 0.918905
O13   O     O_2   0.734409 0.753871 0.323833 -0.616115
O14   O     O_R   0.623097 0.578400 0.234076 -0.742373
H15   H     H_    0.673743 0.587098 0.162245 0.341885
C46   C     C_1   0.041268 0.047725 0.715884 0.276195
N7    N     N_1   0.060550 0.066144 0.802926 -0.255847
C47   C     C_2   0.871757 0.830811 0.586017 0.865971
O15   O     O_2   0.941841 0.768179 0.593253 -0.553835
O16   O     O_R   0.739068 0.831630 0.637549 -0.758784
H16   H     H_    0.711591 0.772482 0.673323 0.317283
C48   C     C_2   0.343743 0.205642 0.115627 0.834586
O17   O     O_2   0.376330 0.252162 0.207484 -0.593462
O18   O     O_R   0.263330 0.098913 0.087010 -0.756962
H17   H     H_    0.236686 0.070732 0.150080 0.334858

loop_
_geom_bond_atom_site_label_1
_geom_bond_atom_site_label_2
_ccdc_geom_bond_type
C22   H8    S    
O16   H16   S    
Cu2   O6    S    
C3    C47   S    
C34   C37   S    
C32   H5    S    
C35   C36   S    
C34   H7    S    
O14   H15   S    
C7    C8    A    
O12   H14   S    
C23   O5    A    
C11   C19   A    
C29   C30   A    
C28   C29   A    
C1    O2    A    
C21   N2    A    
C31   C43   S    
C15   C16   A    
Cu1   O3    S    
C33   C36   S    
Cu2   O8    S    
C34   C35   S    
C43   N6    T    
C7    H2    S    
C29   C41   S    
Cu1   O1    S    
C33   O8    A    
Cu2   O2    S    
C20   C42   S    
C4    C12   S    
C9    C10   A    
C12   O4    A    
C21   C22   A    
C2    C46   S    
Cu1   O7    S    
C26   N2    A    
C18   H11   S    
C47   O16   S    
C23   O6    A    
C6    C18   A    
C4    C34   S    
C9    H3    S    
Cu2   O4    S    
C27   C31   A    
C41   O9    D    
C24   C25   A    
Cu1   Cu2   S    
C45   O14   S    
C8    C9    A    
C5    C18   A    
C20   C28   A    
C25   C26   A    
C47   O15   D    
C1    C19   S    
C45   O13   D    
C41   O10   S    
C44   O11   D    
C37   C38   S    
C37   H9    S    
C11   C16   A    
C2    C38   S    
C46   N7    T    
C3    C35   S    
Cu1   O5    S    
C15   H12   S    
C31   N1    A    
C44   O12   S    
C5    C14   A    
C12   O3    A    
C4    C38   S    
C26   C30   A    
C7    C19   A    
C22   C24   A    
C48   O18   S    
C30   C45   S    
C3    C4    S    
C32   N1    A    
O18   H17   S    
C21   H6    S    
C20   C32   A    
C2    C36   S    
C6    C17   A    
C36   C37   S    
C8    H4    S    
C10   C13   A    
C24   C44   S    
C38   H10   S    
C25   C27   A    
Cu2   N2    S    
C13   C17   A    
C2    C3    S    
C1    O1    A    
C42   N5    T    
Cu1   N1    S    
C6    C23   S    
O10   H13   S    
C17   H1    S    
C10   C11   A    
C39   N3    T    
C33   O7    A    
C40   N4    T    
C27   C28   A    
C14   C15   A    
C35   C39   S    
C16   C40   S    
C48   O17   D    
C13   C14   A    
C5    C48   S    
