data_mof_unit_35062.cif
_audit_creation_date              2012-12-10T18:10:21-0500
_audit_creation_method            fapswitch 2.2
_symmetry_space_group_name_H-M    P1
_symmetry_Int_Tables_number       1
_space_group_crystal_system       triclinic
_cell_length_a                    11.119271
_cell_length_b                    9.879644
_cell_length_c                    15.832139
_cell_angle_alpha                 89.160725
_cell_angle_beta                  89.71587
_cell_angle_gamma                 92.423362
_cell_volume                      1737.46179792

loop_
_atom_site_label
_atom_site_type_symbol
_atom_type_description
_atom_site_fract_x
_atom_site_fract_y
_atom_site_fract_z
_atom_type_partial_charge
C1    C     C_R   0.260139 0.495658 0.507084 0.830596
C2    C     C_3   0.637529 0.462363 0.952377 -0.179970
C3    C     C_3   0.634295 0.478957 0.054672 -0.214549
C4    C     C_1   0.504567 0.497110 0.824097 -0.011779
C5    C     C_1   0.492258 0.500024 0.176681 0.070392
C6    C     C_1   0.493679 0.501824 0.252218 -0.012705
C7    C     C_3   0.076596 0.615726 0.562644 -0.261589
C8    C     C_3   0.046203 0.358809 0.560006 -0.219992
C9    C     C_3   0.940210 0.641337 0.542451 -0.243615
C10   C     C_3   0.909153 0.386758 0.571100 -0.293856
C11   C     C_3   0.069426 0.494953 0.423962 -0.413188
C12   C     C_3   0.118793 0.487670 0.516415 -0.042517
C13   C     C_3   0.874843 0.505574 0.511177 -0.042771
C14   C     C_R   0.497859 0.500705 0.341639 0.810882
C15   C     C_3   0.929509 0.479291 0.422224 -0.408950
C16   C     C_3   0.592412 0.082518 0.562064 -0.161645
C17   C     C_3   0.580214 0.920559 0.569658 -0.152991
C18   C     C_3   0.376695 0.078222 0.521352 -0.139491
C19   C     C_3   0.372653 0.911792 0.506990 -0.076558
C20   C     C_3   0.539953 0.084307 0.418847 -0.240969
C21   C     C_3   0.556959 0.923811 0.423588 -0.256421
C22   C     C_R   0.738070 0.503051 0.502341 0.785358
C23   C     C_R   0.499569 0.499290 0.658651 0.953491
C24   C     C_3   0.449305 0.632714 0.046334 -0.199347
C25   C     C_3   0.416435 0.375108 0.047629 -0.167270
C26   C     C_3   0.409122 0.392464 0.949873 -0.412041
C27   C     C_3   0.471305 0.637683 0.949011 -0.388363
C28   C     C_1   0.501666 0.497805 0.748438 0.000152
C29   C     C_3   0.496952 0.495965 0.083901 -0.017338
C30   C     C_3   0.508036 0.496978 0.916872 0.093286
Cu1   Cu    Cu3+1 0.499860 0.642410 0.500040 1.015815
Cu2   Cu    Cu3+1 0.499860 0.357590 0.500040 1.008206
H1    H     H_    0.894577 0.551565 0.374624 0.190422
H2    H     H_    0.901760 0.375651 0.401104 0.199085
H3    H     H_    0.681868 0.102397 0.530264 0.133478
H4    H     H_    0.672349 0.888953 0.553761 0.158910
H5    H     H_    0.123565 0.700747 0.530584 0.184937
H6    H     H_    0.045306 0.284336 0.508592 0.198780
N1    N     N_3   0.500250 0.143650 0.501830 -0.222453
N2    N     N_3   0.500250 0.856350 0.501830 -0.209767
O1    O     O_R   0.317570 0.620260 0.500050 -0.594036
O2    O     O_R   0.317570 0.379740 0.500050 -0.544256
O3    O     O_R   0.499890 0.620310 0.379470 -0.552265
O4    O     O_R   0.499890 0.379690 0.379470 -0.544007
O5    O     O_R   0.682190 0.620260 0.500020 -0.599623
O6    O     O_R   0.682190 0.379740 0.500020 -0.599937
O7    O     O_R   0.499870 0.620210 0.620600 -0.528724
O8    O     O_R   0.499870 0.379790 0.620600 -0.551283
H7    H     H_    0.391300 0.671165 0.913879 0.220974
H8    H     H_    0.320284 0.429385 0.930209 0.255237
H9    H     H_    0.941791 0.709129 0.485230 0.175918
H10   H     H_    0.861912 0.291322 0.550341 0.164363
H11   H     H_    0.098859 0.593098 0.393365 0.210807
H12   H     H_    0.107342 0.413946 0.385191 0.188593
C31   C     C_2   0.624248 0.145199 0.647324 0.940850
O9    O     O_2   0.729940 0.147027 0.668675 -0.564842
O10   O     O_R   0.538464 0.174269 0.708148 -0.712887
H13   H     H_    0.575014 0.203907 0.763671 0.353846
C32   C     C_2   0.572487 0.864617 0.660915 0.976210
O11   O     O_2   0.647042 0.786575 0.684604 -0.565496
O12   O     O_R   0.492533 0.908319 0.721429 -0.666034
H14   H     H_    0.502215 0.863199 0.778843 0.343505
C33   C     C_2   0.341119 0.123375 0.612895 0.963235
O13   O     O_2   0.333962 0.047415 0.673905 -0.520544
O14   O     O_R   0.317682 0.255300 0.629648 -0.719591
H15   H     H_    0.325729 0.276256 0.692039 0.355084
C34   C     C_2   0.296470 0.851760 0.579218 0.841017
O15   O     O_2   0.336971 0.777232 0.632254 -0.516647
O16   O     O_R   0.180775 0.900580 0.591309 -0.699666
H16   H     H_    0.149215 0.886977 0.650872 0.390133
H17   H     H_    0.479937 0.104464 0.365746 0.229723
H18   H     H_    0.530142 0.877208 0.363794 0.228637
H19   H     H_    0.626182 0.135752 0.397797 0.163164
H20   H     H_    0.655154 0.905909 0.420509 0.143916
C35   C     C_2   0.278864 0.133815 0.463233 0.880362
O17   O     O_2   0.173573 0.115710 0.483633 -0.546401
O18   O     O_R   0.304669 0.198350 0.385641 -0.729336
H21   H     H_    0.229847 0.223027 0.353554 0.342973
C36   C     C_2   0.295587 0.865828 0.427431 0.817767
O19   O     O_2   0.186812 0.880620 0.425916 -0.559010
O20   O     O_R   0.343379 0.797626 0.359536 -0.734807
H22   H     H_    0.281508 0.771471 0.315152 0.358888
C37   C     C_2   0.319217 0.657312 0.070593 0.887582
O21   O     O_2   0.294729 0.681661 0.144068 -0.598350
O22   O     O_R   0.227608 0.653981 0.010256 -0.733295
H23   H     H_    0.145805 0.671731 0.035358 0.362861
C38   C     C_2   0.293240 0.351956 0.089473 0.882737
O23   O     O_2   0.287019 0.317435 0.163929 -0.574123
O24   O     O_R   0.187114 0.363677 0.043280 -0.713614
H24   H     H_    0.112104 0.344754 0.078919 0.371649
H25   H     H_    0.460961 0.279127 0.060173 0.220887
H26   H     H_    0.500468 0.720213 0.073741 0.168585
H27   H     H_    0.415385 0.292736 0.918976 0.206295
H28   H     H_    0.542056 0.716916 0.934048 0.225089
C39   C     C_2   0.709646 0.603621 0.087221 0.842757
O25   O     O_2   0.711289 0.712681 0.049496 -0.589103
O26   O     O_R   0.773477 0.594061 0.163102 -0.754749
H29   H     H_    0.817508 0.682197 0.178417 0.343912
C40   C     C_2   0.692168 0.356541 0.097873 0.923257
O27   O     O_2   0.797492 0.334307 0.082387 -0.523117
O28   O     O_R   0.628469 0.271880 0.155670 -0.764092
H30   H     H_    0.678631 0.196858 0.179168 0.341775
C41   C     C_2   0.739335 0.554798 0.913475 0.906602
O29   O     O_2   0.719115 0.642097 0.860510 -0.567489
O30   O     O_R   0.858072 0.537269 0.939236 -0.700766
H31   H     H_    0.917677 0.603802 0.910604 0.352719
C42   C     C_2   0.665385 0.316803 0.923873 0.829829
O31   O     O_2   0.739288 0.299443 0.867882 -0.548180
O32   O     O_R   0.606737 0.202560 0.960853 -0.777171
H32   H     H_    0.632883 0.114469 0.935908 0.362113
C43   C     C_2   0.120128 0.615769 0.655256 0.989057
O33   O     O_2   0.213202 0.560759 0.673186 -0.555910
O34   O     O_R   0.064954 0.688210 0.718550 -0.741538
H33   H     H_    0.106531 0.680855 0.775213 0.359682
C44   C     C_2   0.084604 0.273518 0.635284 0.981794
O35   O     O_2   0.064131 0.150913 0.633658 -0.502198
O36   O     O_R   0.126987 0.330094 0.710261 -0.687103
H34   H     H_    0.135494 0.260394 0.757338 0.352500
C45   C     C_2   0.882053 0.728355 0.607518 0.951190
O37   O     O_2   0.880205 0.850707 0.594819 -0.546738
O38   O     O_R   0.845217 0.675141 0.685755 -0.669644
H35   H     H_    0.843148 0.746896 0.730861 0.406284
C46   C     C_2   0.860111 0.408553 0.660521 1.004038
O39   O     O_2   0.751526 0.411195 0.671350 -0.577957
O40   O     O_R   0.934405 0.434261 0.729399 -0.678489
H36   H     H_    0.888410 0.450974 0.783179 0.390967

loop_
_geom_bond_atom_site_label_1
_geom_bond_atom_site_label_2
_ccdc_geom_bond_type
C38   O23   D    
C33   O14   S    
C35   O17   D    
C18   C35   S    
Cu2   O8    S    
C39   O25   D    
C9    H9    S    
C24   C27   S    
C31   O9    D    
C10   H10   S    
O26   H29   S    
C46   O39   D    
O18   H21   S    
O28   H30   S    
Cu1   O3    S    
C24   C37   S    
C26   H8    S    
C16   H3    S    
C5    C6    T    
C18   C33   S    
C46   O40   S    
C44   O35   D    
C2    C42   S    
C25   C38   S    
Cu1   N2    S    
C18   C19   S    
Cu2   N1    S    
C3    C29   S    
C9    C13   S    
C24   C29   S    
C8    C44   S    
C11   C15   S    
C43   O33   D    
C16   C17   S    
C44   O36   S    
C20   H19   S    
C42   O31   D    
C20   H17   S    
C19   C34   S    
C17   H4    S    
C15   H2    S    
C11   H11   S    
C26   H27   S    
C32   O11   D    
Cu1   O7    S    
C27   C30   S    
C42   O32   S    
O12   H14   S    
C1    C12   S    
C8    H6    S    
C24   H26   S    
C4    C28   T    
O20   H22   S    
C5    C29   S    
C45   O38   S    
C25   C29   S    
C7    C12   S    
C25   H25   S    
C23   O7    A    
C21   H18   S    
C34   O15   D    
C43   O34   S    
C10   C46   S    
C36   O20   S    
C20   N1    S    
C25   C26   S    
O22   H23   S    
C21   H20   S    
C33   O13   D    
C34   O16   S    
C17   N2    S    
C18   N1    S    
C6    C14   S    
C37   O21   D    
C8    C12   S    
C7    H5    S    
C41   O30   S    
C23   C28   S    
C19   C36   S    
C35   O18   S    
O38   H35   S    
C11   H12   S    
C17   C32   S    
C1    O1    A    
C32   O12   S    
C40   O28   S    
C26   C30   S    
C31   O10   S    
O40   H36   S    
C9    C45   S    
C14   O4    A    
O34   H33   S    
C7    C9    S    
C23   O8    A    
Cu1   O1    S    
C22   O6    A    
Cu2   O6    S    
Cu1   Cu2   S    
C10   C13   S    
C45   O37   D    
C39   O26   S    
O30   H31   S    
C40   O27   D    
C37   O22   S    
C2    C30   S    
C13   C15   S    
C2    C3    S    
C16   C31   S    
O36   H34   S    
O10   H13   S    
C21   N2    S    
C2    C41   S    
C7    C43   S    
C13   C22   S    
O16   H16   S    
C19   N2    S    
C16   N1    S    
C36   O19   D    
C3    C40   S    
C1    O2    A    
C22   O5    A    
C20   C21   S    
Cu2   O4    S    
C8    C10   S    
O14   H15   S    
Cu1   O5    S    
C41   O29   D    
C38   O24   S    
Cu2   O2    S    
C27   H28   S    
C3    C39   S    
O24   H24   S    
O32   H32   S    
C15   H1    S    
C4    C30   S    
C27   H7    S    
C11   C12   S    
C14   O3    A    
