data_mof_unit_30891.cif
_audit_creation_date              2013-03-05T15:43:39-0500
_audit_creation_method            fapswitch 2.2
_symmetry_space_group_name_H-M    P1
_symmetry_Int_Tables_number       1
_space_group_crystal_system       triclinic
_cell_length_a                    15.862206
_cell_length_b                    10.814822
_cell_length_c                    9.746958
_cell_angle_alpha                 86.510651
_cell_angle_beta                  89.453039
_cell_angle_gamma                 91.892773
_cell_volume                      1667.93845549

loop_
_atom_site_label
_atom_site_type_symbol
_atom_site_description
_atom_site_fract_x
_atom_site_fract_y
_atom_site_fract_z
_atom_type_partial_charge
O1    O     O_R   0.500010 0.321960 0.617040 -0.569388
O2    O     O_R   0.499990 0.321920 0.382900 -0.587243
C1    C     C_R   0.507272 0.265513 0.504378 0.843253
O3    O     O_R   0.379450 0.500030 0.617120 -0.585190
O4    O     O_R   0.379420 0.499980 0.382980 -0.580353
C2    C     C_R   0.340383 0.497149 0.500986 0.820065
Cu1   Cu    Cu3+1 0.500020 0.500020 0.638630 0.928794
Cu2   Cu    Cu3+1 0.499980 0.499980 0.361370 0.946294
O5    O     O_R   0.500010 0.678080 0.617100 -0.570591
O6    O     O_R   0.499990 0.678040 0.382960 -0.551869
O7    O     O_R   0.620580 0.500020 0.617020 -0.579170
O8    O     O_R   0.620550 0.499970 0.382880 -0.577292
C3    C     C_R   0.499957 0.734852 0.495630 0.876076
C4    C     C_R   0.659472 0.502109 0.498992 0.819770
C5    C     C_3   0.041734 0.396622 0.595520 -0.022262
C6    C     C_3   0.048996 0.474849 0.351720 -0.207910
C7    C     C_3   0.951428 0.477115 0.349668 -0.504161
H1    H     H_    0.050933 0.306895 0.548350 0.111895
H2    H     H_    0.060557 0.374687 0.341485 0.129673
H3    H     H_    0.924478 0.384096 0.330664 0.168301
H4    H     H_    0.929998 0.530298 0.258184 0.173055
C8    C     C_1   0.748776 0.508606 0.495630 -0.182115
C9    C     C_3   0.083166 0.506577 0.499182 0.185721
C10   C     C_3   0.945540 0.420417 0.607847 -0.154554
C11   C     C_3   0.916752 0.518717 0.489802 0.159367
C12   C     C_3   0.953965 0.656928 0.513743 0.141430
C13   C     C_3   0.054026 0.639030 0.554105 0.118068
C14   C     C_1   0.824202 0.514473 0.491506 -0.036941
C15   C     C_1   0.175281 0.496650 0.502953 -0.091307
C16   C     C_1   0.250796 0.494730 0.503136 -0.197275
H5    H     H_    0.937456 0.464047 0.706555 0.169007
C17   C     C_2   0.566539 0.935702 0.429573 0.148761
C18   C     C_2   0.499764 0.868173 0.482178 -0.325400
H6    H     H_    0.441833 0.911032 0.510565 0.111067
C19   C     C_2   0.561865 0.072713 0.418029 -0.068712
C20   C     C_2   0.526112 0.133877 0.520894 -0.063306
C21   C     C_2   0.448900 0.429727 0.928942 0.200927
N1    N     N_2   0.499090 0.498660 0.846910 -0.287240
H7    H     H_    0.555776 0.527108 0.886388 0.191497
C22   C     C_2   0.460623 0.417142 0.081912 -0.053538
N2    N     N_2   0.499070 0.498630 0.153040 -0.234910
H8    H     H_    0.432713 0.335130 0.136322 0.161646
C23   C     C_R   0.891138 0.299444 0.623508 0.111092
C24   C     C_R   0.831304 0.283952 0.731926 -0.153754
C25   C     C_R   0.777021 0.179220 0.744576 -0.128682
C26   C     C_R   0.781236 0.088321 0.649692 -0.125555
C27   C     C_R   0.840533 0.101038 0.542986 -0.160547
C28   C     C_R   0.895776 0.204824 0.530299 -0.151163
H9    H     H_    0.825379 0.354222 0.805646 0.107668
H10   H     H_    0.731037 0.168719 0.827305 0.133661
H11   H     H_    0.738511 0.007999 0.658770 0.128033
H12   H     H_    0.842969 0.030451 0.469474 0.157338
H13   H     H_    0.941775 0.209594 0.447766 0.102203
N3    N     N_3   0.080096 0.381678 0.732223 -0.560650
H14   H     H_    0.045707 0.312591 0.790587 0.216598
H15   H     H_    0.140650 0.347759 0.721687 0.215647
C29   C     C_R   0.937130 0.753719 0.388942 0.135383
C30   C     C_R   0.873473 0.736211 0.288530 -0.172897
C31   C     C_R   0.861159 0.823372 0.179212 -0.163859
C32   C     C_R   0.906530 0.935556 0.171371 -0.123450
C33   C     C_R   0.960285 0.963376 0.277466 -0.159568
C34   C     C_R   0.971355 0.876593 0.387501 -0.146754
H16   H     H_    0.831919 0.656120 0.288963 0.137423
H17   H     H_    0.815497 0.803909 0.101030 0.125330
H18   H     H_    0.896659 0.003278 0.087137 0.130484
H19   H     H_    0.990338 0.054664 0.278180 0.124566
H20   H     H_    0.001586 0.911345 0.475116 0.141077
N4    N     N_3   0.640762 0.875515 0.383965 -0.561762
H21   H     H_    0.686232 0.941400 0.346394 0.221620
H22   H     H_    0.667461 0.830415 0.470177 0.201633
C35   C     C_R   0.600044 0.140607 0.294415 0.133051
C36   C     C_R   0.670389 0.221319 0.307857 -0.122323
C37   C     C_R   0.703560 0.290910 0.193181 -0.106693
C38   C     C_R   0.666951 0.280073 0.064503 -0.130232
C39   C     C_R   0.598197 0.197818 0.049824 -0.170415
C40   C     C_R   0.564733 0.128100 0.164475 -0.124104
H23   H     H_    0.698321 0.232012 0.407540 0.126450
H24   H     H_    0.756921 0.354378 0.204462 0.116392
H25   H     H_    0.691598 0.335903 0.976322 0.117006
H26   H     H_    0.569828 0.189978 0.950024 0.150023
H27   H     H_    0.509977 0.067321 0.153002 0.130520
N5    N     N_3   0.517091 0.078161 0.658994 -0.614284
H28   H     H_    0.561547 0.010453 0.679658 0.230065
H29   H     H_    0.455789 0.041529 0.674787 0.212265
N6    N     N_3   0.379098 0.360134 0.877017 -0.621207
H30   H     H_    0.399804 0.303612 0.801718 0.263261
H31   H     H_    0.334750 0.421158 0.837051 0.239927
C41   C     C_R   0.513157 0.622185 0.095867 0.306622
C42   C     C_R   0.445441 0.694561 0.050998 -0.144244
C43   C     C_R   0.460584 0.814609 0.992797 -0.160586
C44   C     C_R   0.542998 0.864068 0.981791 -0.114845
C45   C     C_R   0.610133 0.794981 0.032136 -0.143283
C46   C     C_R   0.595317 0.674682 0.090186 -0.146147
H32   H     H_    0.381455 0.657260 0.059571 0.119878
H33   H     H_    0.408506 0.869130 0.955860 0.128360
H34   H     H_    0.554804 0.956340 0.935250 0.129794
H35   H     H_    0.673617 0.834569 0.025146 0.127700
H36   H     H_    0.647861 0.621239 0.127411 0.131359
C47   C     C_R   0.095648 0.530787 0.222981 0.114255
C48   C     C_R   0.170427 0.475613 0.181502 -0.143643
C49   C     C_R   0.218659 0.527335 0.070882 -0.122883
C50   C     C_R   0.193071 0.634205 0.998050 -0.135615
C51   C     C_R   0.118206 0.688388 0.034662 -0.142408
C52   C     C_R   0.069432 0.636775 0.145271 -0.139896
H37   H     H_    0.192696 0.393459 0.237062 0.121130
H38   H     H_    0.276594 0.485129 0.043408 0.137881
H39   H     H_    0.231218 0.674940 0.913244 0.124625
H40   H     H_    0.098297 0.771476 0.978217 0.122925
H41   H     H_    0.013675 0.683360 0.171199 0.153937
N7    N     N_3   0.060410 0.621177 0.705876 -0.568444
H42   H     H_    0.033030 0.687915 0.762568 0.197616
H43   H     H_    0.123747 0.617119 0.734459 0.252025
C53   C     C_R   0.115852 0.753895 0.514183 0.080123
C54   C     C_R   0.124417 0.853654 0.603253 -0.187481
C55   C     C_R   0.181292 0.953668 0.575059 -0.139940
C56   C     C_R   0.233093 0.957458 0.459105 -0.128009
C57   C     C_R   0.228265 0.860891 0.371582 -0.135804
C58   C     C_R   0.171312 0.760886 0.399197 -0.123671
H44   H     H_    0.084499 0.860016 0.692374 0.109367
H45   H     H_    0.184766 0.028880 0.643421 0.120189
H46   H     H_    0.277446 0.034631 0.437703 0.115608
H47   H     H_    0.269957 0.862128 0.282830 0.130958
H48   H     H_    0.175837 0.688051 0.332364 0.159239
N8    N     N_3   0.905583 0.707291 0.627173 -0.611017
H49   H     H_    0.932496 0.791405 0.655438 0.203584
H50   H     H_    0.898366 0.647331 0.714533 0.215984

loop_
_geom_bond_atom_site_label_1
_geom_bond_atom_site_label_2
_geom_bond_distance
_ccdc_geom_bond_type
C24   H9    1.082849 S    
C5    H1    1.112069 S    
C49   C50   1.393243 A    
C37   C38   1.396891 A    
C19   C20   1.363484 D    
C39   C40   1.399547 A    
C54   C55   1.397849 A    
C43   C44   1.396672 A    
C29   C34   1.417996 A    
N6    H30   1.040900 S    
C11   C14   1.467157 S    
Cu1   O7    1.921913 S    
C31   H17   1.081480 S    
C21   N1    1.305745 D    
C34   H20   1.065580 S    
O4    C2    1.299300 A    
C9    C15   1.469265 S    
C21   N6    1.431971 S    
C21   C22   1.502809 S    
C52   H41   1.067979 S    
O7    C4    1.298811 A    
C55   C56   1.388729 A    
C30   H16   1.070756 S    
C7    H3    1.106725 S    
C56   C57   1.388782 A    
C42   H32   1.080324 S    
O5    C3    1.300118 A    
N7    H42   1.039028 S    
C45   C46   1.398449 A    
C36   H23   1.082686 S    
C44   H34   1.080551 S    
C26   C27   1.393089 A    
C33   H19   1.082493 S    
C27   C28   1.399665 A    
C13   N7    1.485012 S    
C20   N5    1.444748 S    
N4    H21   1.044633 S    
C37   H24   1.082697 S    
C51   H40   1.082474 S    
C9    C13   1.638449 S    
C39   H26   1.082495 S    
C54   H44   1.076970 S    
C17   N4    1.443364 S    
C22   H8    1.084540 S    
C47   C52   1.411494 A    
C19   C35   1.485458 S    
C31   C32   1.387711 A    
C8    C14   1.196168 T    
C50   C51   1.394366 A    
C12   N8    1.480780 S    
O3    Cu1   1.925953 S    
C45   H35   1.081034 S    
N6    H31   1.042483 S    
C28   H13   1.078629 S    
N3    H15   1.045781 S    
C56   H46   1.082709 S    
C17   C19   1.483530 S    
Cu1   Cu2   2.702473 S    
C10   C11   1.598659 S    
O3    C2    1.297197 A    
C38   C39   1.398432 A    
C44   C45   1.396789 A    
C41   C46   1.403478 A    
C6    C7    1.548935 S    
C11   C12   1.619843 S    
C25   C26   1.392835 A    
C26   H11   1.082742 S    
C7    H4    1.094418 S    
C32   C33   1.387345 A    
O1    C1    1.294460 A    
C57   H47   1.083029 S    
C5    N3    1.472263 S    
C3    C18   1.439934 S    
C15   C16   1.198721 T    
C47   C48   1.411890 A    
Cu2   O8    1.925955 S    
C18   H6    1.083833 S    
C48   H37   1.083174 S    
C50   H39   1.082593 S    
Cu2   N2    2.031711 S    
C13   C53   1.584214 S    
N4    H22   1.045903 S    
C22   N2    1.294663 D    
C2    C16   1.420349 S    
O8    C4    1.295418 A    
C32   H18   1.082515 S    
C55   H45   1.082756 S    
C6    C9    1.593735 S    
N5    H29   1.044243 S    
C38   H25   1.082107 S    
C23   C24   1.412221 A    
C12   C13   1.653590 S    
C35   C40   1.401957 A    
C24   C25   1.398604 A    
N8    H50   1.041472 S    
C53   C54   1.429237 A    
C23   C28   1.412372 A    
C49   H38   1.078172 S    
Cu1   O5    1.924353 S    
N2    C41   1.425913 S    
N3    H14   1.046345 S    
C5    C10   1.560478 S    
O1    Cu1   1.949837 S    
O2    Cu2   1.924355 S    
C36   C37   1.397441 A    
O6    C3    1.290608 A    
C43   H33   1.082450 S    
C40   H27   1.082614 S    
O4    Cu2   1.921914 S    
C6    C47   1.532463 S    
C27   H12   1.079659 S    
C1    C20   1.463914 S    
C7    C11   1.564424 S    
C17   C18   1.345775 D    
C4    C8    1.415947 S    
O2    C1    1.306434 A    
C30   C31   1.398539 A    
C10   H5    1.105274 S    
C35   C36   1.405893 A    
C57   C58   1.397737 A    
C29   C30   1.429024 A    
N1    H7    1.026627 S    
C25   H10   1.080414 S    
C6    H2    1.114853 S    
C5    C9    1.590080 S    
C48   C49   1.394033 A    
Cu1   N1    2.029164 S    
C58   H48   1.056064 S    
C33   C34   1.397826 A    
C12   C29   1.586329 S    
N7    H43   1.046744 S    
C53   C58   1.414987 A    
C41   C42   1.407306 A    
Cu2   O6    1.949835 S    
N5    H28   1.045406 S    
C51   C52   1.398110 A    
C10   C23   1.542149 S    
C42   C43   1.397222 A    
C46   H36   1.082796 S    
N8    H49   1.045347 S    
