data_mof_unit_16441.cif
_audit_creation_date              2012-12-10T19:15:40-0500
_audit_creation_method            fapswitch 2.2
_symmetry_space_group_name_H-M    P1
_symmetry_Int_Tables_number       1
_space_group_crystal_system       triclinic
_cell_length_a                    15.977959
_cell_length_b                    14.763069
_cell_length_c                    15.009272
_cell_angle_alpha                 89.984544
_cell_angle_beta                  90.298655
_cell_angle_gamma                 89.804076
_cell_volume                      3540.37383889

loop_
_atom_site_label
_atom_site_type_symbol
_atom_type_description
_atom_site_fract_x
_atom_site_fract_y
_atom_site_fract_z
_atom_type_partial_charge
C1    C     C_R   0.340846 0.500132 0.500074 0.833525
C2    C     C_R   0.659149 0.499866 0.499342 0.827183
C3    C     C_R   0.357580 0.433444 0.043178 -0.276410
C4    C     C_R   0.634004 0.575013 0.956480 -0.307375
C5    C     C_R   0.955924 0.571407 0.537231 -0.185749
C6    C     C_R   0.044055 0.429280 0.456820 -0.179550
C7    C     C_R   0.043216 0.571394 0.538214 -0.184652
C8    C     C_R   0.956723 0.429185 0.456051 -0.178129
C9    C     C_R   0.912742 0.500253 0.496271 0.164785
C10   C     C_R   0.087214 0.500346 0.497995 0.161794
C11   C     C_1   0.823290 0.499761 0.496551 -0.074085
C12   C     C_1   0.176667 0.500389 0.498960 -0.076858
C13   C     C_1   0.251735 0.500390 0.499635 -0.185539
C14   C     C_1   0.748232 0.499617 0.497670 -0.181996
C15   C     C_R   0.497838 0.951798 0.580644 -0.039055
C16   C     C_R   0.505385 0.048301 0.417653 -0.038448
C17   C     C_R   0.505591 0.951363 0.417947 -0.036629
C18   C     C_R   0.496503 0.048481 0.580371 -0.035983
C19   C     C_R   0.501297 0.902856 0.499452 -0.071901
C20   C     C_R   0.500397 0.097134 0.498993 -0.070843
C21   C     C_1   0.500658 0.802501 0.499876 0.158295
C22   C     C_1   0.500037 0.197496 0.499405 0.141874
C23   C     C_R   0.497175 0.499910 0.328597 0.864841
C24   C     C_R   0.500584 0.499972 0.671401 0.845728
C25   C     C_R   0.568976 0.536583 0.814392 0.397465
C26   C     C_R   0.427022 0.462445 0.185940 0.388119
C27   C     C_R   0.501023 0.499940 0.767539 -0.145255
C28   C     C_R   0.495481 0.499394 0.232345 -0.162615
C29   C     C_R   0.432512 0.463697 0.811968 -0.319482
C30   C     C_R   0.563266 0.536598 0.187588 -0.288666
C31   C     C_R   0.428870 0.466310 0.904813 0.019898
C32   C     C_R   0.564870 0.537840 0.094829 0.040094
C33   C     C_R   0.497129 0.502724 0.953133 -0.040594
C34   C     C_R   0.496146 0.502014 0.046739 -0.050444
C35   C     C_R   0.566879 0.538860 0.907837 -0.026887
C36   C     C_R   0.426503 0.465415 0.092214 -0.026993
C37   C     C_R   0.357987 0.434093 0.950264 0.436883
C38   C     C_R   0.633515 0.575314 0.049706 0.436432
Cu1   Cu    Cu3+1 0.500000 0.589220 0.500000 0.998549
Cu2   Cu    Cu3+1 0.500000 0.410780 0.500000 0.968134
H1    H     H_    0.381425 0.435281 0.773364 0.176318
H2    H     H_    0.614793 0.564533 0.225942 0.195273
H3    H     H_    0.302723 0.407415 0.076368 0.182751
H4    H     H_    0.688017 0.601662 0.922380 0.181383
H5    H     H_    0.076331 0.626516 0.570266 0.135546
H6    H     H_    0.923576 0.373866 0.424375 0.135020
H7    H     H_    0.922147 0.626426 0.568725 0.136305
H8    H     H_    0.077861 0.374127 0.425564 0.133926
N1    N     N_1   0.500000 0.276710 0.500000 -0.156006
N2    N     N_1   0.500000 0.723290 0.500000 -0.151334
O1    O     O_R   0.380310 0.575320 0.500020 -0.572419
O2    O     O_R   0.619690 0.424680 0.499980 -0.579357
O3    O     O_R   0.619690 0.575320 0.499980 -0.564973
O4    O     O_R   0.380310 0.424680 0.500020 -0.579430
O5    O     O_R   0.499980 0.575350 0.370250 -0.573324
O6    O     O_R   0.500020 0.424650 0.629750 -0.584537
O7    O     O_R   0.500020 0.575350 0.629750 -0.547796
O8    O     O_R   0.499980 0.424650 0.370250 -0.587928
O9    O     O_3   0.636651 0.571604 0.768642 -0.627802
C39   C     C_3   0.697701 0.502810 0.758487 0.031299
H9    H     H_    0.680122 0.458253 0.701667 0.147691
H10   H     H_    0.704813 0.460209 0.819613 0.142375
C40   C     C_3   0.782170 0.546807 0.739394 -0.328904
H11   H     H_    0.778429 0.584879 0.675623 0.224413
H12   H     H_    0.797513 0.595518 0.793491 0.212232
C41   C     C_3   0.851930 0.476158 0.733850 -0.913224
H13   H     H_    0.858404 0.439672 0.798265 0.253669
H14   H     H_    0.912180 0.510122 0.719158 0.258539
H15   H     H_    0.838320 0.426528 0.680155 0.263245
O10   O     O_3   0.356005 0.437417 0.232391 -0.630415
C42   C     C_3   0.356074 0.342717 0.246038 0.050712
H16   H     H_    0.413071 0.320322 0.282764 0.189814
H17   H     H_    0.353272 0.305686 0.181572 0.134939
C43   C     C_3   0.278984 0.318146 0.300760 -0.309151
H18   H     H_    0.278599 0.358459 0.363185 0.236671
H19   H     H_    0.221544 0.335243 0.262084 0.212055
C44   C     C_3   0.277668 0.217827 0.324770 -0.927197
H20   H     H_    0.277239 0.175810 0.263417 0.253096
H21   H     H_    0.220369 0.202741 0.363506 0.250704
H22   H     H_    0.333125 0.200200 0.366292 0.265775
O11   O     O_3   0.290663 0.397260 0.904727 -0.628440
C45   C     C_3   0.235478 0.467080 0.876656 0.038036
H23   H     H_    0.209015 0.446701 0.811080 0.166735
H24   H     H_    0.266777 0.533742 0.865849 0.129863
C46   C     C_3   0.163560 0.477750 0.942935 -0.340189
H25   H     H_    0.133704 0.410851 0.954216 0.229425
H26   H     H_    0.188388 0.502865 0.007594 0.213833
C47   C     C_3   0.097619 0.544347 0.908533 -0.919500
H27   H     H_    0.125910 0.612071 0.897724 0.253814
H28   H     H_    0.046725 0.551043 0.958225 0.257924
H29   H     H_    0.070153 0.519684 0.844889 0.256294
O12   O     O_3   0.703559 0.602999 0.097386 -0.616703
C48   C     C_3   0.722445 0.695066 0.080505 0.041347
H30   H     H_    0.721790 0.731039 0.145439 0.166054
H31   H     H_    0.676521 0.730787 0.036281 0.117160
C49   C     C_3   0.810414 0.702351 0.041458 -0.324329
H32   H     H_    0.856441 0.672341 0.088876 0.229649
H33   H     H_    0.813830 0.663950 0.977963 0.208001
C50   C     C_3   0.833766 0.800844 0.023814 -0.939716
H34   H     H_    0.789672 0.831531 0.974833 0.254072
H35   H     H_    0.898036 0.803956 0.996223 0.258683
H36   H     H_    0.832041 0.840455 0.086705 0.255295
C51   C     C_R   0.492857 0.099516 0.665731 0.114972
C52   C     C_R   0.560592 0.096890 0.725713 -0.125811
C53   C     C_R   0.558070 0.147396 0.804522 -0.145409
C54   C     C_R   0.488185 0.201015 0.823822 -0.098843
C55   C     C_R   0.420452 0.203770 0.764596 -0.111103
C56   C     C_R   0.422562 0.153079 0.685917 -0.154889
H37   H     H_    0.615484 0.056446 0.711006 0.121885
H38   H     H_    0.610512 0.145357 0.850418 0.126465
H39   H     H_    0.486531 0.240481 0.884586 0.130278
H40   H     H_    0.366407 0.245370 0.779556 0.154561
H41   H     H_    0.369780 0.155934 0.640416 0.123778
C57   C     C_R   0.513130 0.900252 0.332756 0.104522
C58   C     C_R   0.448965 0.841671 0.304710 -0.148761
C59   C     C_R   0.456335 0.793716 0.224763 -0.106005
C60   C     C_R   0.527038 0.804912 0.171551 -0.111663
C61   C     C_R   0.590676 0.863764 0.198446 -0.149337
C62   C     C_R   0.584288 0.910551 0.279100 -0.112713
H42   H     H_    0.393301 0.833316 0.344708 0.124586
H43   H     H_    0.407021 0.748236 0.203815 0.134082
H44   H     H_    0.532331 0.768213 0.109396 0.115600
H45   H     H_    0.645020 0.873277 0.156822 0.117632
H46   H     H_    0.634490 0.955195 0.299523 0.124048
C63   C     C_R   0.509236 0.098846 0.331732 0.103478
C64   C     C_R   0.447003 0.086750 0.266311 -0.131290
C65   C     C_R   0.451214 0.133487 0.185420 -0.149489
C66   C     C_R   0.517092 0.193207 0.169379 -0.141871
C67   C     C_R   0.579259 0.205722 0.233962 -0.129459
C68   C     C_R   0.575778 0.158372 0.314570 -0.145133
H47   H     H_    0.395033 0.041511 0.278196 0.130056
H48   H     H_    0.402927 0.124054 0.135480 0.130293
H49   H     H_    0.519777 0.230020 0.107073 0.127492
H50   H     H_    0.630287 0.251973 0.221479 0.134506
H51   H     H_    0.624974 0.167919 0.363543 0.124471
C69   C     C_R   0.495401 0.901214 0.666289 0.107882
C70   C     C_R   0.564831 0.849463 0.693977 -0.147580
C71   C     C_R   0.562143 0.800532 0.773709 -0.096642
C72   C     C_R   0.490279 0.802921 0.826318 -0.113552
C73   C     C_R   0.421097 0.854553 0.799410 -0.136485
C74   C     C_R   0.423504 0.903572 0.719668 -0.125641
H52   H     H_    0.620870 0.847066 0.653741 0.123796
H53   H     H_    0.615764 0.760785 0.794732 0.158337
H54   H     H_    0.488251 0.764816 0.887914 0.122809
H55   H     H_    0.365488 0.856393 0.840241 0.126203
H56   H     H_    0.369345 0.942855 0.699227 0.123229

loop_
_geom_bond_atom_site_label_1
_geom_bond_atom_site_label_2
_ccdc_geom_bond_type
C7    C10   A    
Cu1   O1    S    
C70   H52   S    
C40   H12   S    
C48   H30   S    
C27   C29   A    
C55   H40   S    
C15   C18   A    
C41   H14   S    
C68   H51   S    
C24   C27   S    
C24   O6    A    
C53   H38   S    
C66   C67   A    
C57   C58   A    
C62   H46   S    
C15   C19   A    
C5    H7    S    
C3    H3    S    
C64   C65   A    
C43   H19   S    
C39   C40   S    
C7    H5    S    
C19   C21   S    
C71   H53   S    
C46   H25   S    
C52   H37   S    
C11   C14   T    
C46   C47   S    
C41   H15   S    
C54   C55   A    
Cu2   N1    S    
Cu1   O7    S    
C49   C50   S    
C38   O12   S    
C64   H47   S    
C59   C60   A    
C39   H10   S    
C61   C62   A    
C21   N2    T    
C17   C19   A    
C65   H48   S    
C63   C68   A    
Cu1   O5    S    
C8    C9    A    
Cu2   O6    S    
C43   C44   S    
C49   H33   S    
C55   C56   A    
C31   C33   A    
C51   C56   A    
C32   C38   A    
C16   C63   S    
C18   C20   A    
C57   C62   A    
C18   C51   S    
C44   H21   S    
C41   H13   S    
C40   C41   S    
O9    C39   S    
C48   H31   S    
C37   O11   S    
C10   C12   S    
C52   C53   A    
C17   C57   S    
O11   C45   S    
C54   H39   S    
C46   H26   S    
C6    H8    S    
Cu2   O8    S    
C59   H43   S    
C40   H11   S    
C73   C74   A    
C43   H18   S    
Cu1   Cu2   S    
C5    C7    A    
C16   C17   A    
C6    C8    A    
C15   C69   S    
C4    H4    S    
C44   H20   S    
C31   C37   A    
C39   H9    S    
C32   C34   A    
C56   H41   S    
C60   H44   S    
C5    C9    A    
C69   C74   A    
C1    O1    A    
C72   H54   S    
C50   H34   S    
C47   H29   S    
C16   C20   A    
C49   H32   S    
Cu1   N2    S    
C33   C34   A    
C23   C28   S    
C12   C13   T    
C9    C11   S    
O10   C42   S    
C2    O2    A    
C74   H56   S    
C25   C35   A    
C1    O4    A    
C26   C36   A    
C50   H35   S    
C47   H28   S    
C58   H42   S    
C48   C49   S    
Cu2   O4    S    
C22   N1    T    
C63   C64   A    
C26   O10   S    
C1    C13   S    
C20   C22   S    
C65   C66   A    
C42   H17   S    
C67   C68   A    
C53   C54   A    
C44   H22   S    
C29   H1    S    
C26   C28   A    
C4    C38   A    
C69   C70   A    
C2    O3    A    
C73   H55   S    
C6    C10   A    
C42   C43   S    
C72   C73   A    
C23   O5    A    
C25   C27   A    
C45   C46   S    
C70   C71   A    
C24   O7    A    
C45   H24   S    
C28   C30   A    
C42   H16   S    
C29   C31   A    
Cu2   O2    S    
C60   C61   A    
C30   C32   A    
Cu1   O3    S    
C3    C36   A    
O12   C48   S    
C33   C35   A    
C23   O8    A    
C34   C36   A    
C61   H45   S    
C2    C14   S    
C8    H6    S    
C4    C35   A    
C71   C72   A    
C67   H50   S    
C50   H36   S    
C47   H27   S    
C3    C37   A    
C45   H23   S    
C51   C52   A    
C30   H2    S    
C25   O9    S    
C66   H49   S    
C58   C59   A    
