data_mof_unit_35756.cif
_audit_creation_date              2012-12-10T18:05:52-0500
_audit_creation_method            fapswitch 2.2
_symmetry_space_group_name_H-M    P1
_symmetry_Int_Tables_number       1
_space_group_crystal_system       triclinic
_cell_length_a                    12.625507
_cell_length_b                    13.128237
_cell_length_c                    14.875188
_cell_angle_alpha                 90.51522
_cell_angle_beta                  100.459869
_cell_angle_gamma                 84.273628
_cell_volume                      2412.39572972

loop_
_atom_site_label
_atom_site_type_symbol
_atom_type_description
_atom_site_fract_x
_atom_site_fract_y
_atom_site_fract_z
_atom_type_partial_charge
C1    C     C_R   0.442354 0.689701 0.478273 0.879524
C2    C     C_R   0.510480 0.402772 0.093523 0.072314
C3    C     C_R   0.474688 0.686327 0.045559 -0.054069
C4    C     C_R   0.475619 0.687392 0.951471 -0.064505
C5    C     C_R   0.486502 0.593897 0.904749 0.059923
C6    C     C_R   0.496606 0.498895 0.951968 0.039335
C7    C     C_R   0.505876 0.404683 0.904799 0.085418
C8    C     C_R   0.516729 0.310743 0.952120 -0.015085
C9    C     C_R   0.519536 0.310510 0.045678 -0.239341
C10   C     C_R   0.487951 0.592647 0.811369 -0.231525
C11   C     C_R   0.496907 0.500160 0.766704 -0.050162
C12   C     C_R   0.498930 0.500588 0.672048 0.889647
C13   C     C_R   0.504663 0.407086 0.811297 -0.244439
C14   C     C_R   0.731995 0.061721 0.496210 -0.185603
C15   C     C_R   0.593005 0.200236 0.502962 -0.048220
C16   C     C_R   0.302522 0.831895 0.422999 -0.209926
C17   C     C_R   0.270457 0.931740 0.390422 0.219571
C18   C     C_R   0.349913 0.999217 0.388335 -0.009538
C19   C     C_R   0.460247 0.966250 0.423213 -0.019490
C20   C     C_R   0.491952 0.860391 0.429119 0.023214
C21   C     C_R   0.540744 0.033377 0.452678 0.099662
C22   C     C_R   0.651767 0.996221 0.467008 0.168181
C23   C     C_R   0.559160 0.308763 0.509678 0.857721
C24   C     C_R   0.681160 0.894914 0.448497 -0.294196
C25   C     C_R   0.602184 0.827955 0.425072 0.027490
C26   C     C_R   0.513304 0.134033 0.476370 -0.212607
C27   C     C_R   0.702673 0.163836 0.513289 -0.198207
C28   C     C_R   0.412490 0.794500 0.441586 -0.165389
C29   C     C_R   0.114694 0.305032 0.437197 -0.288961
C30   C     C_R   0.797868 0.636318 0.603411 0.072521
C31   C     C_R   0.902774 0.662173 0.631366 -0.292852
C32   C     C_R   0.990011 0.604778 0.604265 0.202084
C33   C     C_R   0.969726 0.523512 0.541783 -0.039241
C34   C     C_R   0.500884 0.498943 0.327808 0.872899
C35   C     C_R   0.861173 0.496316 0.516762 0.145742
C36   C     C_R   0.052053 0.465854 0.503350 0.001807
C37   C     C_R   0.035202 0.365360 0.473181 0.146415
C38   C     C_R   0.934372 0.330795 0.469125 -0.289586
C39   C     C_R   0.846173 0.404339 0.465770 0.182155
C40   C     C_R   0.147252 0.505086 0.488384 -0.046559
C41   C     C_R   0.208519 0.346680 0.427761 0.040419
C42   C     C_R   0.513707 0.402336 0.188038 -0.052544
C43   C     C_R   0.502215 0.495934 0.232439 -0.089402
C44   C     C_R   0.485904 0.588633 0.185920 -0.231208
C45   C     C_R   0.486040 0.591746 0.092641 0.056221
C46   C     C_R   0.497786 0.497885 0.046001 0.024763
H1    H     H_    0.765610 0.868912 0.448546 0.148188
H2    H     H_    0.817111 0.034148 0.505128 0.137438
H3    H     H_    0.429489 0.161311 0.475238 0.154880
H4    H     H_    0.241152 0.782031 0.430377 0.166303
H5    H     H_    0.273033 0.299852 0.404696 0.155992
H6    H     H_    0.920839 0.256065 0.439784 0.157088
H7    H     H_    0.103514 0.227397 0.414928 0.145415
H8    H     H_    0.472727 0.658273 0.223727 0.148359
H9    H     H_    0.163548 0.582639 0.504979 0.144372
H10   H     H_    0.917274 0.724321 0.679259 0.162049
H11   H     H_    0.481507 0.662900 0.772154 0.152851
H12   H     H_    0.511436 0.337192 0.772438 0.142680
H13   H     H_    0.528600 0.237267 0.080725 0.172501
H14   H     H_    0.765481 0.214156 0.533770 0.168345
N1    N     N_R   0.222190 0.444670 0.452360 -0.113094
N2    N     N_R   0.776970 0.554790 0.547140 -0.139828
O1    O     O_R   0.366740 0.627160 0.477250 -0.627257
O2    O     O_R   0.544830 0.662520 0.507680 -0.615302
O3    O     O_R   0.410940 0.482340 0.616930 -0.610410
O4    O     O_R   0.589030 0.517700 0.647360 -0.608679
O5    O     O_R   0.455170 0.337480 0.492320 -0.629759
O6    O     O_R   0.633260 0.372840 0.522750 -0.620914
O7    O     O_R   0.410970 0.482300 0.352640 -0.604817
O8    O     O_R   0.589060 0.517660 0.383070 -0.622911
Zn1   Zn    Zn3+2 0.381090 0.476390 0.479680 0.952353
Zn2   Zn    Zn3+2 0.618910 0.523610 0.520320 0.957602
C47   C     C_1   0.528468 0.307047 0.239779 0.131373
N3    N     N_1   0.540464 0.230888 0.280578 -0.194105
C48   C     C_1   0.321293 0.091374 0.332886 0.151530
N4    N     N_1   0.298449 0.163665 0.286828 -0.201554
C49   C     C_3   0.151808 0.965608 0.359461 -0.907982
H15   H     H_    0.100339 0.903793 0.368006 0.236676
H16   H     H_    0.127675 0.032212 0.400367 0.231314
H17   H     H_    0.136063 0.987832 0.286043 0.254313
C50   C     C_1   0.634168 0.743184 0.370820 0.205939
N5    N     N_1   0.664914 0.679113 0.325407 -0.209261
C51   C     C_1   0.714514 0.692727 0.643206 0.269379
N6    N     N_1   0.648801 0.738929 0.676277 -0.208360
C52   C     C_3   0.101119 0.622776 0.656006 -0.895702
H18   H     H_    0.097145 0.645112 0.727693 0.245902
H19   H     H_    0.133092 0.685981 0.623363 0.232767
H20   H     H_    0.158194 0.552203 0.661227 0.252266
C53   C     C_3   0.772301 0.403794 0.374493 -0.760081
H21   H     H_    0.756078 0.482198 0.345171 0.259185
H22   H     H_    0.810888 0.360124 0.322366 0.202344
H23   H     H_    0.700305 0.364347 0.379250 0.254355
C54   C     C_1   0.463570 0.782737 0.093546 0.179377
N7    N     N_1   0.454777 0.859399 0.131835 -0.189510
C55   C     C_1   0.465211 0.784832 0.903411 0.180184
N8    N     N_1   0.456947 0.862428 0.865186 -0.175476
C56   C     C_1   0.525900 0.213033 0.906859 0.165672
N9    N     N_1   0.533218 0.134876 0.870727 -0.178355

loop_
_geom_bond_atom_site_label_1
_geom_bond_atom_site_label_2
_ccdc_geom_bond_type
C16   C28   A    
C21   C26   A    
C54   N7    T    
C47   N3    T    
C55   N8    T    
C41   N1    A    
C43   C44   A    
C50   N5    T    
C7    C8    A    
C52   H18   S    
C2    C46   A    
C18   C48   S    
C51   N6    T    
C5    C6    A    
C36   C37   A    
C19   C21   A    
C16   H4    S    
C27   H14   S    
C30   C31   A    
C52   H20   S    
C38   H6    S    
C20   C25   A    
C33   C36   A    
C18   C19   A    
C23   O5    A    
C30   C51   S    
O7    Zn1   S    
O4    Zn2   S    
C19   C20   A    
C8    C9    A    
C1    C28   S    
C31   H10   S    
C53   H22   S    
C34   O8    A    
C49   H15   S    
N1    Zn1   S    
C15   C23   S    
C21   C22   A    
C25   C50   S    
C1    O1    A    
C56   N9    T    
C49   H16   S    
C52   H19   S    
C36   C40   A    
C10   H11   S    
C24   C25   A    
C26   H3    S    
C16   C17   A    
C15   C26   A    
C14   H2    S    
C13   H12   S    
C20   C28   A    
O3    Zn1   S    
C12   O4    A    
C3    C45   A    
C40   N1    A    
C9    H13   S    
C23   O6    A    
C35   C39   A    
C48   N4    T    
C37   C38   A    
C44   H8    S    
C4    C55   S    
C15   C27   A    
C31   C32   A    
O6    Zn2   S    
C40   H9    S    
C17   C49   S    
C17   C18   A    
N2    Zn2   S    
C3    C54   S    
C53   H23   S    
C34   O7    A    
O1    Zn1   S    
C30   N2    A    
C14   C27   A    
C22   C24   A    
C42   C43   A    
C3    C4    A    
C1    O2    A    
C44   C45   A    
C49   H17   S    
C42   C47   S    
C6    C46   A    
C29   C41   A    
C24   H1    S    
C34   C43   S    
C4    C5    A    
C11   C12   S    
C6    C7    A    
C12   O3    A    
C32   C33   A    
C14   C22   A    
C5    C10   A    
C11   C13   A    
C38   C39   A    
C29   H7    S    
C2    C42   A    
C8    C56   S    
C32   C52   S    
C33   C35   A    
C39   C53   S    
C35   N2    A    
O5    Zn1   S    
O2    Zn2   S    
C10   C11   A    
C45   C46   A    
C7    C13   A    
C29   C37   A    
O8    Zn2   S    
C53   H21   S    
C2    C9    A    
C41   H5    S    
