data_mof_unit_20345.cif
_audit_creation_date              2012-12-10T20:22:30-0500
_audit_creation_method            fapswitch 2.2
_symmetry_space_group_name_H-M    P1
_symmetry_Int_Tables_number       1
_space_group_crystal_system       triclinic
_cell_length_a                    19.289442
_cell_length_b                    18.44782
_cell_length_c                    15.803786
_cell_angle_alpha                 90.183515
_cell_angle_beta                  90.391405
_cell_angle_gamma                 90.033988
_cell_volume                      5623.58694282

loop_
_atom_site_label
_atom_site_type_symbol
_atom_type_description
_atom_site_fract_x
_atom_site_fract_y
_atom_site_fract_z
_atom_type_partial_charge
C1    C     C_R   0.365525 0.499905 0.501926 0.907589
C2    C     C_R   0.929135 0.499760 0.517067 0.191515
C3    C     C_R   0.765756 0.897183 0.503709 -0.115624
C4    C     C_R   0.745843 0.853242 0.435572 -0.103528
C5    C     C_R   0.679338 0.823148 0.432808 -0.144611
C6    C     C_R   0.368785 0.162996 0.514366 0.122016
C7    C     C_R   0.326513 0.172183 0.585612 -0.157916
C8    C     C_R   0.259347 0.143665 0.586095 -0.115010
C9    C     C_R   0.233579 0.107035 0.515014 -0.085694
C10   C     C_R   0.275086 0.098577 0.443537 -0.132117
C11   C     C_R   0.342721 0.125812 0.443341 -0.132947
C12   C     C_R   0.368489 0.837851 0.502614 0.108894
C13   C     C_R   0.561126 0.725939 0.497632 -0.056743
C14   C     C_R   0.347738 0.881221 0.434157 -0.118929
C15   C     C_R   0.281076 0.910815 0.431803 -0.133710
C16   C     C_R   0.235101 0.898251 0.498154 -0.119661
C17   C     C_R   0.255438 0.855207 0.566548 -0.109677
C18   C     C_R   0.321701 0.824610 0.568584 -0.142071
C19   C     C_R   0.631096 0.162811 0.487679 0.124983
C20   C     C_R   0.674116 0.171022 0.417005 -0.161262
C21   C     C_R   0.741183 0.142286 0.417803 -0.127122
C22   C     C_R   0.766044 0.106328 0.489541 -0.091079
C23   C     C_R   0.723794 0.098884 0.560455 -0.123130
C24   C     C_R   0.439849 0.274171 0.513153 -0.061244
C25   C     C_R   0.656299 0.126386 0.559404 -0.128751
C26   C     C_R   0.438948 0.726021 0.502261 -0.059869
C27   C     C_R   0.560176 0.274064 0.487249 -0.065565
C28   C     C_R   0.563141 0.802114 0.497394 -0.085230
C29   C     C_R   0.437598 0.198067 0.511011 -0.089391
C30   C     C_R   0.437144 0.802187 0.502691 -0.083790
C31   C     C_R   0.562317 0.197974 0.489748 -0.089449
C32   C     C_R   0.500178 0.841747 0.500106 0.000921
C33   C     C_R   0.634483 0.499983 0.500061 0.911965
C34   C     C_R   0.499917 0.158324 0.500308 0.001288
C35   C     C_R   0.471775 0.961989 0.568200 -0.172336
C36   C     C_R   0.528175 0.037840 0.432140 -0.169078
C37   C     C_R   0.528489 0.961770 0.432234 -0.173127
C38   C     C_R   0.471811 0.038057 0.568334 -0.168537
C39   C     C_R   0.499913 0.076952 0.500243 0.119859
C40   C     C_R   0.500195 0.922995 0.500203 0.117216
C41   C     C_R   0.500126 0.499859 0.339203 0.878555
C42   C     C_R   0.500213 0.500096 0.660794 0.870742
C43   C     C_R   0.539708 0.555090 0.956752 0.359892
C44   C     C_R   0.710126 0.499662 0.501577 -0.322263
C45   C     C_R   0.481457 0.436949 0.043332 0.350844
C46   C     C_R   0.535341 0.557318 0.044586 0.347977
C47   C     C_R   0.476787 0.439566 0.955514 0.356225
C48   C     C_R   0.507429 0.497903 0.912883 -0.252592
C49   C     C_R   0.507727 0.497378 0.087194 -0.250910
C50   C     C_1   0.504925 0.499453 0.823862 0.074366
C51   C     C_1   0.505132 0.498404 0.176202 0.074196
C52   C     C_1   0.502593 0.499321 0.250973 -0.217247
C53   C     C_1   0.502494 0.500169 0.749054 -0.208446
C54   C     C_R   0.745480 0.438212 0.533097 0.371068
C55   C     C_R   0.290244 0.499107 0.511581 -0.323971
C56   C     C_R   0.255667 0.560040 0.546169 0.394671
C57   C     C_R   0.252500 0.436029 0.489310 0.371236
C58   C     C_R   0.747609 0.561139 0.473934 0.393930
C59   C     C_R   0.817644 0.436516 0.531829 -0.111030
C60   C     C_R   0.183337 0.560694 0.548083 -0.098552
C61   C     C_R   0.181651 0.432914 0.505474 -0.108165
C62   C     C_R   0.819355 0.563241 0.485807 -0.098483
C63   C     C_R   0.854250 0.499942 0.511531 -0.154873
C64   C     C_R   0.146770 0.496300 0.530278 -0.156588
C65   C     C_3   0.511241 0.663096 0.115562 0.106007
C66   C     C_R   0.967571 0.494605 0.442839 -0.183575
C67   C     C_3   0.503113 0.725556 0.052739 -0.310655
C68   C     C_3   0.453148 0.782949 0.085851 -1.007526
C69   C     C_3   0.379734 0.399385 0.884623 0.111546
C70   C     C_3   0.326524 0.374681 0.950009 -0.308544
C71   C     C_3   0.252613 0.384922 0.917157 -1.020544
C72   C     C_3   0.637248 0.592852 0.887378 0.105927
C73   C     C_3   0.691057 0.610269 0.956338 -0.312178
C74   C     C_3   0.764705 0.598928 0.924315 -1.022389
C75   C     C_3   0.507776 0.332367 0.114926 0.102617
C76   C     C_3   0.520988 0.271780 0.050598 -0.310878
C77   C     C_R   0.033279 0.499383 0.601284 -0.175162
C78   C     C_3   0.572869 0.216607 0.084879 -1.012791
C79   C     C_3   0.695841 0.389391 0.649968 0.113578
C80   C     C_3   0.653561 0.325504 0.682942 -0.305163
C81   C     C_3   0.639663 0.332956 0.777540 -0.971064
C82   C     C_3   0.324806 0.610221 0.650589 0.134847
C83   C     C_3   0.279172 0.635264 0.723793 -0.393321
C84   C     C_3   0.319760 0.636683 0.807046 -0.964073
C85   C     C_3   0.291701 0.385546 0.367055 0.117461
C86   C     C_3   0.325180 0.318176 0.328543 -0.331898
C87   C     C_3   0.331718 0.325137 0.232760 -0.950904
C88   C     C_R   0.039075 0.495467 0.447576 -0.180192
C89   C     C_3   0.689591 0.609684 0.359142 0.130632
C90   C     C_3   0.742131 0.635678 0.293830 -0.412858
C91   C     C_3   0.710638 0.636407 0.204959 -0.914475
C92   C     C_R   0.853792 0.367336 0.549778 0.210724
C93   C     C_R   0.878844 0.351757 0.631308 -0.156990
C94   C     C_R   0.911500 0.285556 0.647535 -0.134030
C95   C     C_R   0.918948 0.234503 0.582707 -0.105774
C96   C     C_R   0.894153 0.249749 0.501400 -0.131881
C97   C     C_R   0.861537 0.315908 0.484912 -0.103933
C98   C     C_R   0.146861 0.630641 0.560885 0.209795
C99   C     C_R   0.961650 0.502711 0.596322 -0.175604
C100  C     C_R   0.114933 0.647375 0.638084 -0.169436
C101  C     C_R   0.080582 0.713485 0.648525 -0.139441
C102  C     C_R   0.078086 0.763334 0.582195 -0.121542
C103  C     C_R   0.109917 0.747142 0.505274 -0.140170
C104  C     C_R   0.144366 0.681130 0.494634 -0.095652
C105  C     C_R   0.144795 0.362684 0.497282 0.217385
C106  C     C_R   0.118067 0.339300 0.418965 -0.137380
C107  C     C_R   0.084737 0.272192 0.412229 -0.136313
C108  C     C_R   0.077964 0.228127 0.483450 -0.104776
C109  C     C_R   0.103958 0.251376 0.561707 -0.136685
C110  C     C_R   0.071733 0.497238 0.526767 0.189867
C111  C     C_R   0.137342 0.318434 0.568697 -0.121210
C112  C     C_R   0.856269 0.633419 0.477353 0.208886
C113  C     C_R   0.896140 0.649064 0.405676 -0.162322
C114  C     C_R   0.930241 0.715688 0.399096 -0.138787
C115  C     C_R   0.924559 0.767144 0.463741 -0.122292
C116  C     C_R   0.884927 0.751982 0.535207 -0.138435
C117  C     C_R   0.850693 0.685466 0.541961 -0.097410
C118  C     C_R   0.631941 0.837634 0.497876 0.110322
C119  C     C_R   0.652348 0.881797 0.566154 -0.116083
C120  C     C_R   0.719200 0.910980 0.569182 -0.137782
H1    H     H_    0.942138 0.490564 0.381697 0.120682
H2    H     H_    0.549642 0.066286 0.378515 0.134600
H3    H     H_    0.264837 0.942822 0.378024 0.114041
H4    H     H_    0.183549 0.921348 0.496220 0.107683
H5    H     H_    0.219642 0.844962 0.617587 0.131152
H6    H     H_    0.336564 0.790574 0.621401 0.129445
H7    H     H_    0.655792 0.199915 0.361653 0.118839
H8    H     H_    0.774180 0.148649 0.363211 0.114748
H9    H     H_    0.818246 0.084848 0.490492 0.102984
H10   H     H_    0.743632 0.072561 0.616646 0.110569
H11   H     H_    0.624376 0.121071 0.615169 0.121276
H12   H     H_    0.550329 0.933026 0.378847 0.134188
H13   H     H_    0.450294 0.066665 0.622002 0.136045
H14   H     H_    0.527492 0.685659 0.177892 0.155393
H15   H     H_    0.460022 0.636336 0.125707 0.121032
H16   H     H_    0.554498 0.750979 0.041561 0.233872
H17   H     H_    0.482834 0.704318 0.991556 0.243991
H18   H     H_    0.401181 0.758803 0.096572 0.266507
H19   H     H_    0.447944 0.827138 0.038691 0.270271
H20   H     H_    0.472997 0.806452 0.146131 0.264892
H21   H     H_    0.058674 0.498928 0.662563 0.121500
H22   H     H_    0.369830 0.369876 0.824339 0.158856
H23   H     H_    0.372318 0.458097 0.870503 0.109989
H24   H     H_    0.334977 0.316501 0.964974 0.236997
H25   H     H_    0.333054 0.406788 0.009106 0.239721
H26   H     H_    0.243939 0.351976 0.859073 0.264663
H27   H     H_    0.242898 0.442944 0.902649 0.268164
H28   H     H_    0.215291 0.367190 0.966114 0.269074
H29   H     H_    0.649199 0.625591 0.830419 0.161153
H30   H     H_    0.641630 0.534876 0.867665 0.112486
H31   H     H_    0.684976 0.667503 0.977214 0.241702
H32   H     H_    0.069072 0.493851 0.389909 0.120270
H33   H     H_    0.682795 0.574407 0.011682 0.234455
H34   H     H_    0.772075 0.541767 0.903952 0.264150
H35   H     H_    0.802313 0.611284 0.975888 0.269595
H36   H     H_    0.775241 0.635488 0.870178 0.266263
H37   H     H_    0.490479 0.307624 0.175212 0.164333
H38   H     H_    0.557215 0.361449 0.129680 0.119923
H39   H     H_    0.471369 0.243776 0.035445 0.235281
H40   H     H_    0.541867 0.295374 0.991405 0.241048
H41   H     H_    0.552587 0.190872 0.143163 0.264825
H42   H     H_    0.623168 0.243379 0.099484 0.265048
H43   H     H_    0.931532 0.506478 0.653744 0.121612
H44   H     H_    0.581679 0.173719 0.036691 0.270957
H45   H     H_    0.665434 0.440015 0.660174 0.118351
H46   H     H_    0.744998 0.393037 0.686987 0.122378
H47   H     H_    0.603171 0.323013 0.648683 0.241216
H48   H     H_    0.682098 0.274154 0.671104 0.224247
H49   H     H_    0.689266 0.333536 0.813651 0.255215
H50   H     H_    0.608044 0.286340 0.799215 0.272585
H51   H     H_    0.610776 0.383754 0.790698 0.273558
H52   H     H_    0.373039 0.643155 0.651019 0.176040
H53   H     H_    0.341095 0.552922 0.661264 0.102526
H54   H     H_    0.609011 0.695813 0.497497 0.191244
H55   H     H_    0.258733 0.690436 0.710530 0.237180
H56   H     H_    0.234992 0.597204 0.730312 0.209559
H57   H     H_    0.340719 0.582015 0.821445 0.259174
H58   H     H_    0.284960 0.653450 0.859233 0.263823
H59   H     H_    0.363319 0.675949 0.803402 0.270557
H60   H     H_    0.325105 0.433228 0.353035 0.125814
H61   H     H_    0.240205 0.393916 0.336523 0.115733
H62   H     H_    0.377710 0.310674 0.356326 0.231676
H63   H     H_    0.293363 0.269648 0.343459 0.230587
H64   H     H_    0.279648 0.330271 0.202930 0.257431
H65   H     H_    0.392638 0.304458 0.522750 0.192657
H66   H     H_    0.357504 0.276163 0.206808 0.266566
H67   H     H_    0.363299 0.373496 0.216803 0.293609
H68   H     H_    0.641071 0.641471 0.351306 0.167786
H69   H     H_    0.675663 0.552012 0.345944 0.104189
H70   H     H_    0.760080 0.691237 0.310474 0.238073
H71   H     H_    0.787364 0.598556 0.294151 0.210177
H72   H     H_    0.691720 0.581477 0.187273 0.276982
H73   H     H_    0.750528 0.653325 0.158690 0.257767
H74   H     H_    0.666832 0.675378 0.201862 0.276044
H75   H     H_    0.872796 0.390565 0.682226 0.100309
H76   H     H_    0.390962 0.695980 0.502227 0.190200
H77   H     H_    0.930809 0.273715 0.710439 0.120036
H78   H     H_    0.944077 0.183204 0.595416 0.105919
H79   H     H_    0.900099 0.210238 0.451204 0.111159
H80   H     H_    0.842170 0.327049 0.421792 0.111497
H81   H     H_    0.116747 0.609571 0.690193 0.106164
H82   H     H_    0.055960 0.726112 0.708101 0.124220
H83   H     H_    0.051500 0.814497 0.590386 0.110936
H84   H     H_    0.107945 0.785783 0.453928 0.119968
H85   H     H_    0.168841 0.669143 0.434721 0.116257
H86   H     H_    0.122653 0.372975 0.363374 0.095797
H87   H     H_    0.607525 0.304273 0.478075 0.189170
H88   H     H_    0.064171 0.254327 0.351784 0.117766
H89   H     H_    0.052295 0.176116 0.478090 0.103315
H90   H     H_    0.098404 0.217325 0.616886 0.111005
H91   H     H_    0.157660 0.335770 0.629543 0.111605
H92   H     H_    0.900550 0.610134 0.354726 0.106559
H93   H     H_    0.960965 0.727494 0.343775 0.122296
H94   H     H_    0.950904 0.818731 0.458497 0.108490
H95   H     H_    0.880587 0.791857 0.585269 0.121237
H96   H     H_    0.819975 0.674371 0.597566 0.116638
H97   H     H_    0.617115 0.892202 0.617853 0.124866
H98   H     H_    0.450018 0.933415 0.621564 0.135764
H99   H     H_    0.735162 0.943562 0.622863 0.114164
H100  H     H_    0.817475 0.919913 0.506216 0.107827
H101  H     H_    0.782166 0.841889 0.385342 0.126709
H102  H     H_    0.664802 0.788437 0.380185 0.124566
H103  H     H_    0.345489 0.201692 0.640428 0.121135
H104  H     H_    0.226979 0.150741 0.641170 0.114400
H105  H     H_    0.181270 0.085772 0.515040 0.104991
H106  H     H_    0.254553 0.071681 0.387874 0.111929
H107  H     H_    0.374049 0.119746 0.387141 0.122127
H108  H     H_    0.382572 0.890748 0.381887 0.123380
N1    N     N_R   0.500000 0.689440 0.500000 -0.108565
N2    N     N_R   0.500000 0.310560 0.500000 -0.110575
O1    O     O_R   0.398180 0.560840 0.499980 -0.606235
O2    O     O_3   0.447822 0.381748 0.911617 -0.623657
O3    O     O_3   0.569825 0.612397 0.914078 -0.623998
O4    O     O_3   0.453851 0.378294 0.086002 -0.634929
O5    O     O_3   0.709802 0.378447 0.563100 -0.625390
O6    O     O_3   0.291197 0.621885 0.571622 -0.645870
O7    O     O_3   0.284838 0.375636 0.455316 -0.625801
O8    O     O_3   0.714576 0.622338 0.442559 -0.643104
O9    O     O_R   0.601820 0.439160 0.500020 -0.591267
O10   O     O_R   0.601820 0.560840 0.500020 -0.606623
O11   O     O_R   0.398180 0.439160 0.499980 -0.591780
O12   O     O_R   0.499980 0.560800 0.378020 -0.622062
O13   O     O_R   0.500020 0.439200 0.621980 -0.612159
O14   O     O_R   0.500020 0.560800 0.621980 -0.619677
O15   O     O_R   0.499980 0.439200 0.378020 -0.614752
O16   O     O_3   0.564049 0.615166 0.088600 -0.634569
Zn1   Zn    Zn3+2 0.500000 0.581210 0.500000 0.937786
Zn2   Zn    Zn3+2 0.500000 0.418790 0.500000 0.946701

loop_
_geom_bond_atom_site_label_1
_geom_bond_atom_site_label_2
_ccdc_geom_bond_type
C58   C62   A    
C96   H79   S    
C71   H27   S    
C65   O16   S    
C76   H39   S    
C78   H44   S    
C93   C94   A    
C82   O6    S    
C117  H96   S    
O11   Zn2   S    
C73   C74   S    
C68   H18   S    
C95   C96   A    
C114  H93   S    
C83   H55   S    
C102  H83   S    
C19   C31   S    
C108  H89   S    
C7    C8    A    
C85   C86   S    
C72   O3    S    
C46   C49   A    
C101  C102  A    
C15   H3    S    
C36   C37   A    
C76   C78   S    
C37   C40   A    
C24   N2    A    
C101  H82   S    
C109  C111  A    
C42   C53   S    
C66   C88   A    
C112  C117  A    
C91   H73   S    
C83   H56   S    
C106  C107  A    
C91   H72   S    
C4    H101  S    
C42   O13   A    
C108  C109  A    
C74   H34   S    
C75   O4    S    
C38   H13   S    
C103  H84   S    
C100  C101  A    
C118  C119  A    
C56   O6    S    
C83   C84   S    
C44   C58   A    
C16   C17   A    
C49   C51   S    
C90   H70   S    
O10   Zn1   S    
C107  C108  A    
C13   C28   A    
C70   C71   S    
C72   H29   S    
C81   H49   S    
C61   C105  S    
C9    C10   A    
C80   H47   S    
C27   H87   S    
C65   H14   S    
C8    H104  S    
C79   C80   S    
C90   H71   S    
C41   O15   A    
C75   H37   S    
C62   C112  S    
C48   C50   S    
C71   H28   S    
C105  C111  A    
C26   H76   S    
C21   C22   A    
C73   H31   S    
C88   H32   S    
C97   H80   S    
C93   H75   S    
C54   O5    S    
C116  H95   S    
C85   H60   S    
C112  C113  A    
C92   C97   A    
C114  C115  A    
C87   H66   S    
C111  H91   S    
C54   C59   A    
C45   C47   A    
C26   N1    A    
C13   H54   S    
C82   H52   S    
C31   C34   A    
C50   C53   T    
C27   C31   A    
C102  C103  A    
C28   C32   A    
C35   C38   A    
C45   O4    S    
C46   O16   S    
C20   H7    S    
C43   O3    S    
C69   O2    S    
C6    C11   A    
C91   H74   S    
C120  H99   S    
C86   C87   S    
C8    C9    A    
C84   H59   S    
C87   H67   S    
C47   O2    S    
C65   C67   S    
C69   H22   S    
C104  H85   S    
C29   C34   A    
C3    C4    A    
C34   C39   S    
C23   H10   S    
C24   H65   S    
C61   C64   A    
C36   H2    S    
C75   C76   S    
C14   H108  S    
C62   C63   A    
C33   O9    A    
C7    H103  S    
C100  H81   S    
C1    O1    A    
C27   N2    A    
C64   C110  S    
C47   C48   A    
C82   H53   S    
C45   C49   A    
C60   C98   S    
C96   C97   A    
C6    C29   S    
C55   C56   A    
C17   C18   A    
C3    H100  S    
C66   H1    S    
C74   H36   S    
C94   C95   A    
C70   H25   S    
C81   H50   S    
C79   H45   S    
C21   H8    S    
C84   H58   S    
C107  H88   S    
C65   H15   S    
C1    O11   A    
C99   H43   S    
C75   H38   S    
C67   C68   S    
C12   C14   A    
C2    C99   A    
O13   Zn2   S    
C98   C100  A    
C10   C11   A    
C55   C57   A    
C22   H9    S    
C86   H63   S    
C89   H68   S    
C80   C81   S    
C68   H20   S    
C73   H33   S    
C109  H90   S    
C25   H11   S    
C35   H98   S    
C24   C29   A    
C87   H64   S    
C32   C40   S    
N2    Zn2   S    
C2    C63   S    
C78   H42   S    
C86   H62   S    
C113  C114  A    
C43   C48   A    
C35   C40   A    
C5    H102  S    
C76   H40   S    
C85   H61   S    
C41   C52   S    
C12   C30   S    
C22   C23   A    
C33   C44   S    
C59   C63   A    
C89   O8    S    
C36   C39   A    
O1    Zn1   S    
C113  H92   S    
C72   C73   S    
C2    C66   A    
C106  H86   S    
C119  C120  A    
O14   Zn1   S    
C57   C61   A    
C6    C7    A    
C69   H23   S    
C105  C106  A    
C5    C118  A    
C70   H24   S    
O12   Zn1   S    
C37   H12   S    
C41   O12   A    
C60   C64   A    
C94   H77   S    
C19   C20   A    
C67   H16   S    
C1    C55   S    
C79   O5    S    
C51   C52   T    
C33   O10   A    
C28   C118  S    
C18   H6    S    
C30   C32   A    
C17   H5    S    
C90   C91   S    
C38   C39   A    
C23   C25   A    
C95   H78   S    
C98   C104  A    
C116  C117  A    
C119  H97   S    
C72   H30   S    
C42   O14   A    
C92   C93   A    
C88   C110  A    
C74   H35   S    
C77   C99   A    
C85   O7    S    
C59   C92   S    
C81   H51   S    
C79   H46   S    
C16   H4    S    
C69   C70   S    
C67   H17   S    
C43   C46   A    
C77   H21   S    
C3    C120  A    
C19   C25   A    
C13   N1    A    
C84   H57   S    
N1    Zn1   S    
C44   C54   A    
C4    C5    A    
C71   H26   S    
C56   C60   A    
C20   C21   A    
C115  H94   S    
C78   H41   S    
C11   H107  S    
C82   C83   S    
O15   Zn2   S    
C12   C18   A    
C103  C104  A    
C10   H106  S    
C89   H69   S    
C14   C15   A    
O9    Zn2   S    
C68   H19   S    
C9    H105  S    
C115  C116  A    
C89   C90   S    
C58   O8    S    
C77   C110  A    
C80   H48   S    
C57   O7    S    
C15   C16   A    
C26   C30   A    
