data_mof_unit_49062.cif
_audit_creation_date              2012-12-10T17:58:18-0500
_audit_creation_method            fapswitch 2.2
_symmetry_space_group_name_H-M    P1
_symmetry_Int_Tables_number       1
_space_group_crystal_system       triclinic
_cell_length_a                    9.491096
_cell_length_b                    10.83187
_cell_length_c                    15.743664
_cell_angle_alpha                 89.81553
_cell_angle_beta                  73.091033
_cell_angle_gamma                 89.988528
_cell_volume                      1548.56669447

loop_
_atom_site_label
_atom_site_type_symbol
_atom_type_description
_atom_site_fract_x
_atom_site_fract_y
_atom_site_fract_z
_atom_type_partial_charge
C1    C     C_R   0.999977 0.262005 0.499998 0.770065
C2    C     C_R   0.000030 0.738023 0.499988 0.804883
C3    C     C_R   0.567391 0.314744 0.068310 -0.240680
C4    C     C_R   0.415186 0.466810 0.904200 -0.222163
C5    C     C_R   0.717876 0.314696 0.025264 -0.244064
C6    C     C_R   0.268852 0.481137 0.952646 -0.238761
C7    C     C_R   0.872071 0.063953 0.499758 -0.195754
C8    C     C_R   0.127996 0.936210 0.500136 -0.186420
C9    C     C_R   0.871995 0.936252 0.499876 -0.185934
C10   C     C_R   0.127991 0.063918 0.500158 -0.189871
C11   C     C_R   0.999987 0.871869 0.500021 -0.020392
C12   C     C_R   0.999999 0.128251 0.500009 -0.007365
C13   C     C_R   0.555962 0.405173 0.537991 -0.038739
C14   C     C_R   0.444495 0.593938 0.460721 -0.027054
C15   C     C_R   0.406788 0.405753 0.538768 -0.036384
C16   C     C_R   0.593263 0.594162 0.461058 -0.035432
C17   C     C_R   0.916662 0.484572 0.670487 0.803757
C18   C     C_R   0.085379 0.492298 0.327958 0.804918
C19   C     C_R   0.866873 0.442214 0.763501 -0.093287
C20   C     C_R   0.138962 0.472785 0.230378 -0.080359
C21   C     C_R   0.920033 0.379531 0.898780 -0.219933
C22   C     C_R   0.078137 0.484682 0.091576 -0.218907
C23   C     C_R   0.967370 0.428847 0.813135 -0.225141
C24   C     C_R   0.035218 0.485805 0.183309 -0.231395
C25   C     C_R   0.719354 0.402084 0.801054 0.028797
C26   C     C_R   0.290051 0.443219 0.183328 0.028168
C27   C     C_R   0.666473 0.394682 0.894241 0.078500
C28   C     C_R   0.327858 0.424179 0.088816 0.053325
C29   C     C_R   0.769118 0.364334 0.940246 0.141958
C30   C     C_R   0.223980 0.460406 0.044194 0.144535
C31   C     C_R   0.516602 0.413562 0.943087 0.055803
C32   C     C_R   0.470001 0.384624 0.034969 0.053962
Cu1   Cu    Cu3+1 0.140660 0.500020 0.500000 0.923288
Cu2   Cu    Cu3+1 0.859340 0.499980 0.500000 0.930792
H1    H     H_    0.793375 0.274923 0.057838 0.148810
H2    H     H_    0.192604 0.517761 0.919379 0.145665
H3    H     H_    0.921010 0.506305 0.217318 0.165586
H4    H     H_    0.083157 0.449239 0.784031 0.161877
H5    H     H_    0.999850 0.358000 0.933672 0.145204
H6    H     H_    0.997315 0.507132 0.057445 0.144832
H7    H     H_    0.529228 0.264083 0.128895 0.179066
H8    H     H_    0.447567 0.499506 0.836590 0.155491
H9    H     H_    0.772164 0.112048 0.499391 0.140676
H10   H     H_    0.228069 0.888152 0.500208 0.143712
H11   H     H_    0.771940 0.888241 0.499756 0.143850
H12   H     H_    0.228054 0.111974 0.500240 0.141055
H13   H     H_    0.597339 0.328521 0.567573 0.121032
H14   H     H_    0.403991 0.668648 0.428591 0.113975
H15   H     H_    0.335689 0.330427 0.570162 0.118098
H16   H     H_    0.664621 0.669103 0.429232 0.116765
N1    N     N_R   0.352080 0.500030 0.499980 -0.160977
N2    N     N_R   0.647920 0.499970 0.500020 -0.152600
O1    O     O_R   0.118740 0.319660 0.500000 -0.609372
O2    O     O_R   0.881260 0.680340 0.500000 -0.587265
O3    O     O_R   0.881170 0.319630 0.500010 -0.600417
O4    O     O_R   0.118830 0.680370 0.499990 -0.588196
O5    O     O_R   0.055570 0.500030 0.629830 -0.574909
O6    O     O_R   0.944430 0.499970 0.370170 -0.579044
O7    O     O_R   0.818000 0.500000 0.629840 -0.584671
O8    O     O_R   0.182000 0.500000 0.370160 -0.598505
C33   C     C_3   0.413981 0.460415 0.227743 -0.362690
C34   C     C_3   0.434197 0.350142 0.286746 -0.323275
C35   C     C_3   0.592897 0.340618 0.290900 -0.863312
H17   H     H_    0.669790 0.319608 0.224754 0.248812
H18   H     H_    0.627189 0.428731 0.314704 0.263815
H19   H     H_    0.601159 0.265777 0.337599 0.240946
H20   H     H_    0.364874 0.359203 0.355929 0.266617
H21   H     H_    0.399609 0.261484 0.263940 0.193131
H22   H     H_    0.519504 0.482622 0.177485 0.198881
H23   H     H_    0.398753 0.547726 0.265855 0.193473
C36   C     C_3   0.641861 0.329863 0.743655 -0.387039
C37   C     C_3   0.568274 0.208979 0.786319 -0.351375
C38   C     C_3   0.512517 0.133691 0.720801 -0.876766
H24   H     H_    0.430812 0.187870 0.698036 0.245220
H25   H     H_    0.605473 0.107386 0.662494 0.252327
H26   H     H_    0.458603 0.048089 0.753705 0.252616
H27   H     H_    0.649084 0.152545 0.808408 0.229474
H28   H     H_    0.472783 0.228274 0.844755 0.235914
H29   H     H_    0.561521 0.388877 0.723728 0.193576
H30   H     H_    0.725258 0.300324 0.681715 0.215200

loop_
_geom_bond_atom_site_label_1
_geom_bond_atom_site_label_2
_ccdc_geom_bond_type
C33   H23   S    
C35   H18   S    
C9    H11   S    
C27   C29   A    
C38   H24   S    
C36   H29   S    
C37   H27   S    
C4    H8    S    
C34   H20   S    
C26   C33   S    
C16   H16   S    
C1    O1    A    
C37   H28   S    
C18   O6    A    
C31   C32   A    
C10   H12   S    
C25   C36   S    
C15   N1    A    
C18   C20   S    
Cu1   O4    S    
C35   H19   S    
Cu2   O3    S    
C38   H25   S    
C33   C34   S    
C1    C12   S    
C2    C11   S    
C36   H30   S    
C24   H3    S    
C5    C29   A    
C21   C23   A    
Cu1   O1    S    
C7    C12   A    
C27   C31   A    
C16   N2    A    
C28   C32   A    
C4    C6    A    
C2    O2    A    
C13   H13   S    
C14   H14   S    
C21   C29   A    
C19   C23   A    
C34   C35   S    
C13   N2    A    
C14   N1    A    
C21   H5    S    
C22   H6    S    
Cu1   Cu2   S    
C9    C11   A    
C10   C12   A    
C17   O7    A    
C18   O8    A    
C6    C30   A    
Cu2   O2    S    
Cu1   O8    S    
C7    H9    S    
C13   C15   A    
Cu2   O7    S    
C38   H26   S    
C14   C16   A    
C25   C27   A    
C33   H22   S    
C7    C9    A    
C3    H7    S    
Cu1   O5    S    
C22   C30   A    
Cu2   N2    S    
C8    H10   S    
C37   C38   S    
C3    C5    A    
Cu1   N1    S    
C23   H4    S    
C26   C28   A    
C34   H21   S    
C28   C30   A    
C1    O3    A    
C36   C37   S    
C2    O4    A    
C20   C26   A    
C8    C11   A    
C5    H1    S    
C17   C19   S    
C6    H2    S    
C22   C24   A    
C15   H15   S    
C3    C32   A    
C19   C25   A    
C4    C31   A    
C35   H17   S    
C8    C10   A    
Cu2   O6    S    
C20   C24   A    
C17   O5    A    
