data_mof_unit_57354.cif
_audit_creation_date              2012-12-10T20:43:39-0500
_audit_creation_method            fapswitch 2.2
_symmetry_space_group_name_H-M    P1
_symmetry_Int_Tables_number       1
_space_group_crystal_system       triclinic
_cell_length_a                    18.641283
_cell_length_b                    18.684459
_cell_length_c                    18.735852
_cell_angle_alpha                 109.377971
_cell_angle_beta                  109.314539
_cell_angle_gamma                 109.192896
_cell_volume                      5055.99189154

loop_
_atom_site_label
_atom_site_type_symbol
_atom_type_description
_atom_site_fract_x
_atom_site_fract_y
_atom_site_fract_z
_atom_type_partial_charge
C1    C     C_R   0.381652 0.502108 0.380230 0.863578
C2    C     C_R   0.308791 0.452991 0.016815 -0.115711
C3    C     C_R   0.120108 0.118861 0.498700 0.871814
C4    C     C_R   0.002411 0.380228 0.881777 0.868022
C5    C     C_R   0.119968 0.498554 0.118929 0.868046
C6    C     C_R   0.998336 0.620033 0.118491 0.867541
C7    C     C_R   0.879970 0.498121 0.877932 0.866237
C8    C     C_R   0.101302 0.767369 0.548887 -0.155494
C9    C     C_R   0.092719 0.779876 0.477579 -0.088511
C10   C     C_R   0.012524 0.729050 0.399533 0.115619
C11   C     C_R   0.942739 0.662287 0.392400 -0.195999
C12   C     C_R   0.951410 0.650161 0.463919 -0.118280
C13   C     C_R   0.337876 0.533704 0.020020 -0.100600
C14   C     C_R   0.774934 0.730701 0.775015 -0.104750
C15   C     C_R   0.030518 0.702936 0.542249 -0.106233
C16   C     C_R   0.999640 0.676379 0.254885 -0.254039
C17   C     C_R   0.996796 0.685841 0.183386 -0.079862
C18   C     C_R   0.996966 0.759221 0.177594 0.022516
C19   C     C_R   0.996333 0.820587 0.243364 -0.279061
C20   C     C_R   0.999980 0.811682 0.315355 -0.094046
C21   C     C_R   0.004085 0.740205 0.322967 -0.015316
C22   C     C_R   0.065038 0.852779 0.123543 -0.283840
C23   C     C_R   0.068229 0.867995 0.055561 0.508281
C24   C     C_R   0.077971 0.253702 0.755121 -0.247140
C25   C     C_R   0.004990 0.804188 0.969422 -0.111919
C26   C     C_R   0.823160 0.820460 0.577176 -0.254657
C27   C     C_R   0.997119 0.184107 0.685592 -0.082886
C28   C     C_R   0.918257 0.179982 0.679454 0.023364
C29   C     C_R   0.922777 0.245270 0.746397 -0.258281
C30   C     C_R   0.003539 0.315131 0.815605 -0.100572
C31   C     C_R   0.082415 0.321195 0.819580 -0.016114
C32   C     C_R   0.772677 0.131639 0.559385 -0.265335
C33   C     C_R   0.765464 0.799497 0.821531 -0.132512
C34   C     C_R   0.689692 0.066482 0.489669 -0.136326
C35   C     C_R   0.663416 0.978687 0.464037 0.539258
C36   C     C_R   0.721622 0.956683 0.509358 -0.186141
C37   C     C_R   0.804123 0.021874 0.580075 -0.144047
C38   C     C_R   0.813632 0.810532 0.496762 -0.098192
C39   C     C_R   0.830753 0.109859 0.604899 0.135316
C40   C     C_R   0.739785 0.739238 0.417868 0.044302
C41   C     C_R   0.679980 0.675443 0.422097 -0.193742
C42   C     C_R   0.689518 0.685481 0.502379 -0.110310
C43   C     C_R   0.760211 0.759343 0.580896 -0.008972
C44   C     C_R   0.938995 0.726675 0.951080 -0.231584
C45   C     C_R   0.643394 0.717841 0.272609 0.478077
C46   C     C_R   0.627359 0.704124 0.188866 -0.241958
C47   C     C_R   0.688658 0.700290 0.162834 -0.169868
C48   C     C_R   0.621830 0.619940 0.501537 0.860334
C49   C     C_R   0.766583 0.710565 0.219895 -0.114993
C50   C     C_R   0.783633 0.725039 0.303298 -0.208147
C51   C     C_R   0.722611 0.728555 0.330471 0.084587
C52   C     C_R   0.436982 0.810139 0.512607 -0.248185
C53   C     C_R   0.370913 0.728255 0.441581 -0.205008
C54   C     C_R   0.391861 0.669639 0.395450 0.124149
C55   C     C_R   0.935028 0.712184 0.018502 -0.122240
C56   C     C_R   0.479859 0.694866 0.420674 -0.175322
C57   C     C_R   0.545835 0.776066 0.492698 -0.119579
C58   C     C_R   0.525285 0.834454 0.538922 0.521450
C59   C     C_R   0.255888 0.578067 0.253711 -0.247078
C60   C     C_R   0.618660 0.498309 0.619895 0.865451
C61   C     C_R   0.185822 0.497404 0.184321 -0.077676
C62   C     C_R   0.178890 0.418620 0.180728 0.021519
C63   C     C_R   0.246444 0.423150 0.245425 -0.266485
C64   C     C_R   0.316613 0.503667 0.314500 -0.084959
C65   C     C_R   0.321171 0.582490 0.320699 0.017097
C66   C     C_R   0.998881 0.774542 0.105251 0.093867
C67   C     C_R   0.060470 0.272462 0.133983 -0.205955
C68   C     C_R   0.992309 0.188451 0.069550 -0.254389
C69   C     C_R   0.966480 0.161397 0.981241 0.529640
C70   C     C_R   0.009439 0.219702 0.958867 -0.116476
C71   C     C_R   0.077377 0.303810 0.023387 -0.219897
C72   C     C_R   0.378279 0.380059 0.498610 0.868833
C73   C     C_R   0.103642 0.330974 0.111425 0.136956
C74   C     C_R   0.207803 0.518900 0.570464 -0.145062
C75   C     C_R   0.222148 0.450045 0.570710 -0.148896
C76   C     C_R   0.225790 0.395883 0.500665 0.139066
C77   C     C_R   0.284257 0.544783 0.956996 -0.152589
C78   C     C_R   0.213798 0.410882 0.429985 -0.128602
C79   C     C_R   0.198999 0.479553 0.429812 -0.118629
C80   C     C_R   0.196331 0.533697 0.500110 -0.106373
C81   C     C_R   0.176853 0.255968 0.500148 -0.253835
C82   C     C_R   0.186005 0.184057 0.497513 -0.075217
C83   C     C_R   0.257935 0.176441 0.495182 -0.006155
C84   C     C_R   0.757355 0.856789 0.790977 -0.098683
C85   C     C_R   0.319874 0.241968 0.494816 -0.259244
C86   C     C_R   0.310780 0.313892 0.497336 -0.081361
C87   C     C_R   0.239083 0.321824 0.500241 -0.005106
C88   C     C_R   0.200961 0.475565 0.891487 -0.090940
C89   C     C_R   0.340897 0.111625 0.558700 -0.141669
C90   C     C_R   0.353498 0.040625 0.553224 -0.132983
C91   C     C_R   0.295343 0.958434 0.479290 -0.121907
C92   C     C_R   0.224399 0.947071 0.410820 -0.129795
C93   C     C_R   0.210888 0.017662 0.416435 -0.132922
C94   C     C_R   0.269169 0.100453 0.490521 0.135097
C95   C     C_R   0.545952 0.564242 0.855378 -0.141101
C96   C     C_R   0.758855 0.845444 0.713997 -0.095285
C97   C     C_R   0.615949 0.565451 0.842429 -0.152161
C98   C     C_R   0.602038 0.495328 0.770510 0.139012
C99   C     C_R   0.170071 0.395173 0.889679 0.110804
C100  C     C_R   0.517476 0.423645 0.712349 -0.129520
C101  C     C_R   0.447762 0.422456 0.725929 -0.122912
C102  C     C_R   0.461909 0.492823 0.797134 -0.107145
C103  C     C_R   0.742190 0.495779 0.819909 -0.259346
C104  C     C_R   0.813524 0.496431 0.810330 -0.083336
C105  C     C_R   0.820921 0.497713 0.738318 -0.008707
C106  C     C_R   0.754807 0.497073 0.675816 -0.261609
C107  C     C_R   0.683432 0.496234 0.685366 -0.082577
C108  C     C_R   0.767507 0.775854 0.666542 0.107219
C109  C     C_R   0.676656 0.496229 0.757996 -0.007725
C110  C     C_R   0.225685 0.383553 0.951167 -0.198041
C111  C     C_R   0.950693 0.568916 0.723997 -0.146007
C112  C     C_R   0.019486 0.568297 0.709524 -0.137392
C113  C     C_R   0.032682 0.496529 0.695558 -0.127971
C114  C     C_R   0.977126 0.425291 0.696073 -0.131662
C115  C     C_R   0.908668 0.425931 0.711247 -0.124125
C116  C     C_R   0.895132 0.497878 0.725418 0.137949
C117  C     C_R   0.998809 0.878027 0.380361 0.874442
C118  C     C_R   0.879828 0.878063 0.498150 0.861961
C119  C     C_R   0.998249 0.118710 0.619792 0.865376
C120  C     C_R   0.776534 0.719006 0.697999 -0.122678
H1    H     H_    0.763448 0.807801 0.880696 0.124877
H2    H     H_    0.960055 0.144519 0.088529 0.134686
H3    H     H_    0.990303 0.199571 0.891219 0.164086
H4    H     H_    0.109602 0.347912 0.004928 0.130922
H5    H     H_    0.184964 0.586850 0.499872 0.126206
H6    H     H_    0.230775 0.439114 0.625521 0.117521
H7    H     H_    0.215139 0.368971 0.374906 0.100418
H8    H     H_    0.189168 0.490638 0.375060 0.139462
H9    H     H_    0.750697 0.889211 0.690007 0.165598
H10   H     H_    0.120989 0.260684 0.502187 0.154422
H11   H     H_    0.375804 0.237184 0.493065 0.158493
H12   H     H_    0.675676 0.689253 0.098277 0.140676
H13   H     H_    0.386850 0.175230 0.615962 0.123464
H14   H     H_    0.408666 0.049435 0.606046 0.127965
H15   H     H_    0.305445 0.903626 0.474852 0.121610
H16   H     H_    0.180296 0.883596 0.353247 0.147123
H17   H     H_    0.155998 0.008231 0.362750 0.105146
H18   H     H_    0.407822 0.491820 0.807384 0.123646
H19   H     H_    0.556915 0.618544 0.910726 0.122298
H20   H     H_    0.680850 0.621065 0.888085 0.117492
H21   H     H_    0.505837 0.368597 0.657172 0.104102
H22   H     H_    0.382796 0.366884 0.681548 0.140182
H23   H     H_    0.813689 0.707061 0.199290 0.155768
H24   H     H_    0.738050 0.495745 0.876336 0.154812
H25   H     H_    0.759286 0.498014 0.619799 0.153985
H26   H     H_    0.940798 0.624700 0.734336 0.118425
H27   H     H_    0.062334 0.623286 0.708762 0.120590
H28   H     H_    0.085724 0.495952 0.683994 0.117135
H29   H     H_    0.986984 0.369475 0.684307 0.142433
H30   H     H_    0.865656 0.370190 0.710971 0.102495
H31   H     H_    0.037230 0.693304 0.597482 0.118445
H32   H     H_    0.778840 0.685237 0.797559 0.128580
H33   H     H_    0.148398 0.829168 0.483155 0.132564
H34   H     H_    0.419319 0.854161 0.547304 0.120366
H35   H     H_    0.881622 0.619861 0.331571 0.135958
H36   H     H_    0.896982 0.599484 0.458441 0.134442
H37   H     H_    0.001910 0.620541 0.259151 0.158258
H38   H     H_    0.994620 0.876649 0.239257 0.160343
H39   H     H_    0.114369 0.901280 0.190478 0.126343
H40   H     H_    0.007019 0.814644 0.916466 0.152606
H41   H     H_    0.891267 0.677487 0.884379 0.154549
H42   H     H_    0.878497 0.877440 0.637186 0.161850
H43   H     H_    0.882728 0.652179 0.003155 0.108539
H44   H     H_    0.402218 0.587377 0.070837 0.117031
H45   H     H_    0.303361 0.710198 0.423038 0.139091
H46   H     H_    0.307310 0.606940 0.958773 0.123040
H47   H     H_    0.160407 0.484662 0.842469 0.132378
H48   H     H_    0.350766 0.444129 0.064990 0.139756
H49   H     H_    0.137999 0.256755 0.757655 0.159057
H50   H     H_    0.862845 0.242456 0.743890 0.163675
H51   H     H_    0.791864 0.199204 0.577696 0.149783
H52   H     H_    0.645648 0.084321 0.455312 0.157839
H53   H     H_    0.623858 0.618880 0.362333 0.166721
H54   H     H_    0.703367 0.889294 0.489763 0.147365
H55   H     H_    0.847341 0.003815 0.615239 0.119044
H56   H     H_    0.497327 0.651308 0.385042 0.149830
H57   H     H_    0.567315 0.696157 0.143667 0.122607
H58   H     H_    0.844384 0.733486 0.346975 0.128260
H59   H     H_    0.567185 0.947904 0.633996 0.327241
H60   H     H_    0.613308 0.793670 0.512901 0.149476
H61   H     H_    0.243511 0.363347 0.243027 0.159459
H62   H     H_    0.877418 0.045925 0.942601 0.317756
H63   H     H_    0.205308 0.560617 0.624696 0.120919
H64   H     H_    0.782498 0.664587 0.661774 0.100024
H65   H     H_    0.162950 0.807378 0.609166 0.121610
H66   H     H_    0.171558 0.982018 0.134906 0.329190
H67   H     H_    0.258815 0.637939 0.256345 0.160773
H68   H     H_    0.204329 0.320974 0.948676 0.141489
H69   H     H_    0.571678 0.858204 0.386631 0.356734
H70   H     H_    0.531635 0.712124 0.251095 0.329643
H71   H     H_    0.748294 0.909026 0.826082 0.149235
H72   H     H_    0.079652 0.291942 0.201596 0.145610
O1    O     O_R   0.408360 0.551710 0.460090 -0.607372
O2    O     O_R   0.948290 0.356630 0.908390 -0.618166
O3    O     O_R   0.143340 0.551690 0.091580 -0.615568
O4    O     O_R   0.408400 0.448280 0.356670 -0.623661
O5    O     O_R   0.039900 0.448270 0.091610 -0.615168
O6    O     O_R   0.051710 0.643320 0.091560 -0.608556
O7    O     O_R   0.948270 0.539900 0.091590 -0.627865
O8    O     O_R   0.960100 0.551680 0.908340 -0.606202
O9    O     O_R   0.856660 0.448270 0.908370 -0.625486
O10   O     O_R   0.591600 0.643340 0.551710 -0.608113
O11   O     O_R   0.591630 0.539900 0.448290 -0.628934
O12   O     O_R   0.948280 0.908380 0.356650 -0.619143
O13   O     O_R   0.591600 0.551720 0.643330 -0.607948
O14   O     O_R   0.591640 0.448290 0.539910 -0.624461
O15   O     O_R   0.408370 0.460100 0.551710 -0.604734
O16   O     O_R   0.408400 0.356660 0.448290 -0.624631
O17   O     O_R   0.051730 0.908360 0.460060 -0.617815
O18   O     O_3   0.592495 0.914243 0.609020 -0.788946
O19   O     O_3   0.900102 0.078873 0.915844 -0.784249
O20   O     O_3   0.132274 0.943860 0.071173 -0.772357
O21   O     O_3   0.580942 0.916384 0.395012 -0.772166
O22   O     O_3   0.583367 0.721574 0.299329 -0.827294
O23   O     O_R   0.960110 0.908350 0.551690 -0.615401
O24   O     O_R   0.856660 0.908370 0.448270 -0.611643
O25   O     O_R   0.051720 0.091580 0.643310 -0.623859
O26   O     O_R   0.948270 0.091600 0.539890 -0.613745
O27   O     O_R   0.143340 0.091590 0.551680 -0.615371
O28   O     O_R   0.039890 0.091610 0.448270 -0.624898
O29   O     O_R   0.051730 0.460050 0.908360 -0.617540
Zn1   Zn    Zn3+2 0.499980 0.569060 0.569060 0.993239
Zn2   Zn    Zn3+2 0.500020 0.430940 0.430940 0.954194
Zn3   Zn    Zn3+2 0.069070 0.999960 0.569030 0.964137
Zn4   Zn    Zn3+2 0.930930 0.999990 0.430930 0.972668
Zn5   Zn    Zn3+2 0.069070 0.569030 0.999960 0.980956
Zn6   Zn    Zn3+2 0.930930 0.430930 0.000000 0.963763

loop_
_geom_bond_atom_site_label_1
_geom_bond_atom_site_label_2
_ccdc_geom_bond_type
C8    C9    A    
C79   H8    S    
C118  O24   A    
C36   H54   S    
C16   C21   A    
C63   H61   S    
H66   O20   S    
C41   C42   A    
O10   Zn1   S    
C105  C116  S    
C35   C36   A    
C24   C27   A    
O23   Zn3   S    
C55   C66   A    
C14   C33   A    
C15   H31   S    
C97   C98   A    
C57   C58   A    
C47   C49   A    
C54   C65   S    
C85   C86   A    
C99   C110  A    
O16   Zn2   S    
C4    O2    A    
C48   O11   A    
C110  H68   S    
C101  C102  A    
C106  H25   S    
C56   H56   S    
C113  H28   S    
H62   O19   S    
C28   C29   A    
C50   H58   S    
C76   C78   A    
C34   C35   A    
C100  H21   S    
C102  H18   S    
C30   C31   A    
C90   H14   S    
C60   O13   A    
C80   H5    S    
C45   C51   A    
C52   H34   S    
C4    O29   A    
C48   O10   A    
O13   Zn1   S    
C89   C94   A    
C56   C57   A    
C84   H71   S    
C18   C19   A    
C84   C96   A    
C32   C39   A    
C7    O8    A    
C2    C13   A    
C108  C120  A    
C22   C66   A    
O27   Zn3   S    
C68   C69   A    
C70   H3    S    
C62   C63   A    
C111  C112  A    
C77   C88   A    
C3    O28   A    
C119  O26   A    
C62   C73   S    
C59   H67   S    
C118  O23   A    
C67   C73   A    
C31   C99   S    
C29   H50   S    
C117  O12   A    
C9    C10   A    
C97   H20   S    
C61   C62   A    
C95   C102  A    
C11   H35   S    
C5    O3    A    
O25   Zn3   S    
C96   C108  A    
C9    H33   S    
C98   C109  S    
C74   C80   A    
C103  H24   S    
C33   H1    S    
C107  C109  A    
C46   H57   S    
C92   H16   S    
C25   H40   S    
C42   C43   A    
C78   H7    S    
C25   C44   A    
C104  C105  A    
C26   C43   A    
C17   C18   A    
C72   O15   A    
C13   C77   A    
C58   O18   S    
C10   C21   S    
C37   C39   A    
C54   C56   A    
C59   C61   A    
C89   H13   S    
C74   C75   A    
C5    C61   S    
C67   C68   A    
O4    Zn2   S    
C71   H4    S    
C1    O4    A    
C72   O16   A    
C111  H26   S    
C68   H2    S    
C91   C92   A    
C6    O6    A    
C40   C41   A    
C67   H72   S    
C16   C17   A    
C5    O5    A    
C74   H63   S    
C28   C39   S    
C50   C51   A    
C77   H46   S    
C53   C54   A    
C83   C94   S    
O29   Zn5   S    
C26   H42   S    
C81   C82   A    
C63   C64   A    
C32   C34   A    
O2    Zn6   S    
C42   C48   S    
C1    O1    A    
C75   C76   A    
C29   C30   A    
C37   H55   S    
C120  H64   S    
C101  H22   S    
H59   O18   S    
C12   C15   A    
O14   Zn2   S    
H69   O21   S    
C88   H47   S    
C3    C82   S    
C45   O22   S    
O11   Zn2   S    
C93   C94   A    
O8    Zn5   S    
C24   H49   S    
C35   O21   S    
C76   C87   S    
C81   C87   A    
C60   C107  S    
C52   C58   A    
C69   O19   S    
O5    Zn6   S    
C53   H45   S    
O1    Zn1   S    
C83   C85   A    
C32   H51   S    
C82   C83   A    
C8    C15   A    
C14   C120  A    
C7    C104  S    
H70   O22   S    
C44   H41   S    
C12   H36   S    
C1    C64   S    
C2    H48   S    
C103  C104  A    
C70   C71   A    
C34   H52   S    
C52   C53   A    
C13   H44   S    
C71   C73   A    
C113  C114  A    
O9    Zn6   S    
C6    C17   S    
C41   H53   S    
C46   C47   A    
C2    C110  A    
O26   Zn4   S    
O3    Zn5   S    
C16   H37   S    
C86   C87   A    
C19   H38   S    
C95   H19   S    
C26   C38   A    
C23   O20   S    
C57   H60   S    
C72   C86   S    
C11   C12   A    
C95   C97   A    
C114  C115  A    
C27   C119  S    
C8    H65   S    
C18   C66   S    
C40   C51   S    
C105  C106  A    
C98   C100  A    
O24   Zn4   S    
C112  H27   S    
C47   H12   S    
C103  C109  A    
C75   H6    S    
C64   C65   A    
C19   C20   A    
C117  O17   A    
C111  C116  A    
C89   C90   A    
C24   C31   A    
C55   H43   S    
C7    O9    A    
C22   H39   S    
C85   H11   S    
C38   C40   A    
C78   C79   A    
C44   C55   A    
C60   O14   A    
C90   C91   A    
C6    O7    A    
C36   C37   A    
C49   H23   S    
C115  H30   S    
C92   C93   A    
O28   Zn4   S    
C112  C113  A    
C43   C108  S    
C23   C25   A    
C69   C70   A    
C33   C84   A    
C4    C30   S    
C88   C99   A    
C93   H17   S    
C10   C11   A    
C81   H10   S    
C79   C80   A    
C38   C118  S    
C45   C46   A    
C91   H15   S    
C20   C21   A    
O15   Zn1   S    
C3    O27   A    
C49   C50   A    
C106  C107  A    
C14   H32   S    
C27   C28   A    
C119  O25   A    
O17   Zn3   S    
C22   C23   A    
C100  C101  A    
C114  H29   S    
C115  C116  A    
O12   Zn4   S    
O7    Zn6   S    
C59   C65   A    
O6    Zn5   S    
C96   H9    S    
C20   C117  S    
