data_mof_unit_39997.cif
_audit_creation_date              2012-12-10T17:33:44-0500
_audit_creation_method            fapswitch 2.2
_symmetry_space_group_name_H-M    P1
_symmetry_Int_Tables_number       1
_space_group_crystal_system       triclinic
_cell_length_a                    11.694357
_cell_length_b                    12.334226
_cell_length_c                    13.128536
_cell_angle_alpha                 116.741747
_cell_angle_beta                  77.879205
_cell_angle_gamma                 101.106281
_cell_volume                      1642.95161751

loop_
_atom_site_label
_atom_site_type_symbol
_atom_type_description
_atom_site_fract_x
_atom_site_fract_y
_atom_site_fract_z
_atom_type_partial_charge
C1    C     C_R   0.513519 0.854593 0.285701 0.789209
C2    C     C_R   0.453924 0.228548 0.834857 -0.068533
C3    C     C_R   0.602175 0.811650 0.082036 0.148586
C4    C     C_R   0.613307 0.734262 0.964584 -0.229797
C5    C     C_R   0.558947 0.614501 0.924077 0.115323
C6    C     C_R   0.493562 0.568376 0.003448 0.073720
C7    C     C_R   0.463015 0.653050 0.119195 -0.008153
C8    C     C_R   0.453841 0.442329 0.972160 0.097593
C9    C     C_R   0.366141 0.406606 0.047336 0.150481
C10   C     C_R   0.322078 0.494797 0.153308 -0.235947
C11   C     C_R   0.370163 0.616019 0.189208 -0.171171
C12   C     C_R   0.715733 0.999549 0.499753 0.810053
C13   C     C_R   0.502788 0.350037 0.870804 -0.208699
C14   C     C_R   0.365209 0.194323 0.908122 -0.192884
C15   C     C_R   0.524146 0.772862 0.160739 -0.124913
C16   C     C_R   0.686927 0.345690 0.328300 -0.301846
C17   C     C_R   0.341968 0.760069 0.645390 0.082677
C18   C     C_R   0.305925 0.663158 0.676013 -0.258501
C19   C     C_R   0.364587 0.558964 0.620335 -0.204410
C20   C     C_R   0.461325 0.550922 0.533491 -0.010571
C21   C     C_R   0.494769 0.652573 0.504727 0.289408
C22   C     C_R   0.526110 0.446511 0.474382 -0.038172
C23   C     C_R   0.482278 0.145205 0.713676 0.794949
C24   C     C_R   0.621739 0.445836 0.387526 0.172991
C25   C     C_R   0.652370 0.545273 0.360461 -0.278220
C26   C     C_R   0.590715 0.646422 0.418048 -0.176661
C27   C     C_R   0.501004 0.342072 0.497495 0.036157
C28   C     C_R   0.657842 0.246313 0.355283 0.091686
C29   C     C_R   0.284279 0.000316 0.500059 0.812974
C30   C     C_1   0.837399 0.999066 0.499717 -0.187723
C31   C     C_1   0.940013 0.999343 0.499657 -0.005688
C32   C     C_1   0.060018 0.000062 0.499654 -0.005240
C33   C     C_1   0.162628 0.000513 0.499764 -0.185046
C34   C     C_R   0.323136 0.282880 0.015141 -0.190112
Cu1   Cu    Cu3+1 0.526510 0.098270 0.475420 0.950549
Cu2   Cu    Cu3+1 0.473490 0.901730 0.524580 0.921504
H1    H     H_    0.325865 0.100390 0.881170 0.145731
H2    H     H_    0.725539 0.545349 0.294220 0.150987
H3    H     H_    0.760159 0.344483 0.261810 0.136659
H4    H     H_    0.430305 0.334768 0.562235 0.131845
H5    H     H_    0.295770 0.840524 0.688893 0.124188
H6    H     H_    0.332790 0.486665 0.647401 0.146211
H7    H     H_    0.232186 0.668751 0.743016 0.146237
H8    H     H_    0.622056 0.718058 0.391650 0.203712
H9    H     H_    0.252095 0.469625 0.210037 0.144379
H10   H     H_    0.254802 0.255188 0.071386 0.134758
H11   H     H_    0.579952 0.369925 0.817914 0.177371
H12   H     H_    0.665809 0.766738 0.903215 0.142703
H13   H     H_    0.330674 0.680398 0.271193 0.174450
H14   H     H_    0.708063 0.168860 0.310248 0.136662
N1    N     N_R   0.566700 0.246290 0.438210 -0.182497
N2    N     N_R   0.434010 0.754320 0.561170 -0.205334
O1    O     O_R   0.533340 0.972510 0.318140 -0.541936
O2    O     O_R   0.488570 0.806530 0.359650 -0.609840
O3    O     O_R   0.685190 0.083000 0.479260 -0.577284
O4    O     O_R   0.640410 0.917020 0.520770 -0.590466
O5    O     O_R   0.511430 0.193470 0.640350 -0.575966
O6    O     O_R   0.466660 0.027490 0.681860 -0.585362
O7    O     O_R   0.359590 0.082980 0.479230 -0.573934
O8    O     O_R   0.314810 0.917000 0.520740 -0.586568
N3    N     N_3   0.669743 0.929978 0.121228 -0.568446
H15   H     H_    0.714201 0.948119 0.051688 0.206538
H16   H     H_    0.734394 0.927587 0.164201 0.200218
N4    N     N_3   0.560595 0.545941 0.802074 -0.611677
H17   H     H_    0.648375 0.540373 0.763271 0.214783
H18   H     H_    0.522955 0.594600 0.772298 0.236306

loop_
_geom_bond_atom_site_label_1
_geom_bond_atom_site_label_2
_ccdc_geom_bond_type
C16   C28   A    
C23   O6    A    
C6    C8    A    
C1    O2    A    
C29   O8    A    
C24   C25   A    
C14   C34   A    
C6    C7    A    
Cu2   O4    S    
C25   H2    S    
Cu1   O1    S    
C9    C10   A    
C19   C20   A    
Cu2   N2    S    
C19   H6    S    
C27   H4    S    
Cu1   O5    S    
C32   C33   T    
C10   H9    S    
C7    C15   A    
C17   C18   A    
C26   H8    S    
C16   C24   A    
C31   C32   S    
C18   H7    S    
N4    H17   S    
C14   H1    S    
C7    C11   A    
C34   H10   S    
C30   C31   T    
C12   O4    A    
C1    C15   S    
C5    C6    A    
C17   N2    A    
C21   C26   A    
C27   N1    A    
C9    C34   A    
Cu2   O6    S    
C22   C27   A    
C3    N3    S    
Cu1   N1    S    
N3    H15   S    
C2    C14   A    
C28   N1    A    
C22   C24   A    
C17   H5    S    
Cu2   O2    S    
C10   C11   A    
C16   H3    S    
Cu1   O3    S    
C3    C4    A    
C12   O3    A    
C8    C13   A    
C29   C33   S    
C21   N2    A    
C3    C15   A    
C20   C21   A    
Cu1   O7    S    
C18   C19   A    
C4    H12   S    
C2    C23   S    
C13   H11   S    
C2    C13   A    
C1    O1    A    
C4    C5    A    
C11   H13   S    
C23   O5    A    
C12   C30   S    
C25   C26   A    
C28   H14   S    
N3    H16   S    
C29   O7    A    
C5    N4    S    
C20   C22   A    
C8    C9    A    
Cu2   O8    S    
Cu1   Cu2   S    
N4    H18   S    
