data_mof_unit_41819.cif
_audit_creation_date              2012-12-10T20:45:27-0500
_audit_creation_method            fapswitch 2.2
_symmetry_space_group_name_H-M    P1
_symmetry_Int_Tables_number       1
_space_group_crystal_system       triclinic
_cell_length_a                    10.627906
_cell_length_b                    10.681338
_cell_length_c                    9.90789
_cell_angle_alpha                 89.363898
_cell_angle_beta                  89.26422
_cell_angle_gamma                 89.909542
_cell_volume                      1124.58300126

loop_
_atom_site_label
_atom_site_type_symbol
_atom_type_description
_atom_site_fract_x
_atom_site_fract_y
_atom_site_fract_z
_atom_type_partial_charge
C1    C     C_R   0.501277 0.260160 0.500502 0.877770
C2    C     C_R   0.235206 0.944642 0.316360 -0.096967
C3    C     C_R   0.932579 0.598538 0.450755 -0.253373
C4    C     C_R   0.871601 0.491651 0.498205 -0.108269
C5    C     C_R   0.936361 0.385272 0.545157 -0.014597
C6    C     C_R   0.067766 0.388163 0.544398 0.164771
C7    C     C_R   0.127905 0.498942 0.500393 -0.096028
C8    C     C_R   0.061634 0.603572 0.451972 -0.049252
C9    C     C_R   0.830752 0.263475 0.730573 -0.098957
C10   C     C_R   0.790941 0.148762 0.785196 -0.151566
C11   C     C_R   0.790897 0.041900 0.705045 -0.123193
C12   C     C_R   0.260636 0.503224 0.500395 0.911616
C13   C     C_R   0.825258 0.050596 0.568577 -0.130281
C14   C     C_R   0.863070 0.165589 0.512959 -0.168371
C15   C     C_R   0.868932 0.272053 0.594648 0.101523
C16   C     C_R   0.508060 0.062017 0.622135 0.181836
C17   C     C_R   0.515299 0.128457 0.501011 -0.091007
C18   C     C_R   0.545094 0.066090 0.380749 -0.243926
C19   C     C_R   0.545904 0.936759 0.380288 -0.245201
C20   C     C_R   0.517534 0.871335 0.500054 -0.087681
C21   C     C_R   0.510041 0.934768 0.621819 0.116233
C22   C     C_3   0.418395 0.924856 0.737135 -0.483550
C23   C     C_R   0.502200 0.739794 0.499542 0.885968
C24   C     C_3   0.415984 0.067026 0.737042 -0.519996
C25   C     C_R   0.437708 0.409084 0.073302 0.169309
C26   C     C_R   0.574528 0.580832 0.067371 0.237380
C27   C     C_R   0.572380 0.580904 0.924157 -0.155708
C28   C     C_R   0.438088 0.408698 0.931288 0.199293
C29   C     C_3   0.300952 0.379296 0.928872 -0.516338
C30   C     C_3   0.300943 0.380250 0.082148 -0.490050
C31   C     C_R   0.739278 0.495090 0.499432 0.886082
C32   C     C_R   0.190790 0.933044 0.449297 -0.139837
C33   C     C_R   0.135335 0.821267 0.494134 -0.192248
C34   C     C_R   0.124410 0.720173 0.405872 0.111742
C35   C     C_R   0.169149 0.732178 0.272436 -0.097705
C36   C     C_R   0.225026 0.844013 0.228142 -0.140683
H1    H     H_    0.277857 0.031427 0.281902 0.128778
H2    H     H_    0.762474 0.952644 0.748213 0.125276
H3    H     H_    0.824003 0.967930 0.506378 0.139208
H4    H     H_    0.894195 0.170377 0.408513 0.140285
H5    H     H_    0.560500 0.116141 0.286300 0.170268
H6    H     H_    0.560532 0.889235 0.285649 0.172542
H7    H     H_    0.327482 0.882115 0.708275 0.207039
H8    H     H_    0.462004 0.883717 0.828932 0.200787
H9    H     H_    0.323686 0.106734 0.707657 0.199219
H10   H     H_    0.457857 0.107827 0.828897 0.207166
H11   H     H_    0.199580 0.010467 0.517710 0.138182
H12   H     H_    0.628824 0.647279 0.866400 0.157382
H13   H     H_    0.243955 0.455967 0.883555 0.221640
H14   H     H_    0.282990 0.284532 0.888558 0.194359
H15   H     H_    0.244628 0.457967 0.125622 0.213377
H16   H     H_    0.282823 0.286653 0.128552 0.196452
H17   H     H_    0.100586 0.813564 0.597164 0.131719
H18   H     H_    0.159865 0.655498 0.202809 0.118130
H19   H     H_    0.259730 0.852921 0.125271 0.125363
H20   H     H_    0.879130 0.678931 0.415320 0.142414
H21   H     H_    0.836574 0.344310 0.795244 0.132286
H22   H     H_    0.762991 0.142056 0.890453 0.124126
N1    N     N_R   0.499160 0.499140 0.142800 -0.111673
N2    N     N_R   0.499160 0.499180 0.857150 -0.123259
O1    O     O_R   0.500020 0.316790 0.614690 -0.607835
O2    O     O_R   0.500000 0.316760 0.385350 -0.626663
O3    O     O_R   0.316770 0.500030 0.614670 -0.620449
O4    O     O_R   0.316750 0.499990 0.385330 -0.620423
O5    O     O_R   0.500000 0.683240 0.614650 -0.624033
O6    O     O_R   0.499980 0.683210 0.385310 -0.624780
O7    O     O_R   0.683250 0.500010 0.614670 -0.623505
O8    O     O_R   0.683230 0.499970 0.385330 -0.627110
Zn1   Zn    Zn3+2 0.500010 0.500020 0.653130 0.935820
Zn2   Zn    Zn3+2 0.499990 0.499980 0.346870 0.937983
C37   C     C_3   0.662721 0.673414 0.128359 -0.883431
H23   H     H_    0.667817 0.668490 0.238064 0.291806
H24   H     H_    0.759541 0.656560 0.089000 0.215024
H25   H     H_    0.634076 0.769686 0.098530 0.202333
C38   C     C_3   0.145523 0.275135 0.586742 -0.949068
H26   H     H_    0.089710 0.193174 0.620719 0.249357
H27   H     H_    0.206195 0.245275 0.500844 0.224050
H28   H     H_    0.205697 0.300103 0.672307 0.251119

loop_
_geom_bond_atom_site_label_1
_geom_bond_atom_site_label_2
_ccdc_geom_bond_type
C27   H12   S    
C30   H15   S    
C16   C21   A    
C35   C36   A    
C1    O2    A    
C6    C38   S    
C29   H13   S    
C25   C28   A    
C31   O7    A    
C26   C27   A    
C24   H9    S    
C23   O6    A    
C28   C29   S    
C10   H22   S    
C18   C19   A    
C27   N2    A    
C5    C6    A    
C12   O4    A    
O1    Zn1   S    
O2    Zn2   S    
C2    C32   A    
C34   C35   A    
C22   H8    S    
C19   C20   A    
C16   C17   A    
O4    Zn2   S    
C26   N1    A    
C19   H6    S    
C16   C24   S    
C21   C22   S    
C35   H18   S    
C26   C37   S    
C7    C12   S    
C17   C18   A    
C29   H14   S    
C28   N2    A    
C33   H17   S    
C31   O8    A    
C5    C15   S    
O3    Zn1   S    
C7    C8    A    
C3    C8    A    
C18   H5    S    
C37   H24   S    
C12   O3    A    
O7    Zn1   S    
C11   H2    S    
C38   H26   S    
C29   C30   S    
C3    H20   S    
C22   H7    S    
C20   C23   S    
C33   C34   A    
C8    C34   S    
C38   H27   S    
C32   H11   S    
C22   C24   S    
C3    C4    A    
C9    C10   A    
C2    C36   A    
C25   C30   S    
C30   H16   S    
C4    C5    A    
C1    O1    A    
C37   H25   S    
C6    C7    A    
C1    C17   S    
C24   H10   S    
C32   C33   A    
C23   O5    A    
C9    C15   A    
C37   H23   S    
C36   H19   S    
C11   C13   A    
C2    H1    S    
O6    Zn2   S    
N2    Zn1   S    
O5    Zn1   S    
C9    H21   S    
C38   H28   S    
C13   H3    S    
C4    C31   S    
C10   C11   A    
N1    Zn2   S    
C14   H4    S    
C20   C21   A    
O8    Zn2   S    
C14   C15   A    
C25   N1    A    
C13   C14   A    
