data_mof_unit_16822.cif
_audit_creation_date              2012-10-26T21:20:10-0400
_audit_creation_method            fapswitch 2.2
_symmetry_space_group_name_H-M    P1
_symmetry_Int_Tables_number       1
_space_group_crystal_system       triclinic
_cell_length_a                    12.973362
_cell_length_b                    10.831401
_cell_length_c                    9.520351
_cell_angle_alpha                 90.006852
_cell_angle_beta                  96.069036
_cell_angle_gamma                 90.324658
_cell_volume                      1330.27698317

loop_
_atom_site_label
_atom_site_type_symbol
_atom_type_description
_atom_site_fract_x
_atom_site_fract_y
_atom_site_fract_z
_atom_type_partial_charge
C1    C     C_R   0.500190 0.262080 0.499997 0.579086
C2    C     C_R   0.699308 0.506017 0.526139 0.578349
C3    C     C_R   0.811964 0.518191 0.539989 -0.012732
C4    C     C_R   0.188036 0.481806 0.460012 -0.012732
C5    C     C_R   0.024905 0.400082 0.349001 -0.113638
C6    C     C_R   0.975095 0.599909 0.651005 -0.113639
C7    C     C_R   0.133081 0.405921 0.356005 0.052631
C8    C     C_R   0.866920 0.594066 0.644002 0.052644
C9    C     C_R   0.134802 0.545663 0.557530 -0.140238
C10   C     C_R   0.865198 0.454337 0.442469 -0.140238
C11   C     C_R   0.027652 0.536284 0.552748 0.019418
C12   C     C_R   0.499810 0.737920 0.500003 0.579081
C13   C     C_R   0.972349 0.463713 0.447253 0.019418
C14   C     C_R   0.502022 0.063844 0.372669 -0.129016
C15   C     C_R   0.497978 0.936155 0.627331 -0.129011
C16   C     C_R   0.501892 0.936131 0.372662 -0.127625
C17   C     C_R   0.498107 0.063869 0.627338 -0.127624
C18   C     C_2   0.814342 0.676359 0.737934 0.570319
C19   C     C_2   0.185658 0.323615 0.262081 0.570323
C20   C     C_R   0.499874 0.871774 0.499996 0.037864
C21   C     C_R   0.500126 0.128226 0.500004 0.037864
C22   C     C_R   0.432899 0.426351 0.064596 0.019457
C23   C     C_R   0.567101 0.573649 0.935404 0.019462
C24   C     C_R   0.432919 0.426325 0.915841 0.016780
C25   C     C_R   0.567081 0.573675 0.084159 0.016784
C26   C     C_R   0.300692 0.493982 0.473861 0.578355
Cu1   Cu    Cu3+1 0.500000 0.500020 0.640660 0.978630
Cu2   Cu    Cu3+1 0.500000 0.499980 0.359340 0.978630
H1    H     H_    0.822815 0.396829 0.362457 0.129207
H2    H     H_    0.620724 0.632718 0.887355 0.143670
H3    H     H_    0.379265 0.367124 0.852031 0.127005
H4    H     H_    0.620735 0.632875 0.147969 0.127008
H5    H     H_    0.700458 0.799427 0.756736 0.324463
H6    H     H_    0.299556 0.200562 0.243283 0.324463
H7    H     H_    0.177185 0.603176 0.637540 0.129204
H8    H     H_    0.981873 0.341986 0.270244 0.145053
H9    H     H_    0.018127 0.657999 0.729766 0.145042
H10   H     H_    0.503606 0.111876 0.273117 0.126427
H11   H     H_    0.496393 0.888124 0.726883 0.126428
H12   H     H_    0.503454 0.888090 0.273114 0.130694
H13   H     H_    0.496546 0.111909 0.726887 0.130694
H14   H     H_    0.379275 0.367281 0.112645 0.143667
N1    N     N_R   0.500030 0.500030 0.852080 -0.236179
N2    N     N_R   0.499970 0.499970 0.147920 -0.236179
O1    O     O_R   0.499990 0.319660 0.618740 -0.512986
O2    O     O_R   0.726829 0.742584 0.684023 -0.694847
O3    O     O_2   0.149685 0.309265 0.139117 -0.526208
O4    O     O_R   0.273185 0.257415 0.315987 -0.694844
O5    O     O_R   0.500010 0.680340 0.381260 -0.512987
O6    O     O_R   0.499990 0.319630 0.381170 -0.497926
O7    O     O_R   0.500010 0.680370 0.618830 -0.497931
O8    O     O_R   0.349000 0.499990 0.599490 -0.511175
O9    O     O_R   0.651000 0.500010 0.400510 -0.511174
O10   O     O_R   0.348990 0.499960 0.361920 -0.476490
O11   O     O_R   0.651010 0.500040 0.638080 -0.476493
O12   O     O_2   0.850303 0.690676 0.860910 -0.526210

loop_
_geom_bond_atom_site_label_1
_geom_bond_atom_site_label_2
_ccdc_geom_bond_type
C4    C26   S    
Cu2   O9    S    
C23   H2    S    
C1    C21   S    
C26   O8    A    
C14   H10   S    
C9    C11   A    
C1    O6    A    
C5    C13   A    
C18   O12   D    
C16   C20   A    
C15   H11   S    
Cu1   O1    S    
C25   H4    S    
C8    C18   S    
C2    C3    S    
C6    H9    S    
C3    C10   A    
C10   C13   A    
H5    O2    S    
C11   C13   A    
C10   H1    S    
C1    O1    A    
C22   H14   S    
C12   C20   S    
C16   H12   S    
C4    C7    A    
C26   O10   A    
C14   C21   A    
Cu1   O7    S    
C12   O5    A    
Cu1   O11   S    
C2    O11   A    
C23   C25   A    
C15   C20   A    
C24   N1    A    
C14   C16   A    
C24   H3    S    
C17   H13   S    
H6    O4    S    
C5    H8    S    
C18   O2    S    
C6    C11   A    
C12   O7    A    
C23   N1    A    
Cu1   O8    S    
C25   N2    A    
C9    H7    S    
C3    C8    A    
Cu2   O5    S    
C19   O3    D    
Cu1   Cu2   S    
C5    C7    A    
Cu1   N1    S    
Cu2   O10   S    
C19   O4    S    
C7    C19   S    
C6    C8    A    
C4    C9    A    
C15   C17   A    
Cu2   O6    S    
Cu2   N2    S    
C22   N2    A    
C22   C24   A    
C2    O9    A    
C17   C21   A    
