data_mof_unit_63035.cif
_audit_creation_date              2013-03-05T16:01:04-0500
_audit_creation_method            fapswitch 2.2
_symmetry_space_group_name_H-M    P1
_symmetry_Int_Tables_number       1
_space_group_crystal_system       triclinic
_cell_length_a                    18.916524
_cell_length_b                    19.359441
_cell_length_c                    18.651316
_cell_angle_alpha                 109.573366
_cell_angle_beta                  108.152191
_cell_angle_gamma                 110.590625
_cell_volume                      5262.52810873

loop_
_atom_site_label
_atom_site_type_symbol
_atom_site_description
_atom_site_fract_x
_atom_site_fract_y
_atom_site_fract_z
_atom_type_partial_charge
O1    O     O_R   0.591120 0.552750 0.643890 -0.614991
O2    O     O_R   0.408880 0.447250 0.356110 -0.540964
O3    O     O_R   0.591210 0.447270 0.538420 -0.479692
O4    O     O_R   0.408790 0.552730 0.461580 -0.483366
C1    C     C_R   0.619543 0.501417 0.620821 0.921724
C2    C     C_R   0.380259 0.498698 0.379502 0.939031
O5    O     O_R   0.408810 0.461590 0.552740 -0.493523
O6    O     O_R   0.591190 0.538410 0.447260 -0.484842
O7    O     O_R   0.408900 0.356100 0.447280 -0.558277
O8    O     O_R   0.591100 0.643900 0.552720 -0.563028
C3    C     C_R   0.379925 0.380951 0.500702 0.869186
C4    C     C_R   0.619631 0.619049 0.498966 0.875431
Cu1   Cu    Cu3+1 0.499950 0.562450 0.562440 1.237113
Cu2   Cu    Cu3+1 0.500050 0.437550 0.437560 1.270047
H1    H     H_    0.068556 0.386877 0.760905 0.206503
H2    H     H_    0.935661 0.627134 0.251403 0.185503
C5    C     C_3   0.005171 0.331303 0.733174 0.019688
C6    C     C_3   0.000857 0.674085 0.269629 0.094121
C7    C     C_3   0.926452 0.220170 0.776987 0.457373
C8    C     C_3   0.072862 0.779069 0.217770 0.442813
C9    C     C_3   0.001538 0.188933 0.687423 -0.189614
C10   C     C_3   0.005492 0.816875 0.312738 -0.237660
C11   C     C_3   0.003753 0.259053 0.660603 0.517467
C12   C     C_3   0.019964 0.755286 0.347068 0.518813
C13   C     C_3   0.308848 0.345557 0.590426 0.120671
C14   C     C_3   0.693987 0.653809 0.411428 0.130982
H3    H     H_    0.370985 0.361704 0.640765 0.260184
H4    H     H_    0.631899 0.635587 0.358853 0.255224
C15   C     C_3   0.237442 0.273521 0.590288 -0.086599
C16   C     C_3   0.766053 0.725804 0.412152 -0.088598
H5    H     H_    0.191089 0.291382 0.601861 0.222929
H6    H     H_    0.814822 0.709636 0.405049 0.197297
C17   C     C_3   0.215834 0.279038 0.422641 0.436654
C18   C     C_3   0.782677 0.725432 0.581044 0.442209
C19   C     C_3   0.326625 0.236800 0.490290 -0.021870
C20   C     C_3   0.669242 0.760642 0.504473 -0.030258
C21   C     C_3   0.308216 0.312849 0.499781 -0.316090
C22   C     C_3   0.691088 0.687531 0.500213 -0.328130
H7    H     H_    0.384371 0.263915 0.553075 0.157994
H8    H     H_    0.611303 0.730320 0.440657 0.156787
C23   C     C_3   0.186825 0.189960 0.500039 -0.202113
C24   C     C_3   0.812374 0.810633 0.500197 -0.198960
C25   C     C_3   0.142670 0.208307 0.425152 0.472390
C26   C     C_3   0.855752 0.796577 0.579065 0.464257
C27   C     C_3   0.251107 0.161315 0.482046 0.658275
C28   C     C_3   0.743537 0.835916 0.510981 0.671872
C29   C     C_3   0.714984 0.575961 0.789528 0.399999
C30   C     C_3   0.276518 0.417336 0.213509 0.401189
C31   C     C_3   0.792993 0.581963 0.864496 0.298638
C32   C     C_3   0.207964 0.418608 0.136313 0.263024
H9    H     H_    0.696681 0.419223 0.811447 0.216917
H10   H     H_    0.300700 0.584930 0.189681 0.217222
C33   C     C_3   0.646566 0.413485 0.688532 0.531453
C34   C     C_3   0.353389 0.585499 0.309268 0.498634
C35   C     C_3   0.766368 0.521435 0.679598 0.070326
C36   C     C_3   0.236513 0.486616 0.326973 0.081869
C37   C     C_3   0.685458 0.503030 0.693678 -0.362460
C38   C     C_3   0.313613 0.497500 0.307774 -0.368816
H11   H     H_    0.791387 0.585105 0.687709 0.241175
H12   H     H_    0.212491 0.426469 0.327367 0.229043
C39   C     C_3   0.810611 0.507072 0.816670 -0.416335
C40   C     C_3   0.188367 0.492205 0.183720 -0.393714
C41   C     C_3   0.719331 0.418949 0.763872 0.027703
C42   C     C_3   0.278717 0.581374 0.236736 -0.011886
C43   C     C_3   0.838745 0.520356 0.747924 0.488181
C44   C     C_3   0.160750 0.480392 0.254411 0.488076
C45   C     C_3   0.004974 0.313358 0.810317 -0.371823
C46   C     C_3   0.995342 0.687334 0.188936 -0.410168
O9    O     O_R   0.052750 0.091090 0.643890 -0.548963
O10   O     O_R   0.947250 0.908910 0.356110 -0.541643
O11   O     O_R   0.947230 0.091150 0.538450 -0.510904
O12   O     O_R   0.052770 0.908850 0.461550 -0.528554
C47   C     C_R   0.001562 0.120269 0.619565 0.926270
C48   C     C_R   0.002838 0.883807 0.380363 0.903572
O13   O     O_R   0.143910 0.091120 0.552710 -0.508254
O14   O     O_R   0.856090 0.908880 0.447290 -0.501778
O15   O     O_R   0.038380 0.091180 0.447270 -0.546601
O16   O     O_R   0.961620 0.908820 0.552730 -0.547164
C49   C     C_R   0.119234 0.120300 0.500591 0.916142
C50   C     C_R   0.880572 0.880245 0.499941 0.925383
Cu3   Cu    Cu3+1 0.062480 0.999960 0.562430 1.236001
Cu4   Cu    Cu3+1 0.937520 0.000040 0.437570 1.255973
O17   O     O_R   0.052740 0.643910 0.091070 -0.514967
O18   O     O_R   0.947260 0.356090 0.908930 -0.502001
O19   O     O_R   0.947240 0.538460 0.091150 -0.517721
O20   O     O_R   0.052760 0.461540 0.908850 -0.538822
C51   C     C_R   0.997619 0.619132 0.119150 0.895624
C52   C     C_R   0.002539 0.380924 0.880823 0.928196
O21   O     O_R   0.961590 0.552710 0.908800 -0.516130
O22   O     O_R   0.038410 0.447290 0.091200 -0.511517
O23   O     O_R   0.856080 0.447270 0.908890 -0.537876
O24   O     O_R   0.143920 0.552730 0.091110 -0.544073
C53   C     C_R   0.879798 0.502045 0.881934 0.928927
C54   C     C_R   0.120001 0.497843 0.118194 0.954263
Cu5   Cu    Cu3+1 0.062470 0.562430 0.999950 1.302526
Cu6   Cu    Cu3+1 0.937530 0.437570 0.000050 1.309308
C55   C     C_3   0.918338 0.148363 0.695844 0.413490
C56   C     C_3   0.080276 0.857504 0.292140 0.473616
C57   C     C_3   0.084663 0.232885 0.777786 0.048175
C58   C     C_3   0.915607 0.764344 0.225544 0.069242
H13   H     H_    0.140741 0.251698 0.765801 0.182558
H14   H     H_    0.864675 0.742110 0.243778 0.152083
C59   C     C_3   0.093258 0.312666 0.847995 -0.040294
C60   C     C_3   0.906949 0.686409 0.153446 -0.031561
H15   H     H_    0.103225 0.306994 0.906711 0.239461
H16   H     H_    0.895773 0.692371 0.094556 0.216830
N1    N     N_R   0.353284 0.207423 0.424672 0.186891
O25   O     O_R   0.301861 0.169796 0.341375 -0.189873
O26   O     O_R   0.428878 0.214028 0.450370 -0.263394
N2    N     N_R   0.640978 0.790695 0.568436 0.187947
O27   O     O_R   0.692805 0.834300 0.652140 -0.188934
O28   O     O_R   0.563490 0.779539 0.540361 -0.264455
O29   O     O_3   0.283898 0.133940 0.539537 -0.610038
H17   H     H_    0.331273 0.183104 0.597128 0.381448
O30   O     O_3   0.709679 0.857311 0.447770 -0.613142
H18   H     H_    0.663141 0.805640 0.391509 0.379440
O31   O     O_3   0.204716 0.091097 0.397456 -0.591800
H19   H     H_    0.243126 0.068904 0.389956 0.407604
O32   O     O_3   0.785300 0.908771 0.592931 -0.584187
H20   H     H_    0.745365 0.930910 0.594243 0.394852
O33   O     O_3   0.214500 0.241124 0.343033 -0.595811
H21   H     H_    0.251507 0.287189 0.336778 0.365682
O34   O     O_3   0.780608 0.764034 0.658450 -0.595116
H22   H     H_    0.742088 0.718546 0.664215 0.373303
O35   O     O_3   0.096296 0.131615 0.344220 -0.566325
H23   H     H_    0.066934 0.141554 0.297621 0.413470
O36   O     O_3   0.897747 0.874807 0.657478 -0.565891
H24   H     H_    0.926958 0.868146 0.707005 0.414340
O37   O     O_3   0.643968 0.551391 0.805508 -0.607083
H25   H     H_    0.599797 0.561537 0.773459 0.405200
O38   O     O_3   0.346488 0.419445 0.199180 -0.569833
H26   H     H_    0.372357 0.465850 0.188235 0.386978
N3    N     N_R   0.738346 0.660391 0.795010 0.144213
O39   O     O_R   0.700597 0.700998 0.819776 -0.216931
O40   O     O_R   0.803577 0.701058 0.786691 -0.292179
N4    N     N_R   0.236768 0.336285 0.214476 0.142631
O41   O     O_R   0.272759 0.289743 0.208737 -0.180577
O42   O     O_R   0.160467 0.303055 0.207817 -0.293258
N5    N     N_R   0.871018 0.668962 0.916955 0.152289
O43   O     O_R   0.862791 0.734164 0.952446 -0.195403
O44   O     O_R   0.947351 0.680110 0.955886 -0.290337
N6    N     N_R   0.129329 0.333162 0.074663 0.192563
O45   O     O_R   0.062510 0.326783 0.018796 -0.327481
O46   O     O_R   0.138152 0.266767 0.048608 -0.190364
N7    N     N_R   0.765546 0.570232 0.928038 0.143293
O47   O     O_R   0.743654 0.621786 0.967531 -0.199590
O48   O     O_R   0.772403 0.517526 0.954164 -0.314673
N8    N     N_R   0.244827 0.436550 0.080697 0.085330
O49   O     O_R   0.233720 0.485671 0.050858 -0.301958
O50   O     O_R   0.265040 0.383895 0.039947 -0.226965
O51   O     O_3   0.077434 0.291663 0.650043 -0.729453
H27   H     H_    0.130778 0.330035 0.707199 0.320378
O52   O     O_3   0.964938 0.731526 0.382390 -0.691995
H28   H     H_    0.903864 0.702461 0.337307 0.292900
N9    N     N_R   0.568494 0.391125 0.699074 0.124486
O53   O     O_R   0.543856 0.333747 0.721581 -0.290096
O54   O     O_R   0.511040 0.406920 0.660931 -0.431115
N10   N     N_R   0.428444 0.603157 0.293895 0.061045
O55   O     O_R   0.485033 0.585106 0.329496 -0.413293
O56   O     O_R   0.452860 0.659077 0.269618 -0.302772
O57   O     O_3   0.745946 0.471424 0.592870 -0.593152
H29   H     H_    0.727587 0.411882 0.578271 0.428716
O58   O     O_3   0.261696 0.545336 0.412750 -0.581413
H30   H     H_    0.272819 0.601225 0.418678 0.431986
N11   N     N_R   0.924032 0.598785 0.788499 0.166732
O59   O     O_R   0.931090 0.672262 0.804301 -0.210412
O60   O     O_R   0.991924 0.592757 0.794943 -0.199110
N12   N     N_R   0.079707 0.401145 0.222657 0.166017
O61   O     O_R   0.030375 0.340452 0.142310 -0.195097
O62   O     O_R   0.052778 0.393899 0.277485 -0.206786
O63   O     O_3   0.846303 0.450460 0.705617 -0.613924
H31   H     H_    0.865675 0.458901 0.663915 0.411051
O64   O     O_3   0.148189 0.547822 0.291038 -0.625041
H32   H     H_    0.130980 0.542841 0.335028 0.416035
O65   O     O_3   0.621132 0.349630 0.605668 -0.645904
H33   H     H_    0.582493 0.293276 0.596306 0.404186
O66   O     O_3   0.384364 0.652379 0.392551 -0.623307
H34   H     H_    0.418098 0.707257 0.396271 0.406407
N13   N     N_R   0.723358 0.340440 0.734995 0.197715
O67   O     O_R   0.700731 0.292074 0.767744 -0.210921
O68   O     O_R   0.727434 0.307873 0.664044 -0.164058
N14   N     N_R   0.271922 0.658524 0.268071 0.189220
O69   O     O_R   0.288001 0.706837 0.233891 -0.215834
O70   O     O_R   0.268887 0.689312 0.339902 -0.188588
O71   O     O_3   0.943023 0.204528 0.847852 -0.618469
H35   H     H_    0.987093 0.187668 0.857354 0.404138
O72   O     O_3   0.059306 0.789385 0.143661 -0.617819
H36   H     H_    0.009011 0.797022 0.124714 0.386855
O73   O     O_3   0.916454 0.081609 0.711824 -0.614139
H37   H     H_    0.865604 0.058569 0.720118 0.394444
O74   O     O_3   0.064359 0.911136 0.261820 -0.617091
H38   H     H_    0.111422 0.938195 0.250059 0.398617
O75   O     O_3   0.931237 0.222707 0.579508 -0.563913
H39   H     H_    0.943447 0.262365 0.556391 0.417581
O76   O     O_3   0.106413 0.798777 0.413515 -0.568195
H40   H     H_    0.108115 0.793762 0.465243 0.425001
N15   N     N_R   0.838310 0.109048 0.611960 0.154952
O77   O     O_R   0.797988 0.148491 0.594743 -0.175458
O78   O     O_R   0.808300 0.032921 0.550350 -0.243756
N16   N     N_R   0.169545 0.912207 0.368632 0.166960
O79   O     O_R   0.183708 0.956340 0.446653 -0.229889
O80   O     O_R   0.235543 0.937663 0.355569 -0.252000
N17   N     N_R   0.842272 0.214655 0.753925 0.210778
O81   O     O_R   0.777818 0.148710 0.741310 -0.206331
O82   O     O_R   0.831449 0.276069 0.750919 -0.242667
N18   N     N_R   0.155117 0.779178 0.247000 0.189276
O83   O     O_R   0.203173 0.797114 0.211342 -0.153661
O84   O     O_R   0.185954 0.771554 0.314686 -0.203556
N19   N     N_R   0.947954 0.361565 0.701193 0.168217
O85   O     O_R   0.984548 0.439018 0.715076 -0.270033
O86   O     O_R   0.867615 0.309423 0.641117 -0.173145
N20   N     N_R   0.048704 0.631953 0.290845 0.188087
O87   O     O_R   0.114259 0.668067 0.367675 -0.201319
O88   O     O_R   0.006671 0.549122 0.245133 -0.280080
O89   O     O_3   0.085643 0.175273 0.807728 -0.610408
H41   H     H_    0.145232 0.202304 0.855596 0.391552
O90   O     O_3   0.901282 0.816116 0.191732 -0.583443
H42   H     H_    0.838628 0.784960 0.149453 0.391804
N21   N     N_R   0.174347 0.389487 0.875561 0.140412
O91   O     O_R   0.244905 0.386304 0.891585 -0.254847
O92   O     O_R   0.181493 0.463585 0.895182 -0.247652
N22   N     N_R   0.827219 0.608693 0.126688 0.153428
O93   O     O_R   0.823532 0.536962 0.114052 -0.243292
O94   O     O_R   0.755604 0.609909 0.109716 -0.251006
O95   O     O_3   0.308407 0.422524 0.620162 -0.599468
H43   H     H_    0.248818 0.410742 0.603578 0.402189
O96   O     O_3   0.696918 0.578067 0.385379 -0.595405
H44   H     H_    0.757357 0.591514 0.405054 0.398963
O97   O     O_3   0.274406 0.260512 0.659073 -0.681454
H45   H     H_    0.293605 0.311094 0.714044 0.382211
O98   O     O_3   0.730679 0.735602 0.340324 -0.684858
H46   H     H_    0.713842 0.684248 0.287446 0.379632
N23   N     N_R   0.194895 0.345984 0.423058 0.106292
O99   O     O_R   0.122537 0.323815 0.359734 -0.208205
O100  O     O_R   0.250017 0.426754 0.476210 -0.282181
N24   N     N_R   0.805870 0.660840 0.585306 0.110723
O101  O     O_R   0.753331 0.579741 0.531809 -0.278453
O102  O     O_R   0.877232 0.685062 0.651505 -0.210855
N25   N     N_R   0.078492 0.232456 0.437269 0.134730
O103  O     O_R   0.101553 0.305204 0.500041 -0.316963
O104  O     O_R   0.996756 0.183391 0.379351 -0.219082
N26   N     N_R   0.923405 0.775298 0.573559 0.137911
O105  O     O_R   0.904406 0.702977 0.513412 -0.314662
O106  O     O_R   0.003785 0.826478 0.634838 -0.218507

loop_
_geom_bond_atom_site_label_1
_geom_bond_atom_site_label_2
_geom_bond_distance
_ccdc_geom_bond_type
C57   C59   1.569170 S    
N17   O81   1.302652 A    
C26   O36   1.417553 S    
C24   C50   1.505240 S    
N11   O59   1.299654 A    
C10   C56   1.589321 S    
O22   C54   1.310213 A    
C35   H11   1.089199 S    
N9    O54   1.295588 A    
C23   C25   1.608988 S    
C2    C38   1.512438 S    
C6    N20   1.467461 S    
Cu5   Cu6   2.723266 S    
O16   Cu3   1.997319 S    
C32   N6    1.483326 S    
C8    N18   1.478736 S    
O89   H41   0.993261 S    
C18   N24   1.480949 S    
C25   O35   1.417626 S    
C60   H16   1.105395 S    
O57   H29   0.986252 S    
C7    C55   1.594370 S    
C26   N26   1.497457 S    
O34   H22   0.989396 S    
C29   C31   1.622052 S    
O64   H32   0.992863 S    
O5    C3    1.316076 A    
N17   O82   1.291281 A    
C36   O58   1.415775 S    
C45   C52   1.539462 S    
C18   O34   1.406137 S    
C57   O89   1.407694 S    
C28   O30   1.419517 S    
C43   O63   1.401787 S    
C6    C12   1.562598 S    
N21   O92   1.300387 A    
C19   C21   1.595166 S    
N25   O103  1.299757 A    
N8    O50   1.303490 A    
O29   H17   0.988976 S    
C5    N19   1.465740 S    
O18   Cu6   2.003327 S    
C9    C57   1.576014 S    
O19   Cu6   2.016250 S    
O20   C52   1.308660 A    
O23   C53   1.319724 A    
C36   H12   1.094536 S    
C6    C46   1.587903 S    
O30   H18   0.989166 S    
C43   N11   1.492418 S    
C58   C60   1.562401 S    
C41   N13   1.471230 S    
N24   O101  1.297410 A    
C39   C41   1.613876 S    
C24   C28   1.587837 S    
C13   O95   1.409172 S    
O4    Cu1   2.015243 S    
C3    C21   1.513577 S    
N14   O69   1.301516 A    
C40   C42   1.614570 S    
C13   C21   1.588772 S    
O23   Cu6   2.021188 S    
N2    O27   1.300865 A    
N10   O56   1.302840 A    
N6    O45   1.296919 A    
O58   H30   0.986112 S    
C32   N8    1.484802 S    
N16   O79   1.297058 A    
O10   C48   1.325461 A    
N26   O106  1.303337 A    
O51   H27   0.989133 S    
C36   C44   1.568717 S    
C44   O64   1.396075 S    
O9    C47   1.321084 A    
C36   C38   1.568296 S    
N23   O99   1.300981 A    
O12   Cu3   2.004547 S    
O7    C3    1.315011 A    
O11   Cu4   2.004548 S    
C42   N14   1.478472 S    
C55   O73   1.411577 S    
N11   O60   1.302345 A    
C18   C22   1.596911 S    
Cu1   Cu2   2.739376 S    
C29   N3    1.493061 S    
C1    C37   1.513513 S    
C17   O33   1.406194 S    
N1    O26   1.301611 A    
O2    C2    1.307974 A    
C24   C26   1.607596 S    
O2    Cu2   2.025805 S    
C60   N22   1.489700 S    
N7    O48   1.297015 A    
C30   N4    1.491746 S    
N7    O47   1.303224 A    
N14   O70   1.300168 A    
O15   C49   1.310065 A    
C9    C11   1.588340 S    
C13   C15   1.561997 S    
N19   O85   1.301038 A    
C5    C45   1.590062 S    
C10   C58   1.588315 S    
C40   C44   1.615794 S    
O19   C51   1.310187 A    
C45   C59   1.604319 S    
O74   H38   0.992858 S    
C17   C25   1.594689 S    
C55   N15   1.494916 S    
C20   H8    1.108601 S    
H9    C41   1.098314 S    
N8    O49   1.296332 A    
C35   O57   1.414712 S    
O12   C48   1.309579 A    
H10   C42   1.093462 S    
O14   Cu4   1.999107 S    
N21   O91   1.302390 A    
O11   C47   1.309640 A    
C33   C37   1.582115 S    
N18   O83   1.303335 A    
C14   C22   1.590233 S    
O14   C50   1.322155 A    
C12   O76   1.410209 S    
O90   H42   0.993217 S    
O22   Cu6   2.019624 S    
O24   Cu5   2.021191 S    
Cu3   Cu4   2.754255 S    
N13   O67   1.302773 A    
O21   C53   1.314236 A    
C16   O98   1.406950 S    
O21   Cu5   2.019625 S    
C19   H7    1.108082 S    
O7    Cu2   1.991533 S    
C40   C54   1.543333 S    
O97   H45   0.993547 S    
C27   O29   1.418799 S    
C29   C37   1.622750 S    
N3    O39   1.303202 A    
C9    C55   1.576631 S    
C30   O38   1.419374 S    
O96   H44   0.987310 S    
O98   H46   0.993538 S    
C14   O96   1.409200 S    
O6    C4    1.316735 A    
O17   Cu5   2.003327 S    
C11   O75   1.407034 S    
C7    N17   1.467987 S    
O95   H43   0.986385 S    
O32   H20   0.993575 S    
C31   N7    1.485436 S    
C56   N16   1.495732 S    
N25   O104  1.303299 A    
C5    C11   1.572160 S    
N5    O44   1.296652 A    
N15   O78   1.298114 A    
C7    C45   1.623517 S    
C30   C32   1.624255 S    
N23   O100  1.298273 A    
O63   H31   0.993278 S    
O33   H21   0.990185 S    
O3    Cu2   2.015241 S    
O8    C4    1.313222 A    
O66   H34   0.993424 S    
O9    Cu3   2.015296 S    
N4    O42   1.301629 A    
N12   O61   1.294126 A    
C57   H13   1.112860 S    
C58   H14   1.113439 S    
C29   O37   1.419429 S    
C58   O90   1.408449 S    
C33   N9    1.481696 S    
C31   N5    1.489974 S    
C20   N2    1.482819 S    
O35   H23   0.993648 S    
C25   N25   1.497613 S    
C59   H15   1.101546 S    
C10   C12   1.593255 S    
O4    C2    1.320677 A    
O1    Cu1   2.025801 S    
C10   C48   1.504186 S    
N1    O25   1.300844 A    
O36   H24   0.993558 S    
C19   C27   1.563368 S    
C46   C60   1.586085 S    
O1    C1    1.302027 A    
N6    O46   1.303496 A    
C17   N23   1.480855 S    
C12   O52   1.422198 S    
C33   O65   1.409434 S    
C17   C21   1.596946 S    
O37   H25   0.988409 S    
C34   C38   1.588307 S    
C27   O31   1.403001 S    
O73   H37   0.992619 S    
H1    C5    1.093651 S    
C18   C26   1.592456 S    
C11   O51   1.419662 S    
N22   O94   1.302385 A    
O6    Cu2   2.004704 S    
N26   O105  1.300151 A    
C35   C43   1.565177 S    
N18   O84   1.297069 A    
C8    C46   1.621862 S    
C9    C47   1.497464 S    
O18   C52   1.325226 A    
N20   O88   1.302025 A    
C56   O74   1.412684 S    
O3    C1    1.326742 A    
O8    Cu1   1.991532 S    
O17   C51   1.322263 A    
C23   C49   1.502739 S    
N5    O43   1.303177 A    
C30   C38   1.621470 S    
O13   Cu3   1.999107 S    
C13   H3    1.103686 S    
C14   H4    1.106635 S    
C34   O66   1.408661 S    
C44   N12   1.491929 S    
C35   C37   1.571009 S    
C15   O97   1.407006 S    
O72   H36   0.988123 S    
C15   H5    1.102803 S    
O65   H33   0.993438 S    
O31   H19   0.987294 S    
C7    O71   1.419055 S    
C20   C22   1.592767 S    
C16   H6    1.103673 S    
C20   C28   1.564663 S    
C33   C41   1.572647 S    
C31   C39   1.633206 S    
O24   C54   1.323961 A    
O71   H35   0.985391 S    
N10   O55   1.297942 A    
C34   C42   1.577766 S    
O15   Cu4   1.997319 S    
C32   C40   1.637354 S    
N12   O62   1.302059 A    
N19   O86   1.298519 A    
N24   O102  1.301918 A    
C28   O32   1.403248 S    
O16   C50   1.312978 A    
C34   N10   1.480810 S    
C4    C22   1.511486 S    
N15   O77   1.299726 A    
O10   Cu4   2.015297 S    
N2    O28   1.301037 A    
C19   N1    1.481721 S    
O20   Cu5   2.016249 S    
O76   H40   0.993433 S    
C39   C43   1.594769 S    
O5    Cu1   2.004704 S    
C8    C56   1.602238 S    
N20   O87   1.300663 A    
H2    C6    1.098173 S    
O75   H39   0.993891 S    
N9    O53   1.302898 A    
N3    O40   1.297824 A    
C46   C51   1.537151 S    
C23   C27   1.581991 S    
C15   C23   1.564909 S    
C16   C24   1.563882 S    
N13   O68   1.301299 A    
O52   H28   0.989369 S    
C39   C53   1.542854 S    
O13   C49   1.323876 A    
N22   O93   1.300451 A    
N16   O80   1.303097 A    
N4    O41   1.303507 A    
O38   H26   0.981901 S    
C59   N21   1.490224 S    
C8    O72   1.419971 S    
C14   C16   1.562274 S    
