data_mof_unit_61176.cif
_audit_creation_date              2013-03-05T16:23:52-0500
_audit_creation_method            fapswitch 2.2
_symmetry_space_group_name_H-M    P1
_symmetry_Int_Tables_number       1
_space_group_crystal_system       triclinic
_cell_length_a                    30.64096
_cell_length_b                    31.825512
_cell_length_c                    21.649242
_cell_angle_alpha                 89.665421
_cell_angle_beta                  135.028298
_cell_angle_gamma                 90.376415
_cell_volume                      14920.413991

loop_
_atom_site_label
_atom_site_type_symbol
_atom_site_description
_atom_site_fract_x
_atom_site_fract_y
_atom_site_fract_z
_atom_type_partial_charge
O1    O     O_R   0.448310 0.000000 0.356640 -0.623107
O2    O     O_R   0.948310 0.500000 0.356640 -0.622697
O3    O     O_R   0.551720 0.000000 0.460130 -0.623151
O4    O     O_R   0.051720 0.500000 0.460130 -0.623107
C1    C     C_R   0.500167 0.000536 0.379788 0.903798
C2    C     C_R   0.000154 0.500084 0.379788 0.904482
O5    O     O_R   0.448310 0.938390 0.448250 -0.616434
O6    O     O_R   0.448310 0.061610 0.448250 -0.619570
O7    O     O_R   0.948310 0.438390 0.448250 -0.617389
O8    O     O_R   0.948310 0.561610 0.448250 -0.619074
O9    O     O_R   0.551720 0.938410 0.551740 -0.615035
O10   O     O_R   0.551720 0.061590 0.551740 -0.613687
O11   O     O_R   0.051720 0.438410 0.551740 -0.616646
O12   O     O_R   0.051720 0.561590 0.551740 -0.611423
C3    C     C_R   0.499927 0.918724 0.499905 0.905422
C4    C     C_R   0.500115 0.081276 0.500141 0.904705
C5    C     C_R   0.999928 0.418723 0.499906 0.905145
C6    C     C_R   0.000115 0.581276 0.500113 0.907273
Zn1   Zn    Zn3+2 0.430960 0.000000 0.430900 0.959319
Zn2   Zn    Zn3+2 0.930960 0.500000 0.430900 0.955928
Zn3   Zn    Zn3+2 0.569060 0.000000 0.569100 0.973655
Zn4   Zn    Zn3+2 0.069060 0.500000 0.569100 0.974226
O13   O     O_R   0.448310 0.000000 0.539870 -0.621256
O14   O     O_R   0.948310 0.500000 0.539870 -0.624883
O15   O     O_R   0.551720 0.000000 0.643360 -0.623348
O16   O     O_R   0.051720 0.500000 0.643360 -0.622032
C7    C     C_R   0.500084 0.999977 0.619939 0.878025
C8    C     C_R   0.000141 0.499556 0.620218 0.873703
C9    C     C_3   0.474193 0.736249 0.420889 -0.160546
C10   C     C_3   0.467862 0.264068 0.419706 -0.163911
C11   C     C_3   0.968275 0.236210 0.418262 -0.162773
C12   C     C_3   0.969117 0.764085 0.420075 -0.162002
C13   C     C_3   0.532558 0.764313 0.483617 -0.158234
C14   C     C_3   0.526355 0.236371 0.474574 -0.159623
C15   C     C_3   0.026729 0.264315 0.474244 -0.159894
C16   C     C_3   0.027693 0.736387 0.476549 -0.158128
H1    H     H_    0.559481 0.776816 0.470846 0.144021
H2    H     H_    0.547752 0.224431 0.452965 0.137888
H3    H     H_    0.048835 0.276821 0.453783 0.138840
H4    H     H_    0.050216 0.724461 0.456639 0.143074
H5    H     H_    0.453261 0.724187 0.356684 0.142471
H6    H     H_    0.441280 0.276391 0.353098 0.135925
H7    H     H_    0.942456 0.224117 0.351899 0.137313
H8    H     H_    0.943594 0.776423 0.353848 0.140629
H9    H     H_    0.606051 0.724113 0.613262 0.146869
H10   H     H_    0.606571 0.276548 0.600772 0.135313
H11   H     H_    0.106268 0.224183 0.601002 0.135434
H12   H     H_    0.106666 0.776546 0.603627 0.146705
C17   C     C_1   0.499743 0.874165 0.499596 -0.177184
C18   C     C_1   0.500319 0.125834 0.500553 -0.182094
C19   C     C_1   0.999749 0.374164 0.499589 -0.180641
C20   C     C_1   0.000316 0.625834 0.500482 -0.178459
C21   C     C_1   0.499918 0.625861 0.499421 -0.173276
C22   C     C_1   0.500002 0.374140 0.500509 -0.182233
C23   C     C_1   0.999951 0.125860 0.499441 -0.181303
C24   C     C_1   0.999968 0.874140 0.500477 -0.174075
C25   C     C_3   0.441305 0.763819 0.436512 -0.160844
C26   C     C_3   0.441859 0.235822 0.446068 -0.163466
C27   C     C_3   0.941251 0.263777 0.443255 -0.162979
C28   C     C_3   0.941749 0.735823 0.444351 -0.162417
C29   C     C_3   0.499670 0.791085 0.499238 0.196610
C30   C     C_3   0.500353 0.208915 0.500937 0.202821
C31   C     C_3   0.999704 0.291084 0.499235 0.202573
C32   C     C_3   0.000326 0.708915 0.500827 0.196704
C33   C     C_3   0.466894 0.735716 0.514765 -0.160805
C34   C     C_3   0.474176 0.263607 0.527279 -0.161226
C35   C     C_3   0.972809 0.235711 0.524146 -0.161703
C36   C     C_3   0.972764 0.763591 0.525109 -0.160246
C37   C     C_3   0.499781 0.708942 0.499144 0.195733
C38   C     C_3   0.500180 0.291059 0.500915 0.203015
C39   C     C_3   0.999831 0.208940 0.499156 0.202593
C40   C     C_3   0.000134 0.791059 0.500831 0.196274
C41   C     C_3   0.525257 0.763774 0.577488 -0.159554
C42   C     C_3   0.532673 0.235901 0.582152 -0.163098
C43   C     C_3   0.031259 0.263810 0.580124 -0.162539
C44   C     C_3   0.031343 0.735885 0.581588 -0.158928
C45   C     C_3   0.558144 0.736209 0.561868 -0.155235
C46   C     C_3   0.558676 0.264153 0.555786 -0.161493
C47   C     C_3   0.058284 0.236247 0.555136 -0.162055
C48   C     C_3   0.058711 0.764153 0.557308 -0.154371
C49   C     C_1   0.499668 0.836599 0.499389 -0.067998
C50   C     C_1   0.500385 0.163400 0.500803 -0.075599
C51   C     C_1   0.999686 0.336598 0.499381 -0.074494
C52   C     C_1   0.000372 0.663401 0.500702 -0.068730
C53   C     C_1   0.499858 0.663428 0.499221 -0.066152
C54   C     C_1   0.500077 0.336574 0.500761 -0.076223
C55   C     C_1   0.999905 0.163427 0.499241 -0.075928
C56   C     C_1   0.000031 0.836573 0.500704 -0.066236
H13   H     H_    0.546188 0.775834 0.641695 0.140499
H14   H     H_    0.559247 0.223573 0.648755 0.135893
H15   H     H_    0.057078 0.275899 0.646490 0.135300
H16   H     H_    0.056861 0.723544 0.647811 0.142040
H17   H     H_    0.439971 0.723214 0.527535 0.141641
H18   H     H_    0.452777 0.275550 0.548884 0.138777
H19   H     H_    0.950701 0.223209 0.544607 0.137760
H20   H     H_    0.950239 0.775520 0.545014 0.142873
H21   H     H_    0.393400 0.775915 0.385120 0.141803
H22   H     H_    0.393962 0.223431 0.401080 0.137312
H23   H     H_    0.893266 0.275838 0.397388 0.137429
H24   H     H_    0.893793 0.723432 0.398031 0.140944
C57   C     C_R   0.446803 0.008514 0.226883 0.137186
C58   C     C_R   0.946673 0.492235 0.227076 0.138958
C59   C     C_R   0.501368 0.004007 0.314782 -0.168618
C60   C     C_R   0.001274 0.497524 0.314726 -0.169517
C61   C     C_R   0.558128 0.004039 0.340008 -0.262135
C62   C     C_R   0.058041 0.497776 0.339995 -0.264187
H25   H     H_    0.601331 0.002948 0.408433 0.211380
H26   H     H_    0.101256 0.498980 0.408397 0.211778
C63   C     C_R   0.559405 0.001757 0.276909 0.291135
C64   C     C_R   0.059378 0.497715 0.276901 0.295467
C65   C     C_R   0.502633 0.000412 0.188159 -0.194501
C66   C     C_R   0.002685 0.498248 0.188140 -0.199449
C67   C     C_R   0.447621 0.007231 0.164384 0.014873
C68   C     C_R   0.947515 0.492451 0.164562 0.020777
C69   C     C_3   0.388803 0.982804 0.102733 -0.407817
C70   C     C_3   0.889179 0.517039 0.101861 -0.413995
C71   C     C_3   0.387818 0.984206 0.171765 -0.428688
C72   C     C_3   0.888097 0.516829 0.170844 -0.429568
H27   H     H_    0.395566 0.950643 0.090932 0.250247
H28   H     H_    0.350971 0.001169 0.043047 0.217539
H29   H     H_    0.851023 0.498484 0.042765 0.216854
H30   H     H_    0.896618 0.548839 0.089044 0.249487
H31   H     H_    0.393698 0.952834 0.199750 0.208753
H32   H     H_    0.349373 0.003384 0.151948 0.204611
H33   H     H_    0.849268 0.498133 0.151610 0.205164
H34   H     H_    0.894498 0.548535 0.197684 0.207584
C73   C     C_R   0.466933 0.028084 0.685336 0.126860
C74   C     C_R   0.969986 0.531287 0.687612 0.106151
C75   C     C_R   0.500592 0.999206 0.685805 -0.089192
C76   C     C_R   0.001549 0.500166 0.687428 -0.082836
C77   C     C_R   0.536499 0.969611 0.754086 -0.215342
C78   C     C_R   0.040769 0.472663 0.758779 -0.212547
H35   H     H_    0.563571 0.946501 0.756672 0.156721
H36   H     H_    0.068691 0.449991 0.762273 0.155086
C79   C     C_R   0.536368 0.969555 0.818675 -0.217403
C80   C     C_R   0.040791 0.472645 0.823089 -0.222810
H37   H     H_    0.563449 0.946384 0.870577 0.159119
H38   H     H_    0.068768 0.450024 0.875993 0.155366
C81   C     C_R   0.501845 0.999947 0.816061 -0.097412
C82   C     C_R   0.003060 0.501069 0.816836 -0.088238
C83   C     C_R   0.468542 0.029018 0.748800 0.136074
C84   C     C_R   0.971329 0.532043 0.752389 0.146729
C85   C     C_3   0.426086 0.065619 0.710342 -0.487334
C86   C     C_3   0.904995 0.544413 0.690148 -0.494269
C87   C     C_3   0.424839 0.064790 0.637941 -0.493975
C88   C     C_3   0.903500 0.543418 0.618552 -0.471659
H39   H     H_    0.449221 0.093895 0.752737 0.211472
H40   H     H_    0.381143 0.057142 0.686793 0.197868
H41   H     H_    0.899291 0.576503 0.703565 0.215955
H42   H     H_    0.875750 0.519759 0.682871 0.191505
H43   H     H_    0.447732 0.092415 0.638956 0.199971
H44   H     H_    0.379110 0.056060 0.572659 0.214270
H45   H     H_    0.896835 0.574930 0.590543 0.203969
H46   H     H_    0.873441 0.518103 0.569752 0.217250
O17   O     O_R   0.408300 0.500000 0.356580 -0.624735
O18   O     O_R   0.908300 0.000000 0.356580 -0.625178
O19   O     O_R   0.408400 0.500000 0.460120 -0.614658
O20   O     O_R   0.908400 0.000000 0.460120 -0.614543
C89   C     C_R   0.380031 0.500062 0.380058 0.882864
C90   C     C_R   0.880019 0.000084 0.380051 0.882599
O21   O     O_R   0.499900 0.561630 0.448170 -0.616237
O22   O     O_R   0.499900 0.438370 0.448170 -0.622027
O23   O     O_R   0.999900 0.061630 0.448170 -0.619409
O24   O     O_R   0.999900 0.938370 0.448170 -0.618978
O25   O     O_R   0.500000 0.561620 0.551710 -0.615585
O26   O     O_R   0.500000 0.438380 0.551710 -0.612376
O27   O     O_R   0.000000 0.061620 0.551710 -0.616403
O28   O     O_R   0.000000 0.938380 0.551710 -0.611299
C91   C     C_R   0.499969 0.581302 0.499802 0.902973
C92   C     C_R   0.499939 0.418698 0.500093 0.902969
C93   C     C_R   0.999980 0.081302 0.499811 0.901356
C94   C     C_R   0.999926 0.918698 0.500081 0.904956
Zn5   Zn    Zn3+2 0.499870 0.500000 0.430790 0.956021
Zn6   Zn    Zn3+2 0.999870 0.000000 0.430790 0.955487
Zn7   Zn    Zn3+2 0.500010 0.500000 0.569060 0.984211
Zn8   Zn    Zn3+2 0.000010 0.000000 0.569060 0.984511
O29   O     O_R   0.591480 0.500000 0.539730 -0.624352
O30   O     O_R   0.091480 0.000000 0.539730 -0.624455
O31   O     O_R   0.591580 0.500000 0.643270 -0.619041
O32   O     O_R   0.091580 0.000000 0.643270 -0.619294
C95   C     C_R   0.619873 0.499783 0.619962 0.904136
C96   C     C_R   0.119889 0.000126 0.619975 0.904046
O33   O     O_R   0.591630 0.965220 0.091680 -0.600708
O34   O     O_R   0.591630 0.034780 0.091680 -0.639175
O35   O     O_R   0.091630 0.465220 0.091680 -0.600790
O36   O     O_R   0.091630 0.534780 0.091680 -0.637924
C97   C     C_R   0.620137 0.000107 0.119838 0.936274
C98   C     C_R   0.120147 0.500113 0.119681 0.940444
O37   O     O_R   0.500040 0.965230 0.091630 -0.582159
O38   O     O_R   0.500040 0.034770 0.091630 -0.632523
O39   O     O_R   0.000040 0.465230 0.091630 -0.601487
O40   O     O_R   0.000040 0.534770 0.091630 -0.614140
C99   C     C_R   0.500447 0.999939 0.120501 0.963368
C100  C     C_R   0.000470 0.499758 0.120502 0.963059
Zn9   Zn    Zn3+2 0.500030 0.953570 0.000010 1.046573
Zn10  Zn    Zn3+2 0.500030 0.046430 0.000010 0.959371
Zn11  Zn    Zn3+2 0.000030 0.453570 0.000010 0.980295
Zn12  Zn    Zn3+2 0.000030 0.546430 0.000010 1.026825
O41   O     O_R   0.408450 0.965250 0.908360 -0.567060
O42   O     O_R   0.408450 0.034750 0.908360 -0.631459
O43   O     O_R   0.908450 0.465250 0.908360 -0.631761
O44   O     O_R   0.908450 0.534750 0.908360 -0.567145
O45   O     O_R   0.500040 0.965230 0.908410 -0.629927
O46   O     O_R   0.500040 0.034770 0.908410 -0.628333
O47   O     O_R   0.000040 0.465230 0.908410 -0.633511
O48   O     O_R   0.000040 0.534770 0.908410 -0.622097
C101  C     C_R   0.379647 0.999783 0.881245 0.899948
C102  C     C_R   0.879619 0.500077 0.881027 0.895622
C103  C     C_R   0.500313 0.000076 0.880090 0.869214
C104  C     C_R   0.999904 0.500169 0.879522 0.861683
C105  C     C_R   0.280853 0.475341 0.242304 0.136959
C106  C     C_R   0.780788 0.975873 0.241592 0.135934
C107  C     C_R   0.314569 0.500961 0.314927 -0.106269
C108  C     C_R   0.814535 0.000985 0.314938 -0.106660
C109  C     C_R   0.282554 0.527579 0.323448 -0.206506
C110  C     C_R   0.782520 0.027044 0.324260 -0.205865
H47   H     H_    0.307297 0.548251 0.379246 0.167880
H48   H     H_    0.807264 0.047313 0.380627 0.167797
C111  C     C_R   0.717811 0.027336 0.259083 -0.126188
C112  C     C_R   0.217848 0.527894 0.258186 -0.122984
H49   H     H_    0.693247 0.047723 0.265898 0.185840
H50   H     H_    0.193288 0.548700 0.264406 0.186686
C113  C     C_R   0.685548 0.000532 0.186475 -0.088462
C114  C     C_R   0.185584 0.500563 0.186325 -0.088980
C115  C     C_R   0.718942 0.975012 0.180921 0.114183
C116  C     C_R   0.219006 0.474518 0.181576 0.115998
C117  C     C_3   0.713992 0.943079 0.126225 -0.496235
C118  C     C_3   0.214111 0.441900 0.127896 -0.497231
C119  C     C_3   0.285285 0.442512 0.198227 -0.476465
C120  C     C_3   0.785164 0.943719 0.196481 -0.472299
H51   H     H_    0.692616 0.956069 0.062136 0.195413
H52   H     H_    0.694081 0.912928 0.123306 0.219022
H53   H     H_    0.192796 0.454303 0.063464 0.195059
H54   H     H_    0.194171 0.411990 0.125814 0.217406
H55   H     H_    0.305107 0.454987 0.174276 0.210891
H56   H     H_    0.306463 0.413046 0.237156 0.201568
H57   H     H_    0.804922 0.956794 0.172810 0.210759
H58   H     H_    0.806375 0.914022 0.234534 0.202723
C121  C     C_R   0.718168 0.467928 0.691061 0.104179
C122  C     C_R   0.218635 0.030992 0.689037 0.105487
C123  C     C_R   0.685439 0.499643 0.687162 -0.150134
C124  C     C_R   0.185485 0.000200 0.687187 -0.152853
C125  C     C_R   0.716082 0.528395 0.755638 -0.260444
C126  C     C_R   0.215806 0.972288 0.757215 -0.258824
H59   H     H_    0.690104 0.551516 0.755375 0.190751
H60   H     H_    0.189510 0.949873 0.758243 0.193292
C127  C     C_R   0.280121 0.970804 0.822418 0.296635
C128  C     C_R   0.780395 0.529717 0.820849 0.300490
C129  C     C_R   0.313546 0.999590 0.818265 -0.238268
C130  C     C_R   0.813500 0.500013 0.818438 -0.242443
C131  C     C_R   0.281974 0.030930 0.754447 0.122624
C132  C     C_R   0.781508 0.467876 0.756576 0.118343
C133  C     C_3   0.287181 0.043451 0.693232 -0.489633
C134  C     C_3   0.786621 0.453292 0.696403 -0.470321
C135  C     C_3   0.716544 0.453563 0.623973 -0.465424
C136  C     C_3   0.217123 0.043391 0.620969 -0.457248
H61   H     H_    0.308355 0.018539 0.685584 0.196610
H62   H     H_    0.307706 0.075296 0.708013 0.204671
H63   H     H_    0.806545 0.421229 0.713312 0.207433
H64   H     H_    0.808341 0.477127 0.687247 0.190576
H65   H     H_    0.696021 0.421662 0.598996 0.198487
H66   H     H_    0.697536 0.477670 0.572841 0.217102
H67   H     H_    0.197608 0.018439 0.571353 0.217338
H68   H     H_    0.197187 0.075203 0.594015 0.198292
N1    N     N_R   0.309476 0.939490 0.889551 0.194129
O49   O     O_R   0.339914 0.909272 0.893847 -0.363959
O50   O     O_R   0.289953 0.933734 0.926262 -0.425312
N2    N     N_R   0.810164 0.561906 0.886060 0.197925
O51   O     O_R   0.838377 0.592477 0.885723 -0.365645
O52   O     O_R   0.792585 0.567837 0.925190 -0.424848
N3    N     N_R   0.617816 0.998735 0.304078 0.191737
O53   O     O_R   0.624464 0.973500 0.264199 -0.407344
O54   O     O_R   0.666581 0.016809 0.375926 -0.404854
N4    N     N_R   0.117763 0.498424 0.303725 0.192293
O55   O     O_R   0.126402 0.475050 0.264110 -0.412032
O56   O     O_R   0.165035 0.517412 0.375543 -0.402709

loop_
_geom_bond_atom_site_label_1
_geom_bond_atom_site_label_2
_geom_bond_distance
_ccdc_geom_bond_type
C26   C30   1.533840 S    
C117  H51   1.111778 S    
C1    C59   1.437192 S    
C74   C76   1.390791 A    
C27   H23   1.110124 S    
C89   C107  1.418037 S    
C85   C87   1.541026 S    
O38   Zn10  2.015573 S    
Zn12  O48   2.019834 S    
C67   C69   1.491340 S    
C57   C67   1.371739 A    
O12   C6    1.283071 A    
C37   C45   1.533790 S    
C26   H22   1.110134 S    
C110  C111  1.401421 A    
H11   C47   1.110137 S    
Zn10  O42   2.016503 S    
C74   C88   1.492853 S    
C5    C19   1.418122 S    
C112  H50   1.083481 S    
C35   C43   1.548081 S    
C6    C20   1.418108 S    
C12   C40   1.533811 S    
O22   Zn5   1.994898 S    
O16   C8    1.276097 A    
C81   C103  1.419806 S    
O45   C103  1.266879 A    
C79   C81   1.409227 A    
C61   H25   1.083221 S    
O18   Zn6   2.018790 S    
O26   Zn7   1.998846 S    
C86   H41   1.111552 S    
C70   H30   1.111928 S    
O11   C5    1.282833 A    
Zn9   O41   2.019027 S    
O1    C1    1.284245 A    
C113  C115  1.381034 A    
C12   C16   1.548090 S    
C71   H32   1.111565 S    
C4    C18   1.418094 S    
C77   C79   1.401138 A    
C83   C85   1.489480 S    
C111  C113  1.407725 A    
C33   C37   1.533843 S    
C15   H3    1.110127 S    
C58   C60   1.391494 A    
C108  C110  1.408407 A    
C106  C108  1.382061 A    
C24   C56   1.195576 T    
C38   C46   1.533830 S    
C130  C132  1.394969 A    
N3    O53   1.300385 A    
C34   C42   1.548303 S    
C106  C120  1.489186 S    
C9    C13   1.548253 S    
C14   C30   1.533790 S    
C33   C41   1.548097 S    
N3    O54   1.301388 A    
N4    O55   1.300083 A    
C73   C83   1.340014 A    
C17   C49   1.195589 T    
C25   C29   1.533786 S    
C20   C52   1.195592 T    
C22   C92   1.418066 S    
C32   C52   1.448537 S    
O5    Zn1   1.997723 S    
C86   H42   1.111722 S    
N4    O56   1.301390 A    
O38   C99   1.265188 A    
C27   C35   1.548147 S    
C64   N4    1.437990 S    
Zn11  O47   2.015574 S    
C133  H62   1.111610 S    
C26   C34   1.548204 S    
O20   Zn8   2.018574 S    
O10   C4    1.283069 A    
O32   C96   1.275022 A    
C69   C71   1.516925 S    
C105  C116  1.339772 A    
O22   C92   1.282739 A    
O46   C103  1.269021 A    
Zn12  O44   2.016503 S    
O33   Zn9   2.016759 S    
Zn11  O43   2.019027 S    
C76   C78   1.402842 A    
C72   H33   1.111574 S    
C2    C60   1.435800 S    
Zn10  O46   2.019834 S    
O23   C93   1.283010 A    
N1    O49   1.300508 A    
Zn6   O30   2.018575 S    
C118  H54   1.111484 S    
C58   C72   1.493951 S    
O37   C99   1.268022 A    
C43   H15   1.110134 S    
C131  C133  1.494229 S    
C34   H18   1.110124 S    
C116  C118  1.488630 S    
O21   C91   1.283060 A    
O17   Zn5   2.018790 S    
C16   C32   1.533776 S    
C11   C39   1.533783 S    
C117  H52   1.111491 S    
C30   C50   1.448544 S    
C90   C108  1.418531 S    
O6    C4    1.282779 A    
O44   C102  1.266273 A    
C24   C94   1.418073 S    
O20   C90   1.275990 A    
C21   C53   1.195577 T    
C10   C26   1.548096 S    
O2    C2    1.283839 A    
O9    C3    1.282841 A    
C96   C124  1.420900 S    
C60   C62   1.406548 A    
C118  C119  1.541518 S    
C10   C38   1.533801 S    
O39   Zn11  2.019833 S    
C128  C130  1.418925 A    
C97   C113  1.416769 S    
C9    C37   1.533786 S    
C127  C129  1.418905 A    
O25   C91   1.282761 A    
C85   H40   1.110166 S    
C122  C136  1.492074 S    
O6    Zn1   1.995168 S    
O1    Zn1   2.019039 S    
C70   H29   1.111668 S    
C80   C82   1.401448 A    
O17   C89   1.277343 A    
C23   C93   1.418069 S    
C18   C50   1.195589 T    
C135  H65   1.111542 S    
C16   H4    1.110130 S    
C36   C40   1.533777 S    
C121  C123  1.387125 A    
O4    C2    1.278020 A    
C16   C48   1.548162 S    
O8    Zn2   1.995168 S    
C22   C54   1.195573 T    
C10   C14   1.548076 S    
O35   C98   1.268787 A    
O27   C93   1.282806 A    
C77   H35   1.083493 S    
O21   Zn5   1.999199 S    
O34   Zn10  2.019276 S    
O2    Zn2   2.019039 S    
O10   Zn3   1.997051 S    
O9    Zn3   1.994509 S    
C13   H1    1.110132 S    
C39   C47   1.533781 S    
C31   C51   1.448530 S    
C68   C70   1.490945 S    
C123  C125  1.397041 A    
C11   C27   1.548258 S    
O40   C100  1.270005 A    
C119  H55   1.111500 S    
H10   C46   1.110142 S    
Zn1   O13   2.018301 S    
C73   C75   1.380562 A    
C126  H60   1.084534 S    
C134  C135  1.518414 S    
C58   C68   1.371718 A    
O33   C97   1.268491 A    
C111  H49   1.083482 S    
O4    Zn4   2.018472 S    
O48   C104  1.268089 A    
O7    Zn2   1.997723 S    
C124  C126  1.397442 A    
C63   N3    1.438931 S    
C88   H46   1.112173 S    
C135  H66   1.112176 S    
O18   C90   1.277562 A    
C78   C80   1.391800 A    
C125  C128  1.393345 A    
C25   H21   1.110127 S    
O3    C1    1.278021 A    
C61   C63   1.396327 A    
O41   C101  1.266305 A    
C122  C124  1.386910 A    
C32   C44   1.533821 S    
C13   C29   1.533847 S    
C65   C67   1.388981 A    
C102  C130  1.433994 S    
C36   C44   1.548291 S    
C75   C77   1.406740 A    
O24   Zn6   1.994898 S    
N1    O50   1.300996 A    
C66   C100  1.417640 S    
C118  H53   1.111770 S    
C87   H43   1.111665 S    
Zn4   O16   2.018790 S    
C11   H7    1.110125 S    
C65   C99   1.418319 S    
C78   H36   1.083630 S    
C39   C55   1.448499 S    
C106  C115  1.339769 A    
C98   C114  1.417302 S    
C86   C88   1.518435 S    
C105  C107  1.381934 A    
C35   H19   1.110132 S    
O19   Zn7   2.018574 S    
C85   H39   1.111464 S    
C129  C131  1.394637 A    
O13   C7    1.276928 A    
C136  H68   1.111541 S    
C121  C135  1.492030 S    
O12   Zn4   1.997051 S    
C7    C75   1.415046 S    
C59   C61   1.406812 A    
C11   C15   1.548269 S    
O3    Zn3   2.018472 S    
O19   C89   1.275961 A    
C44   C48   1.548255 S    
C134  H64   1.111723 S    
C12   C28   1.548095 S    
O36   C98   1.266353 A    
C38   C54   1.448523 S    
C19   C51   1.195595 T    
C112  C114  1.408033 A    
C84   C86   1.493669 S    
C37   C53   1.448510 S    
C31   C43   1.533793 S    
C80   H38   1.083602 S    
C132  C134  1.494577 S    
C62   C64   1.395231 A    
O28   C94   1.283052 A    
O7    C5    1.283014 A    
C79   H37   1.083523 S    
O24   C94   1.282765 A    
Zn3   O15   2.018790 S    
C74   C84   1.373914 A    
O42   C101  1.274217 A    
C105  C119  1.489092 S    
C101  C129  1.433129 S    
C9    H5    1.110125 S    
C121  C132  1.372424 A    
C14   H2    1.110132 S    
C27   C31   1.533779 S    
C10   H6    1.110138 S    
O14   C8    1.280410 A    
N2    O52   1.300855 A    
C28   H24   1.110135 S    
H9    C45   1.110139 S    
C114  C116  1.381140 A    
C133  C136  1.517825 S    
Zn7   O31   2.018790 S    
C126  C127  1.393859 A    
C12   H8    1.110139 S    
O26   C92   1.283079 A    
C87   H44   1.111505 S    
C128  N2    1.434287 S    
C21   C91   1.418097 S    
O30   C96   1.279110 A    
C72   H34   1.112337 S    
C36   H20   1.110122 S    
C69   H27   1.112018 S    
O34   C97   1.266368 A    
O36   Zn12  2.019276 S    
C95   C123  1.420304 S    
C28   C32   1.533847 S    
C127  N1    1.435186 S    
C29   C41   1.533791 S    
C73   C87   1.488075 S    
H12   C48   1.110138 S    
C119  H56   1.111665 S    
O25   Zn7   1.994538 S    
C71   H31   1.112308 S    
C107  C109  1.408095 A    
C57   C71   1.493270 S    
C40   C48   1.533832 S    
C29   C49   1.448514 S    
C109  C112  1.401369 A    
C14   C46   1.548155 S    
C44   H16   1.110130 S    
O37   Zn9   2.019833 S    
C81   C83   1.382703 A    
C8    C76   1.425093 S    
C13   C45   1.548184 S    
C34   C38   1.533795 S    
C88   H45   1.111553 S    
C62   H26   1.083187 S    
C134  H63   1.111572 S    
O8    C6    1.282767 A    
C9    C25   1.548264 S    
O29   C95   1.278967 A    
C42   H14   1.110131 S    
C63   C65   1.410814 A    
O5    C3    1.282991 A    
C33   H17   1.110133 S    
C115  C117  1.488568 S    
O43   C102  1.274614 A    
C70   C72   1.517032 S    
O11   Zn4   1.994509 S    
C82   C104  1.427272 S    
C35   C39   1.533840 S    
C3    C17   1.418104 S    
C23   C55   1.195569 T    
C64   C66   1.409745 A    
O39   C100  1.262759 A    
C109  H47   1.083414 S    
C120  H58   1.111657 S    
O47   C104  1.271166 A    
C41   H13   1.110138 S    
O40   Zn12  2.015573 S    
C66   C68   1.388650 A    
C133  H61   1.112324 S    
Zn8   O32   2.018790 S    
C117  C120  1.541512 S    
Zn9   O45   2.015574 S    
N2    O51   1.300670 A    
C28   C36   1.548207 S    
C122  C131  1.372345 A    
C57   C59   1.391191 A    
C69   H28   1.111656 S    
C42   C46   1.548278 S    
C136  H67   1.112166 S    
O35   Zn11  2.016759 S    
C41   C45   1.548115 S    
C30   C42   1.533813 S    
C120  H57   1.111498 S    
C15   C31   1.533858 S    
C15   C47   1.548205 S    
C125  H59   1.084579 S    
O28   Zn8   1.998846 S    
C82   C84   1.393146 A    
Zn5   O29   2.018575 S    
C40   C56   1.448516 S    
O23   Zn6   1.999199 S    
C43   C47   1.548132 S    
Zn2   O14   2.018301 S    
C110  H48   1.083402 S    
C25   C33   1.548176 S    
O27   Zn8   1.994538 S    
O31   C95   1.274883 A    
O15   C7    1.274870 A    
