data_mof_unit_56022.cif
_audit_creation_date              2012-12-11T16:04:57-0500
_audit_creation_method            fapswitch 2.2
_symmetry_space_group_name_H-M    P1
_symmetry_Int_Tables_number       1
_space_group_crystal_system       triclinic
_cell_length_a                    10.662937
_cell_length_b                    10.661366
_cell_length_c                    16.920962
_cell_angle_alpha                 98.605198
_cell_angle_beta                  98.661777
_cell_angle_gamma                 61.248345
_cell_volume                      1660.58610519

loop_
_atom_site_label
_atom_site_type_symbol
_atom_type_description
_atom_site_fract_x
_atom_site_fract_y
_atom_site_fract_z
_atom_type_partial_charge
C1    C     C_R   0.354536 0.775774 0.398881 0.566862
C2    C     C_3   0.763654 0.289585 0.248735 -0.116197
C3    C     C_3   0.830823 0.342971 0.323858 0.056013
C4    C     C_3   0.982485 0.238530 0.302075 -0.153485
C5    C     C_3   0.978385 0.355890 0.256263 -0.127940
C6    C     C_3   0.825411 0.460928 0.279008 -0.094227
C7    C     C_3   0.759974 0.406211 0.203114 -0.114314
C8    C     C_3   0.912342 0.301847 0.181323 0.052716
C9    C     C_3   0.474999 0.765338 0.218757 -0.149905
C10   C     C_3   0.409688 0.684349 0.253137 -0.125072
C11   C     C_3   0.349101 0.809585 0.318699 0.039154
C12   C     C_R   0.370893 0.347065 0.358624 0.551248
C13   C     C_3   0.416348 0.888287 0.286621 -0.119789
C14   C     C_3   0.274597 0.964847 0.233747 -0.146275
C15   C     C_3   0.208393 0.885074 0.267313 -0.135060
C16   C     C_3   0.268101 0.762077 0.201269 0.068054
C17   C     C_3   0.332796 0.840825 0.167136 0.040596
C18   C     C_3   0.477823 0.307801 0.800453 -0.150524
C19   C     C_3   0.401136 0.447775 0.756959 -0.213537
C20   C     C_3   0.380648 0.360366 0.679640 -0.007771
C21   C     C_3   0.456662 0.222176 0.722769 0.061318
C22   C     C_3   0.310710 0.249233 0.744777 -0.139518
C23   C     C_R   0.776606 0.377038 0.401719 0.539486
C24   C     C_3   0.234938 0.388517 0.702160 0.035530
C25   C     C_3   0.253879 0.475604 0.779827 0.031374
C26   C     C_3   0.331000 0.337081 0.822202 -0.004886
C27   C     C_1   0.816624 0.342090 0.709729 -0.000467
C28   C     C_1   0.843078 0.315407 0.778272 -0.013076
C29   C     C_1   0.354205 0.774127 0.713560 -0.009204
C30   C     C_1   0.323252 0.819042 0.781092 -0.004081
C31   C     C_R   0.957704 0.284738 0.102384 0.545788
C32   C     C_R   0.319730 0.300063 0.120030 0.557387
C33   C     C_R   0.297822 0.885570 0.086567 0.565945
C34   C     C_R   0.377792 0.720371 0.631912 0.532732
C35   C     C_R   0.884468 0.299785 0.861038 0.548350
C36   C     C_R   0.310501 0.297225 0.894842 0.578164
C37   C     C_R   0.281320 0.882549 0.859329 0.561352
C38   C     C_R   0.408410 0.376018 0.601288 0.548038
C39   C     C_R   0.773592 0.379706 0.629707 0.544667
C40   C     C_1   0.345395 0.337140 0.274828 -0.049596
C41   C     C_1   0.333510 0.327101 0.203604 -0.022765
C42   C     C_3   0.916616 0.184101 0.225197 -0.126364
Cr1   Cr    Cr6+3 0.608340 0.611040 0.520430 1.057955
Cr2   Cr    Cr6+3 0.287650 0.601120 0.489350 1.081465
Cr3   Cr    Cr6+3 0.604040 0.287870 0.490280 1.051544
Cr4   Cr    Cr6+3 0.054020 0.052700 0.970850 1.066599
Cr5   Cr    Cr6+3 0.059230 0.375120 0.993390 1.062191
Cr6   Cr    Cr6+3 0.374950 0.061200 0.992340 1.038844
H1    H     H_    0.674821 0.262791 0.247718 0.131172
H2    H     H_    0.223877 0.079795 0.222830 0.108379
H3    H     H_    0.272971 0.167575 0.740781 0.141125
H4    H     H_    0.065386 0.384780 0.257269 0.136812
H5    H     H_    0.787707 0.575231 0.302126 0.143884
H6    H     H_    0.671012 0.470716 0.159537 0.126480
H7    H     H_    0.582592 0.719461 0.196752 0.125733
H8    H     H_    0.475243 0.941498 0.324012 0.144845
O1    O     O_R   0.751220 0.499230 0.435170 -0.523224
O2    O     O_R   0.297880 0.469080 0.560050 -0.479308
O3    O     O_R   0.489720 0.254590 0.564810 -0.461668
O4    O     O_R   0.725220 0.304230 0.585080 -0.513940
O5    O     O_3   0.500010 0.500010 0.500020 -0.322337
O6    O     O_R   0.171830 0.913880 0.057510 -0.487174
O7    O     O_R   0.940690 0.186050 0.054730 -0.504455
O8    O     O_R   0.920470 0.405720 0.075010 -0.504485
O9    O     O_R   0.196690 0.370460 0.084120 -0.498420
O10   O     O_R   0.412990 0.180750 0.091610 -0.516015
O11   O     O_R   0.366620 0.943130 0.065760 -0.509560
O12   O     O_R   0.477220 0.727600 0.436870 -0.492630
O13   O     O_R   0.160510 0.906330 0.879210 -0.462539
O14   O     O_R   0.930190 0.179050 0.889450 -0.477803
O15   O     O_R   0.909140 0.398170 0.896710 -0.497155
O16   O     O_R   0.186190 0.363460 0.918830 -0.461982
O17   O     O_R   0.401670 0.173200 0.913310 -0.511518
O18   O     O_R   0.356120 0.936130 0.900470 -0.502387
O19   O     O_3   0.162740 0.163010 0.985530 -0.301174
O20   O     O_R   0.258650 0.745120 0.411470 -0.499999
O21   O     O_R   0.297070 0.467240 0.395960 -0.478107
O22   O     O_R   0.488830 0.252610 0.387790 -0.512187
O23   O     O_R   0.724400 0.302390 0.420980 -0.501293
O24   O     O_R   0.752100 0.501210 0.612190 -0.475000
O25   O     O_R   0.478040 0.729440 0.600970 -0.472626
O26   O     O_R   0.259530 0.747110 0.588490 -0.474566
H9    H     H_    0.103051 0.928375 0.291691 0.136130
C43   C     C_2   0.183660 0.690276 0.156959 0.563740
O27   O     O_2   0.114951 0.658359 0.194227 -0.524085
O28   O     O_R   0.182472 0.661401 0.073682 -0.664313
H10   H     H_    0.112374 0.623953 0.050262 0.362862
H11   H     H_    0.446622 0.522607 0.762427 0.097007
H12   H     H_    0.576830 0.275505 0.842337 0.155164
C44   C     C_2   0.568969 0.076638 0.693380 0.620511
O29   O     O_2   0.690238 0.025415 0.727503 -0.483399
O30   O     O_R   0.533676 0.999846 0.627500 -0.644884
H13   H     H_    0.618232 0.903487 0.613096 0.352075
C45   C     C_2   0.103711 0.424645 0.644361 0.607821
O31   O     O_2   0.996069 0.539783 0.653757 -0.455226
O32   O     O_R   0.106898 0.326453 0.578956 -0.675782
H14   H     H_    0.013983 0.363460 0.542710 0.342249
C46   C     C_2   0.140937 0.619713 0.810278 0.620733
O33   O     O_2   0.083627 0.717373 0.766337 -0.443032
O34   O     O_R   0.101474 0.642242 0.888180 -0.667234
H15   H     H_    0.023411 0.743600 0.901200 0.347676
H16   H     H_    0.948582 0.073430 0.197140 0.140863
H17   H     H_    0.070814 0.173478 0.345826 0.128040
H18   H     H_    0.464586 0.568670 0.263504 0.106892

loop_
_geom_bond_atom_site_label_1
_geom_bond_atom_site_label_2
_ccdc_geom_bond_type
C37   O18   A    
Cr3   O4    S    
C37   O13   A    
C18   C21   S    
C3    C23   S    
C2    C7    S    
C1    C11   S    
C31   O8    A    
C3    C6    S    
C7    C8    S    
Cr1   O5    S    
Cr4   O6    S    
Cr2   O21   S    
C43   O28   S    
C33   O6    A    
Cr2   O26   S    
C5    C6    S    
C15   C16   S    
C4    H17   S    
C16   C43   S    
C1    O12   A    
C18   C19   S    
Cr2   O20   S    
C9    C13   S    
O34   H15   S    
Cr4   O13   S    
C38   O2    A    
C18   C26   S    
C11   C15   S    
C19   C20   S    
C35   O14   A    
Cr2   O2    S    
Cr1   O12   S    
C12   O22   A    
C32   C41   S    
C5    H4    S    
Cr3   O22   S    
C9    H7    S    
C34   O25   A    
C9    C10   S    
C13   H8    S    
C35   O15   A    
C21   C22   S    
O32   H14   S    
C8    C31   S    
Cr6   O19   S    
C17   C33   S    
C42   H16   S    
Cr4   O19   S    
Cr6   O18   S    
C21   C44   S    
C31   O7    A    
C43   O27   D    
C28   C35   S    
C19   H11   S    
C36   O17   A    
C27   C39   S    
Cr5   O8    S    
O28   H10   S    
C16   C17   S    
C15   H9    S    
Cr1   O24   S    
C29   C34   S    
C30   C37   S    
C12   C40   S    
C29   C30   T    
C2    H1    S    
C24   C45   S    
C20   C38   S    
C44   O30   S    
C12   O21   A    
Cr3   O23   S    
C24   C25   S    
C45   O32   S    
Cr5   O15   S    
C9    C17   S    
C40   C41   T    
C46   O34   S    
Cr1   O25   S    
C22   C24   S    
C6    H5    S    
C3    C4    S    
C33   O11   A    
C32   O10   A    
C26   C36   S    
C23   O1    A    
Cr3   O3    S    
C18   H12   S    
Cr6   O17   S    
C8    C42   S    
C4    C5    S    
C5    C8    S    
C6    C7    S    
Cr2   O5    S    
Cr4   O7    S    
Cr6   O10   S    
C39   O24   A    
C10   H18   S    
C2    C3    S    
C25   C26   S    
Cr5   O19   S    
C10   C16   S    
C11   C13   S    
C44   O29   D    
C14   H2    S    
C4    C42   S    
C2    C42   S    
C39   O4    A    
Cr3   O5    S    
O30   H13   S    
C1    O20   A    
Cr5   O9    S    
Cr6   O11   S    
C45   O31   D    
C19   C25   S    
Cr5   O16   S    
Cr4   O14   S    
C10   C11   S    
Cr1   O1    S    
C38   O3    A    
C25   C46   S    
C20   C21   S    
C46   O33   D    
C22   C26   S    
C27   C28   T    
C14   C15   S    
C22   H3    S    
C34   O26   A    
C7    H6    S    
C23   O23   A    
C13   C14   S    
C20   C24   S    
C36   O16   A    
C32   O9    A    
C14   C17   S    
