data_mof_unit_28222.cif
_audit_creation_date              2012-12-11T14:08:36-0500
_audit_creation_method            fapswitch 2.2
_symmetry_space_group_name_H-M    P1
_symmetry_Int_Tables_number       1
_space_group_crystal_system       triclinic
_cell_length_a                    10.932839
_cell_length_b                    10.972194
_cell_length_c                    18.74469
_cell_angle_alpha                 90.029021
_cell_angle_beta                  89.260147
_cell_angle_gamma                 59.961065
_cell_volume                      1946.32119648

loop_
_atom_site_label
_atom_site_type_symbol
_atom_type_description
_atom_site_fract_x
_atom_site_fract_y
_atom_site_fract_z
_atom_type_partial_charge
C1    C     C_R   0.235842 0.645489 0.608660 0.563986
C2    C     C_2   0.779607 0.155693 0.704896 -0.114197
C3    C     C_2   0.173265 0.664301 0.679904 -0.078732
C4    C     C_R   0.626238 0.588521 0.609797 0.579307
C5    C     C_2   0.186345 0.662329 0.836976 -0.069426
C6    C     C_2   0.158853 0.577349 0.796812 -0.121784
C7    C     C_2   0.194673 0.553319 0.720221 0.244000
C8    C     C_2   0.655039 0.647325 0.318175 -0.047516
C9    C     C_2   0.633900 0.667434 0.160763 -0.108848
C10   C     C_2   0.708119 0.547676 0.196382 -0.160568
C11   C     C_2   0.690311 0.538963 0.272831 -0.124890
C12   C     C_3   0.764238 0.501591 0.799867 -0.301989
C13   C     C_2   0.672404 0.140005 0.332324 -0.064560
C14   C     C_2   0.649783 0.148530 0.177914 -0.129359
C15   C     C_2   0.618736 0.069965 0.221082 -0.149224
C16   C     C_R   0.628231 0.226891 0.601387 0.580069
C17   C     C_2   0.590816 0.102151 0.296661 0.241812
C18   C     C_2   0.196327 0.659371 0.324376 -0.068392
C19   C     C_2   0.183725 0.643664 0.171877 -0.144781
C20   C     C_2   0.240037 0.712071 0.202938 -0.135021
C21   C     C_2   0.263091 0.704536 0.279102 0.245680
C22   C     C_R   0.704616 0.101145 0.897217 0.606054
C23   C     C_3   0.683983 0.661681 0.818475 -0.008464
C24   C     C_R   0.717480 0.683541 0.891586 0.568153
C25   C     C_R   0.117605 0.706709 0.906809 0.582585
C26   C     C_R   0.674427 0.107330 0.104286 0.552955
C27   C     C_R   0.692013 0.689099 0.095041 0.547925
C28   C     C_R   0.230226 0.646351 0.398865 0.567874
C29   C     C_R   0.099731 0.704941 0.110050 0.555564
C30   C     C_R   0.643066 0.622094 0.393183 0.586098
C31   C     C_R   0.620990 0.223443 0.396983 0.571642
C32   C     C_3   0.522213 0.716014 0.806759 0.174894
C33   C     C_3   0.494274 0.704513 0.726074 0.142936
C34   C     C_3   0.640928 0.622131 0.684867 0.030070
C35   C     C_3   0.743400 0.731376 0.766840 -0.206799
C36   C     C_3   0.408919 0.968183 0.825043 -0.000229
C37   C     C_3   0.209403 0.333839 0.719380 -0.064217
C38   C     C_3   0.352955 0.181304 0.295762 -0.106477
C39   C     C_3   0.291320 0.894318 0.300347 -0.098650
C40   C     C_3   0.725268 0.702068 0.688595 0.127901
C41   C     C_3   0.728812 0.479232 0.723863 -0.351484
C42   C     C_2   0.675159 0.154453 0.669223 -0.047431
C43   C     C_2   0.690905 0.170730 0.828794 0.196104
C44   C     C_2   0.800464 0.121732 0.780974 0.186461
Cl1   Cl    Cl    0.978263 0.013712 0.804345 -0.617602
Cl2   Cl    Cl    0.519422 0.307922 0.808149 -0.711609
Cl3   Cl    Cl    0.365371 0.868049 0.686775 -0.535737
Cl4   Cl    Cl    0.652710 0.860339 0.637354 -0.581868
Cr1   Cr    Cr6+3 0.393010 0.398050 0.501480 1.092861
Cr2   Cr    Cr6+3 0.398820 0.707980 0.501630 1.124816
Cr3   Cr    Cr6+3 0.708140 0.393940 0.496850 1.022204
Cr4   Cr    Cr6+3 0.937950 0.938450 0.008940 1.070420
Cr5   Cr    Cr6+3 0.626180 0.937030 0.994750 1.032525
Cr6   Cr    Cr6+3 0.937790 0.625760 0.001410 1.024819
H1    H     H_    0.829767 0.408955 0.695001 0.154999
H2    H     H_    0.793864 0.455039 0.170499 0.148336
H3    H     H_    0.718457 0.435320 0.292943 0.141056
H4    H     H_    0.542913 0.757342 0.185344 0.116200
H5    H     H_    0.625322 0.752375 0.299966 0.110230
H6    H     H_    0.602409 0.986830 0.199986 0.145725
H7    H     H_    0.666967 0.231984 0.197369 0.077383
H8    H     H_    0.767024 0.130991 0.307377 0.044489
H9    H     H_    0.253961 0.789577 0.173442 0.150024
H10   H     H_    0.443278 0.638754 0.722364 0.096594
H11   H     H_    0.181900 0.555196 0.196716 0.090687
H12   H     H_    0.858365 0.686090 0.776283 0.093331
H13   H     H_    0.125001 0.624178 0.306719 0.034675
H14   H     H_    0.698563 0.844989 0.777998 0.156269
H15   H     H_    0.880625 0.456891 0.803181 0.155983
H16   H     H_    0.735640 0.442152 0.838269 0.167146
H17   H     H_    0.666125 0.425282 0.726320 0.161720
H18   H     H_    0.477292 0.962698 0.780049 0.168386
H19   H     H_    0.429061 0.016567 0.871801 0.164207
H20   H     H_    0.297934 0.041529 0.809978 0.174182
H21   H     H_    0.091859 0.389337 0.718369 0.077089
H22   H     H_    0.249002 0.298998 0.774167 0.147452
H23   H     H_    0.832562 0.632823 0.665094 0.148905
H24   H     H_    0.249287 0.237632 0.685856 0.187515
H25   H     H_    0.348765 0.134479 0.243905 0.099207
H26   H     H_    0.335396 0.289573 0.287838 0.130350
H27   H     H_    0.264617 0.191165 0.329770 0.128547
H28   H     H_    0.177855 0.949938 0.317265 0.114480
H29   H     H_    0.303162 0.927043 0.245883 0.085264
H30   H     H_    0.347008 0.928214 0.337359 0.181745
H31   H     H_    0.851423 0.182703 0.678158 0.163393
H32   H     H_    0.609323 0.119021 0.695333 0.194882
H33   H     H_    0.103405 0.527456 0.819735 0.132889
H34   H     H_    0.241141 0.713427 0.814675 0.163994
H35   H     H_    0.505906 0.633476 0.832369 0.137936
H36   H     H_    0.122097 0.769713 0.702773 0.144986
O1    O     O_R   0.507110 0.256280 0.580300 -0.444299
O2    O     O_R   0.837080 0.593860 0.915300 -0.533265
O3    O     O_R   0.064770 0.636080 0.932550 -0.513284
O4    O     O_R   0.280830 0.527190 0.577940 -0.449590
O5    O     O_R   0.068250 0.829200 0.092940 -0.520442
O6    O     O_R   0.799650 0.057040 0.080330 -0.497322
O7    O     O_R   0.586130 0.079760 0.077080 -0.515361
O8    O     O_R   0.627700 0.809630 0.066580 -0.504725
O9    O     O_R   0.816140 0.597180 0.075920 -0.510281
O10   O     O_R   0.045360 0.639170 0.081440 -0.497720
O11   O     O_3   0.833980 0.833750 0.001700 -0.266505
O12   O     O_R   0.524640 0.695370 0.425100 -0.449555
O13   O     O_R   0.261360 0.738990 0.584270 -0.477715
O14   O     O_R   0.532590 0.694780 0.574370 -0.389559
O15   O     O_R   0.744470 0.503750 0.577000 -0.526478
O16   O     O_R   0.698520 0.277230 0.571620 -0.535090
O17   O     O_R   0.498530 0.256920 0.419280 -0.450829
O18   O     O_R   0.272880 0.527780 0.428680 -0.515727
O19   O     O_R   0.252780 0.739630 0.423250 -0.478991
O20   O     O_3   0.420467 0.838702 0.845081 -0.544125
O21   O     O_3   0.262193 0.417657 0.690825 -0.492017
O22   O     O_3   0.481427 0.093742 0.330634 -0.542400
O23   O     O_R   0.735890 0.504390 0.415980 -0.522870
O24   O     O_3   0.355235 0.746319 0.304133 -0.542834
O25   O     O_R   0.690560 0.277820 0.422350 -0.523965
O26   O     O_3   0.499990 0.499990 0.499980 -0.307905
O27   O     O_R   0.089190 0.825870 0.932320 -0.442407
O28   O     O_R   0.819070 0.053960 0.931440 -0.463168
O29   O     O_R   0.607070 0.076440 0.916460 -0.517699
O30   O     O_R   0.647110 0.806550 0.917690 -0.483989

loop_
_geom_bond_atom_site_label_1
_geom_bond_atom_site_label_2
_ccdc_geom_bond_type
C12   H15   S    
C27   O8    A    
Cr2   O14   S    
C18   C21   D    
C15   H6    S    
Cr6   O11   S    
C19   C20   D    
Cr5   O30   S    
Cr1   O17   S    
C25   O3    A    
C12   C23   S    
C27   O9    A    
Cr3   O23   S    
C32   O20   S    
C2    H31   S    
C3    H36   S    
C34   C40   S    
C2    C42   D    
C39   H30   S    
C3    C7    D    
C33   H10   S    
C8    H5    S    
C5    C6    D    
Cr5   O8    S    
C38   H25   S    
Cr3   O16   S    
Cr4   O5    S    
C15   C17   S    
C9    H4    S    
C41   H1    S    
Cr6   O3    S    
C5    H34   S    
C13   H8    S    
C22   C43   S    
C2    C44   S    
C1    O4    A    
C23   C24   S    
Cr4   O6    S    
C42   H32   S    
Cr1   O4    S    
C10   H2    S    
C9    C10   D    
C1    O13   A    
C16   O16   A    
C41   H17   S    
Cr4   O27   S    
C37   H21   S    
Cr2   O13   S    
Cr6   O10   S    
C34   C41   S    
Cr1   O1    S    
C24   O2    A    
C31   O25   A    
Cr1   O18   S    
C26   O6    A    
C22   O29   A    
C4    C34   S    
Cr4   O11   S    
C24   O30   A    
C18   C28   S    
C36   H19   S    
Cr5   O11   S    
C29   O5    A    
C35   H12   S    
Cr5   O7    S    
C18   H13   S    
C14   H7    S    
Cr2   O19   S    
Cr3   O25   S    
C6    H33   S    
C1    C3    S    
C43   C44   D    
Cr6   O2    S    
C12   C41   S    
C32   H35   S    
Cr3   O15   S    
C39   O24   S    
C30   O12   A    
C33   C34   S    
C14   C26   S    
C22   O28   A    
C36   H20   S    
C5    C25   S    
C37   H22   S    
Cr2   O12   S    
C23   C35   S    
C38   H27   S    
C36   O20   S    
C33   Cl3   S    
Cr6   O9    S    
C38   O22   S    
C19   C29   S    
C17   O22   S    
C16   C42   S    
C44   Cl1   S    
C9    C27   S    
C4    O15   A    
C40   Cl4   S    
C12   H16   S    
C29   O10   A    
C40   H23   S    
C31   O17   A    
C13   C31   S    
C39   H28   S    
C21   O24   S    
C25   O27   A    
Cr5   O29   S    
C6    C7    S    
C28   O19   A    
C37   H24   S    
Cr3   O26   S    
C13   C17   D    
C8    C30   S    
C23   C32   S    
C20   H9    S    
C35   C40   S    
C39   H29   S    
C32   C33   S    
C38   H26   S    
C35   H14   S    
C28   O18   A    
C8    C11   D    
C4    O14   A    
C7    O21   S    
C19   H11   S    
Cr2   O26   S    
C43   Cl2   S    
C37   O21   S    
C10   C11   S    
C26   O7    A    
Cr1   O26   S    
C20   C21   S    
C16   O1    A    
C14   C15   D    
C11   H3    S    
C36   H18   S    
C30   O23   A    
Cr4   O28   S    
