data_mof_unit_14026.cif
_audit_creation_date              2012-12-10T16:56:32-0500
_audit_creation_method            fapswitch 2.2
_symmetry_space_group_name_H-M    P1
_symmetry_Int_Tables_number       1
_space_group_crystal_system       triclinic
_cell_length_a                    10.851141
_cell_length_b                    10.911329
_cell_length_c                    9.822402
_cell_angle_alpha                 91.013688
_cell_angle_beta                  90.691303
_cell_angle_gamma                 91.2899
_cell_volume                      1162.40898913

loop_
_atom_site_label
_atom_site_type_symbol
_atom_type_description
_atom_site_fract_x
_atom_site_fract_y
_atom_site_fract_z
_atom_type_partial_charge
C1    C     C_R   0.496401 0.266076 0.498562 0.882429
C2    C     C_3   0.878137 0.498941 0.496763 -0.053297
C3    C     C_3   0.931589 0.613436 0.577703 0.126672
C4    C     C_3   0.928503 0.510791 0.347679 0.112866
C5    C     C_2   0.565011 0.940184 0.400871 0.133490
C6    C     C_2   0.549588 0.867460 0.512233 -0.062911
C7    C     C_2   0.572722 0.074635 0.417475 -0.138690
C8    C     C_2   0.490992 0.134254 0.492816 -0.369490
C9    C     C_2   0.416927 0.445819 0.922543 0.093549
C10   C     C_2   0.436792 0.420607 0.073301 0.348475
C11   C     C_R   0.260371 0.498523 0.499475 0.842097
C12   C     C_R   0.513709 0.734791 0.501781 0.788570
C13   C     C_R   0.739769 0.499937 0.499563 0.855441
C14   C     C_3   0.070228 0.374842 0.564395 0.423729
C15   C     C_3   0.925855 0.373824 0.550625 0.188970
C16   C     C_3   0.075273 0.617206 0.574099 -0.123331
C17   C     C_3   0.070851 0.502244 0.349482 -0.444663
C18   C     C_3   0.122202 0.498569 0.499429 -0.031639
Cu1   Cu    Cu3+1 0.500030 0.500020 0.638630 0.941384
Cu2   Cu    Cu3+1 0.499970 0.499980 0.361370 0.958719
H1    H     H_    0.902796 0.602150 0.307872 0.102161
H2    H     H_    0.894490 0.695608 0.526516 0.111597
H3    H     H_    0.640948 0.126409 0.360672 0.175775
H4    H     H_    0.421366 0.085963 0.551260 0.144801
H5    H     H_    0.337148 0.406564 0.872514 0.117579
H6    H     H_    0.898795 0.304145 0.471034 0.200988
H7    H     H_    0.111898 0.620052 0.678642 0.215667
H8    H     H_    0.111016 0.580984 0.293594 0.156601
H9    H     H_    0.099252 0.419575 0.290865 0.251078
N1    N     N_2   0.498630 0.498660 0.846910 -0.158332
N2    N     N_2   0.498590 0.498630 0.153040 -0.062154
O1    O     O_R   0.500020 0.321960 0.617040 -0.590773
O2    O     O_R   0.499980 0.321920 0.382900 -0.599713
O3    O     O_R   0.317710 0.500000 0.617070 -0.602675
O4    O     O_R   0.317670 0.499960 0.382930 -0.579708
O5    O     O_R   0.500020 0.678080 0.617100 -0.564762
O6    O     O_R   0.499980 0.678040 0.382960 -0.599936
O7    O     O_R   0.682330 0.500040 0.617070 -0.566420
O8    O     O_R   0.682290 0.500000 0.382930 -0.565210
C19   C     C_3   0.116046 0.343730 0.713171 -0.316190
C20   C     C_3   0.098965 0.434587 0.832833 -0.884248
H10   H     H_    0.171017 0.507647 0.835965 0.244372
H11   H     H_    0.008799 0.477043 0.835403 0.292219
H12   H     H_    0.107195 0.385265 0.930025 0.228974
H13   H     H_    0.069569 0.256472 0.742789 0.217442
H14   H     H_    0.214487 0.319109 0.709386 0.204251
C21   C     C_3   0.124747 0.738743 0.510737 -0.429765
C22   C     C_3   0.111723 0.849739 0.606472 -0.861306
H15   H     H_    0.013311 0.867102 0.626983 0.246219
H16   H     H_    0.161297 0.834989 0.704205 0.254207
H17   H     H_    0.152440 0.932410 0.558425 0.248724
H18   H     H_    0.224171 0.731976 0.487184 0.216512
H19   H     H_    0.075504 0.757662 0.413822 0.206574
C23   C     C_3   0.574800 0.886845 0.257241 -0.370389
C24   C     C_3   0.609713 0.976777 0.145495 -0.871291
H20   H     H_    0.539511 0.048356 0.136533 0.264475
H21   H     H_    0.702071 0.019399 0.166322 0.253935
H22   H     H_    0.613302 0.926525 0.046343 0.251563
H23   H     H_    0.648165 0.817561 0.259118 0.192772
H24   H     H_    0.484252 0.844721 0.227046 0.246294
C25   C     C_3   0.583254 0.915180 0.656762 -0.388207
C26   C     C_3   0.702749 0.859918 0.708698 -0.827846
H25   H     H_    0.691880 0.759902 0.722974 0.283254
H26   H     H_    0.778204 0.877857 0.635807 0.241036
H27   H     H_    0.729178 0.902537 0.808653 0.235980
H28   H     H_    0.599703 0.015201 0.665221 0.228848
H29   H     H_    0.506904 0.893361 0.727402 0.214928
C27   C     C_3   0.628221 0.492094 0.894475 -0.075388
C28   C     C_3   0.673986 0.359898 0.896641 -0.801823
H30   H     H_    0.622027 0.303148 0.969501 0.222940
H31   H     H_    0.664363 0.315287 0.795081 0.302616
H32   H     H_    0.771815 0.360065 0.930950 0.226440
H33   H     H_    0.687811 0.551917 0.834120 0.219245
H34   H     H_    0.650401 0.534010 0.993479 0.161442
C29   C     C_3   0.395979 0.296562 0.126336 -0.420247
C30   C     C_3   0.334607 0.207658 0.022532 -0.969117
H35   H     H_    0.244466 0.241867 0.988268 0.261646
H36   H     H_    0.395257 0.192635 0.933708 0.260532
H37   H     H_    0.317627 0.117811 0.071136 0.273641
H38   H     H_    0.479797 0.250085 0.161518 0.229636
H39   H     H_    0.331090 0.309787 0.211554 0.256113
O9    O     O_3   0.113557 0.278260 0.480739 -0.791530
H40   H     H_    0.077562 0.199276 0.512291 0.317963
O10   O     O_3   0.494017 0.613978 0.108241 -0.667291
H41   H     H_    0.564059 0.656478 0.154531 0.343734
O11   O     O_3   0.866383 0.330878 0.666841 -0.773235
H42   H     H_    0.856885 0.401133 0.729017 0.386786
O12   O     O_3   0.890138 0.617050 0.712379 -0.792028
H43   H     H_    0.915079 0.698336 0.751849 0.331724
O13   O     O_3   0.877688 0.418607 0.260362 -0.714280
H44   H     H_    0.893187 0.445034 0.165733 0.328208

loop_
_geom_bond_atom_site_label_1
_geom_bond_atom_site_label_2
_ccdc_geom_bond_type
C24   H20   S    
C11   C18   S    
Cu2   O6    S    
C1    C8    S    
C17   H9    S    
C20   H10   S    
C14   C18   S    
Cu1   Cu2   S    
C30   H37   S    
C9    H5    S    
C7    C8    D    
C23   H24   S    
C19   H14   S    
C6    C25   S    
C30   H36   S    
Cu1   O5    S    
C6    C12   S    
C5    C6    D    
C27   H34   S    
C12   O6    A    
C28   H31   S    
C2    C13   S    
C26   H26   S    
Cu2   O4    S    
C10   N2    D    
C22   H17   S    
C27   C28   S    
C12   O5    A    
C9    C10   S    
C21   H19   S    
C16   H7    S    
C22   H16   S    
C20   H11   S    
C28   H30   S    
Cu1   O1    S    
C25   H28   S    
C16   C21   S    
C4    O13   S    
C23   H23   S    
C19   H13   S    
C1    O2    A    
C5    C23   S    
O10   H41   S    
C5    C7    S    
Cu2   O8    S    
O11   H42   S    
C29   H39   S    
C15   H6    S    
C27   H33   S    
C1    O1    A    
N2    O10   S    
C4    C17   S    
C28   H32   S    
C2    C4    S    
C29   C30   S    
C26   H25   S    
Cu1   O7    S    
C10   C29   S    
C25   H29   S    
C21   C22   S    
C17   C18   S    
C30   H35   S    
C2    C15   S    
C13   O7    A    
C9    N1    D    
C15   O11   S    
Cu2   O2    S    
C19   C20   S    
C24   H21   S    
C20   H12   S    
C14   O9    S    
C29   H38   S    
C23   C24   S    
C22   H15   S    
C26   H27   S    
C3    O12   S    
C17   H8    S    
C11   O3    A    
Cu1   O3    S    
C21   H18   S    
C11   O4    A    
C2    C3    S    
C4    H1    S    
O13   H44   S    
C7    H3    S    
C8    H4    S    
C25   C26   S    
C13   O8    A    
C14   C19   S    
O12   H43   S    
C16   C18   S    
O9    H40   S    
C24   H22   S    
C14   C15   S    
C3    H2    S    
Cu1   N1    S    
N1    C27   S    
C3    C16   S    
Cu2   N2    S    
