data_mof_unit_31086.cif
_audit_creation_date              2012-12-10T17:25:16-0500
_audit_creation_method            fapswitch 2.2
_symmetry_space_group_name_H-M    P1
_symmetry_Int_Tables_number       1
_space_group_crystal_system       triclinic
_cell_length_a                    27.815497
_cell_length_b                    10.810307
_cell_length_c                    9.572072
_cell_angle_alpha                 90.54021
_cell_angle_beta                  90.118496
_cell_angle_gamma                 92.382634
_cell_volume                      2875.64034406

loop_
_atom_site_label
_atom_site_type_symbol
_atom_type_description
_atom_site_fract_x
_atom_site_fract_y
_atom_site_fract_z
_atom_type_partial_charge
C1    C     C_R   0.504832 0.263491 0.499829 0.799558
C2    C     C_R   0.277178 0.453765 0.386946 -0.204309
C3    C     C_R   0.253661 0.501999 0.503210 0.304756
C4    C     C_R   0.101937 0.508931 0.504751 -0.081269
C5    C     C_R   0.125398 0.395613 0.504853 -0.007302
C6    C     C_R   0.098398 0.283784 0.505164 -0.149329
C7    C     C_R   0.129689 0.622200 0.504529 -0.042227
C8    C     C_R   0.354515 0.496706 0.499884 -0.134506
C9    C     C_R   0.645425 0.501650 0.500869 -0.037455
C10   C     C_R   0.972640 0.393252 0.489253 0.041319
C11   C     C_R   0.975930 0.620062 0.520764 0.052644
C12   C     C_R   0.407510 0.498354 0.499792 0.828591
C13   C     C_R   0.949012 0.506342 0.504817 0.071472
C14   C     C_R   0.944233 0.283530 0.464176 -0.208815
C15   C     C_R   0.894314 0.284344 0.461008 -0.144109
C16   C     C_R   0.870704 0.394369 0.482488 -0.021104
C17   C     C_R   0.897898 0.505684 0.504526 -0.046239
C18   C     C_R   0.873868 0.616319 0.526310 -0.020110
C19   C     C_R   0.823356 0.613584 0.525754 0.533870
C20   C     C_R   0.820261 0.395915 0.481688 0.534524
C21   C     C_R   0.721054 0.509682 0.628518 -0.104326
C22   C     C_R   0.670914 0.508317 0.627946 -0.224574
C23   C     C_R   0.497545 0.738000 0.501519 0.787160
C24   C     C_R   0.671016 0.496254 0.374580 -0.218480
C25   C     C_R   0.721158 0.497011 0.375566 -0.106186
C26   C     C_R   0.746263 0.503832 0.502439 0.364173
C27   C     C_R   0.023643 0.393494 0.498106 0.056039
C28   C     C_R   0.050729 0.508041 0.504815 0.066058
C29   C     C_R   0.027009 0.621271 0.511472 -0.000895
C30   C     C_R   0.048612 0.282478 0.501863 -0.209585
C31   C     C_R   0.105394 0.735399 0.503343 0.164250
C32   C     C_R   0.950600 0.728842 0.547033 -0.209573
C33   C     C_R   0.900630 0.726794 0.549213 -0.146714
C34   C     C_R   0.592492 0.500631 0.500200 0.771751
C35   C     C_R   0.055070 0.732735 0.506268 -0.193754
C36   C     C_R   0.541383 0.120345 0.748956 0.187695
C37   C     C_R   0.532467 0.066062 0.879166 -0.157272
C38   C     C_R   0.504692 0.956647 0.888144 -0.188210
C39   C     C_R   0.490215 0.893538 0.766631 -0.165589
C40   C     C_R   0.501792 0.942230 0.633467 0.054927
C41   C     C_R   0.519157 0.066295 0.627046 0.093643
C42   C     C_R   0.511843 0.130263 0.500382 -0.114992
C43   C     C_R   0.502760 0.063620 0.376407 -0.217646
C44   C     C_R   0.497782 0.936107 0.378562 -0.213393
C45   C     C_R   0.175673 0.395855 0.505752 0.535287
C46   C     C_R   0.496782 0.873533 0.506057 -0.105965
C47   C     C_R   0.563942 0.664754 0.146100 -0.161117
C48   C     C_R   0.595038 0.745262 0.074577 -0.218865
C49   C     C_R   0.595060 0.744965 0.930701 -0.191873
C50   C     C_R   0.563902 0.664366 0.857528 -0.150541
C51   C     C_R   0.531393 0.580947 0.926056 0.186471
C52   C     C_R   0.531392 0.580998 0.075808 0.205514
C53   C     C_R   0.470303 0.422586 0.072954 -0.043284
C54   C     C_R   0.470318 0.422618 0.924895 -0.067161
C55   C     C_R   0.180654 0.616584 0.503674 0.546585
C56   C     C_R   0.280486 0.546252 0.618305 -0.104002
C57   C     C_R   0.330514 0.544162 0.616470 -0.296864
C58   C     C_R   0.327436 0.446888 0.385936 0.434285
Cu1   Cu    Cu3+1 0.500000 0.499990 0.640660 0.915382
Cu2   Cu    Cu3+1 0.500000 0.500010 0.359340 0.942446
H1    H     H_    0.262501 0.583067 0.708908 0.156114
H2    H     H_    0.968297 0.817174 0.570288 0.136524
H3    H     H_    0.652363 0.491221 0.275126 0.163106
H4    H     H_    0.883031 0.812725 0.569211 0.186430
H5    H     H_    0.740572 0.492618 0.277825 0.137422
H6    H     H_    0.038364 0.820555 0.499888 0.136629
H7    H     H_    0.498729 0.109962 0.277447 0.163626
H8    H     H_    0.547600 0.107844 0.973659 0.142825
H9    H     H_    0.256290 0.420861 0.297431 0.148064
H10   H     H_    0.496449 0.917231 0.989317 0.149822
H11   H     H_    0.468544 0.809329 0.779549 0.175251
H12   H     H_    0.493230 0.886880 0.279994 0.167652
H13   H     H_    0.445999 0.359168 0.127480 0.152631
H14   H     H_    0.567265 0.672642 0.256191 0.203973
H15   H     H_    0.619358 0.808321 0.131562 0.163732
H16   H     H_    0.619286 0.808022 0.875013 0.164595
H17   H     H_    0.566810 0.672460 0.747577 0.205688
H18   H     H_    0.446032 0.359172 0.868599 0.146719
H19   H     H_    0.115700 0.195842 0.507735 0.180960
H20   H     H_    0.652188 0.512691 0.726854 0.163273
H21   H     H_    0.740376 0.514835 0.726863 0.137377
H22   H     H_    0.874259 0.197801 0.441557 0.188404
H23   H     H_    0.959473 0.195350 0.442968 0.138105
H24   H     H_    0.030711 0.192308 0.505913 0.133518
H25   H     H_    0.350504 0.581192 0.705788 0.182118
N1    N     N_R   0.202085 0.504956 0.504619 -0.453556
N2    N     N_R   0.797762 0.504482 0.503267 -0.470100
N3    N     N_R   0.500460 0.501210 0.147910 -0.200262
N4    N     N_R   0.500480 0.501290 0.852040 -0.207574
O1    O     O_R   0.500000 0.319640 0.618810 -0.570732
O2    O     O_2   0.793865 0.289794 0.460369 -0.533554
O3    O     O_2   0.208972 0.720713 0.500728 -0.547015
O4    O     O_2   0.799968 0.719080 0.546621 -0.535219
O5    O     O_R   0.500000 0.319660 0.381240 -0.595660
O6    O     O_R   0.430260 0.500010 0.618770 -0.589299
O7    O     O_R   0.430270 0.500030 0.381200 -0.527774
O8    O     O_R   0.500000 0.680340 0.618760 -0.609477
O9    O     O_R   0.500000 0.680360 0.381190 -0.598615
O10   O     O_R   0.569730 0.499970 0.618800 -0.607507
O11   O     O_R   0.569740 0.499990 0.381230 -0.599244
O12   O     O_2   0.198175 0.287582 0.508501 -0.553070
O13   O     O_3   0.350336 0.397861 0.270766 -0.605353
C59   C     C_3   0.341332 0.267939 0.263054 0.034205
H26   H     H_    0.347933 0.238449 0.153503 0.166358
H27   H     H_    0.303267 0.239198 0.286355 0.155793
C60   C     C_3   0.375711 0.200427 0.358779 -0.371223
H28   H     H_    0.413341 0.227942 0.331563 0.232489
H29   H     H_    0.369342 0.226784 0.469460 0.209791
C61   C     C_3   0.368878 0.060191 0.343550 -0.873150
H30   H     H_    0.331282 0.030166 0.369247 0.272337
H31   H     H_    0.393523 0.014482 0.416396 0.264624
H32   H     H_    0.377225 0.030632 0.235128 0.250062
C62   C     C_3   0.131164 0.861439 0.498727 -0.731750
H33   H     H_    0.153014 0.869833 0.402102 0.258804
H34   H     H_    0.105877 0.938316 0.497713 0.187465
H35   H     H_    0.154176 0.875766 0.592857 0.259710
C63   C     C_3   0.580048 0.222207 0.743096 -0.797911
H36   H     H_    0.613357 0.190291 0.793009 0.216563
H37   H     H_    0.589608 0.247192 0.634254 0.221380
H38   H     H_    0.568456 0.305086 0.801243 0.253140

loop_
_geom_bond_atom_site_label_1
_geom_bond_atom_site_label_2
_ccdc_geom_bond_type
C10   C27   A    
C21   C26   A    
C38   H10   S    
C1    O1    A    
Cu1   O10   S    
C41   C42   A    
C7    C55   A    
Cu2   N3    S    
C45   N1    A    
C53   C54   A    
C40   C46   A    
C37   C38   A    
C28   C29   A    
Cu2   O9    S    
C63   H37   S    
C5    C6    A    
C9    C22   A    
C60   H28   S    
C15   C16   A    
C37   H8    S    
C54   H18   S    
C56   C57   A    
C18   C19   A    
Cu1   N4    S    
C8    C58   A    
C1    O5    A    
C34   O11   A    
C12   O6    A    
C58   O13   S    
C53   N3    A    
C2    H9    S    
C19   O4    S    
C8    C12   S    
C62   H35   S    
Cu1   Cu2   S    
C23   C46   S    
C21   C22   A    
C3    N1    S    
C48   H15   S    
C36   C41   A    
Cu1   O6    S    
C14   H23   S    
C4    C7    A    
C4    C28   A    
C44   C46   A    
C50   C51   A    
C15   H22   S    
C38   C39   A    
C20   O2    S    
C7    C31   A    
C51   C52   A    
C52   N3    A    
C25   H5    S    
C24   C25   A    
C54   N4    A    
C10   C14   A    
C63   H38   S    
C39   C40   A    
C26   N2    S    
C35   H6    S    
C25   C26   A    
C5    C45   A    
Cu1   O1    S    
C43   C44   A    
C55   O3    S    
C8    C57   A    
C3    C56   A    
C47   C48   A    
C16   C20   A    
C17   C18   A    
C49   H16   S    
C59   H27   S    
C36   C63   S    
C45   O12   S    
Cu2   O7    S    
C40   C41   A    
C6    C30   A    
C21   H21   S    
C11   C32   A    
C24   H3    S    
C9    C34   S    
Cu1   O8    S    
C31   C35   A    
C61   H32   S    
C42   C43   A    
C50   H17   S    
C59   H26   S    
C62   H33   S    
C36   C37   A    
C23   O8    A    
C14   C15   A    
C53   H13   S    
C47   H14   S    
C4    C5    A    
Cu2   O11   S    
C10   C13   A    
C2    C58   A    
C9    C24   A    
C47   C52   A    
C34   O10   A    
C29   C35   A    
C19   N2    A    
C13   C17   A    
C32   C33   A    
C55   N1    A    
C61   H31   S    
C2    C3    A    
C22   H20   S    
C61   H30   S    
C51   N4    A    
C20   N2    A    
C11   C13   A    
C6    H19   S    
C16   C17   A    
C60   H29   S    
C33   H4    S    
C48   C49   A    
C57   H25   S    
C44   H12   S    
C59   C60   S    
C30   H24   S    
O13   C59   S    
C18   C33   A    
C32   H2    S    
C1    C42   S    
C23   O9    A    
C11   C29   A    
C43   H7    S    
C49   C50   A    
C27   C28   A    
C39   H11   S    
C56   H1    S    
C12   O7    A    
C62   H34   S    
C63   H36   S    
C31   C62   S    
C27   C30   A    
C60   C61   S    
Cu2   O5    S    
