data_mof_unit_6018.cif
_audit_creation_date              2012-12-10T20:27:58-0500
_audit_creation_method            fapswitch 2.2
_symmetry_space_group_name_H-M    P1
_symmetry_Int_Tables_number       1
_space_group_crystal_system       triclinic
_cell_length_a                    12.806388
_cell_length_b                    10.722055
_cell_length_c                    9.852724
_cell_angle_alpha                 88.684654
_cell_angle_beta                  97.274542
_cell_angle_gamma                 91.478575
_cell_volume                      1341.28447519

loop_
_atom_site_label
_atom_site_type_symbol
_atom_type_description
_atom_site_fract_x
_atom_site_fract_y
_atom_site_fract_z
_atom_type_partial_charge
C1    C     C_R   0.504974 0.260102 0.501822 0.951146
C2    C     C_R   0.543400 0.940817 0.382445 0.361227
C3    C     C_R   0.516072 0.872810 0.497967 -0.255869
C4    C     C_R   0.298324 0.498657 0.472882 0.875139
C5    C     C_R   0.511312 0.932629 0.620410 -0.012858
C6    C     C_3   0.427724 0.918068 0.712438 -0.475243
C7    C     C_3   0.426216 0.059544 0.714748 0.420935
C8    C     C_R   0.409525 0.472953 0.057573 0.202342
C9    C     C_R   0.588037 0.532612 0.085404 -0.150587
C10   C     C_R   0.588016 0.532799 0.941561 -0.139333
C11   C     C_R   0.409054 0.475576 0.914391 0.155152
C12   C     C_R   0.025552 0.452966 0.544397 0.121695
C13   C     C_3   0.346090 0.357420 0.899253 -0.538866
C14   C     C_3   0.350475 0.350801 0.053707 0.251662
C15   C     C_R   0.500764 0.740427 0.498181 0.916431
C16   C     C_R   0.701901 0.500963 0.527150 0.896035
C17   C     C_R   0.814122 0.494988 0.544946 -0.147638
C18   C     C_R   0.186576 0.502851 0.454616 -0.051675
C19   C     C_R   0.029721 0.603806 0.354955 -0.215165
C20   C     C_R   0.135789 0.583324 0.355679 -0.199765
C21   C     C_R   0.131696 0.434282 0.544958 -0.259319
C22   C     C_3   0.860556 0.784370 0.455997 0.013355
C23   C     C_R   0.975094 0.542991 0.452950 0.063642
C24   C     C_3   0.798641 0.811394 0.574934 -0.351485
C25   C     C_3   0.815545 0.946097 0.621123 -0.973647
C26   C     C_3   0.248799 0.088844 0.725227 -0.346901
C27   C     C_3   0.233123 0.274438 0.200249 0.145402
C28   C     C_3   0.203750 0.144561 0.143036 -0.413039
C29   C     C_3   0.184876 0.051494 0.257538 -0.908086
C30   C     C_3   0.683303 0.192146 0.304663 -0.271357
C31   C     C_3   0.632978 0.860297 0.218006 0.159452
C32   C     C_3   0.626529 0.862145 0.062130 -0.329809
C33   C     C_3   0.732098 0.832076 0.015511 -0.985958
C34   C     C_R   0.871111 0.571303 0.462566 0.416973
C35   C     C_R   0.863225 0.404816 0.634127 -0.303142
C36   C     C_R   0.969910 0.385781 0.636199 -0.209983
C37   C     C_R   0.511798 0.059714 0.623506 -0.025320
C38   C     C_R   0.525891 0.129695 0.506254 -0.269503
C39   C     C_R   0.557266 0.070190 0.391108 0.408779
H1    H     H_    0.457967 0.875232 0.812928 0.166791
H2    H     H_    0.008038 0.316371 0.705992 0.149564
H3    H     H_    0.179213 0.635186 0.284535 0.169387
H4    H     H_    0.172540 0.369515 0.617927 0.147974
H5    H     H_    0.354896 0.872607 0.660467 0.206706
H6    H     H_    0.849472 0.860948 0.378400 0.159131
H7    H     H_    0.946476 0.785636 0.493251 0.143803
H8    H     H_    0.713952 0.793790 0.542296 0.217278
H9    H     H_    0.823596 0.747530 0.662820 0.214941
H10   H     H_    0.900184 0.965183 0.656319 0.266410
H11   H     H_    0.769418 0.962325 0.706894 0.269277
H12   H     H_    0.454146 0.099289 0.816503 0.059117
H13   H     H_    0.788475 0.011672 0.535865 0.249425
H14   H     H_    0.271660 0.107440 0.835693 0.152539
H15   H     H_    0.217095 0.991880 0.712810 0.174982
H16   H     H_    0.184012 0.152158 0.687258 0.180715
H17   H     H_    0.166615 0.306885 0.251450 0.167346
H18   H     H_    0.302457 0.269770 0.280536 0.158625
H19   H     H_    0.131269 0.150270 0.068295 0.226872
H20   H     H_    0.268157 0.109909 0.089392 0.220187
H21   H     H_    0.257420 0.042616 0.331726 0.288883
H22   H     H_    0.163384 0.958510 0.213534 0.258848
H23   H     H_    0.659641 0.557297 0.150313 0.175934
H24   H     H_    0.119571 0.082366 0.312101 0.256735
H25   H     H_    0.745371 0.121611 0.308194 0.121829
H26   H     H_    0.694558 0.244332 0.401845 0.147339
H27   H     H_    0.695181 0.259755 0.220762 0.195537
H28   H     H_    0.655301 0.765919 0.258090 0.194328
H29   H     H_    0.695531 0.927917 0.258233 0.119169
H30   H     H_    0.565938 0.792770 0.019710 0.225642
H31   H     H_    0.602359 0.956026 0.021362 0.233017
H32   H     H_    0.791808 0.905836 0.048576 0.266533
H33   H     H_    0.722897 0.827324 0.902183 0.271002
H34   H     H_    0.659411 0.557919 0.898478 0.162077
H35   H     H_    0.760190 0.740727 0.059080 0.270288
H36   H     H_    0.265959 0.372256 0.844492 0.223868
H37   H     H_    0.390566 0.283554 0.857564 0.192598
H38   H     H_    0.400093 0.273158 0.101162 0.118517
H39   H     H_    0.818438 0.347126 0.698861 0.174758
H40   H     H_    0.991551 0.669417 0.280608 0.174821
N1    N     N_R   0.499290 0.499140 0.142710 -0.132647
N2    N     N_R   0.499290 0.499180 0.857070 -0.105204
O1    O     O_R   0.500010 0.316790 0.614690 -0.611762
O2    O     O_3   0.332424 0.110202 0.646213 -0.592963
O3    O     O_3   0.249080 0.362058 0.094732 -0.620897
O4    O     O_3   0.581609 0.136702 0.276427 -0.583773
O5    O     O_3   0.533129 0.887525 0.254526 -0.607202
O6    O     O_R   0.500000 0.316760 0.385350 -0.600049
O7    O     O_R   0.346360 0.499990 0.595720 -0.606312
O8    O     O_R   0.346350 0.499960 0.366370 -0.620360
O9    O     O_R   0.500000 0.683240 0.614650 -0.614926
O10   O     O_R   0.499990 0.683210 0.385310 -0.581509
O11   O     O_R   0.653650 0.500040 0.633630 -0.642489
O12   O     O_R   0.653640 0.500010 0.404280 -0.614142
O13   O     O_3   0.823818 0.671893 0.390805 -0.681710
Zn1   Zn    Zn3+2 0.500010 0.500020 0.653130 0.945776
Zn2   Zn    Zn3+2 0.499990 0.499980 0.346870 0.972557

loop_
_geom_bond_atom_site_label_1
_geom_bond_atom_site_label_2
_ccdc_geom_bond_type
C1    O6    A    
C7    O2    S    
C29   H24   S    
C26   O2    S    
C30   H25   S    
C18   C21   A    
C35   C36   A    
C14   O3    S    
C26   H16   S    
O9    Zn1   S    
C11   N2    A    
C31   H28   S    
C12   C23   A    
C16   O12   A    
C28   C29   S    
C5    C37   A    
C38   C39   A    
N2    Zn1   S    
C10   H34   S    
C14   H38   S    
C25   H11   S    
C33   H33   S    
O10   Zn2   S    
C21   H4    S    
C2    C39   A    
C19   C20   A    
C16   C17   S    
C29   H21   S    
C12   C36   A    
C9    C10   A    
C18   C20   A    
C4    C18   S    
O7    Zn1   S    
C31   O5    S    
C6    H5    S    
C13   C14   S    
C22   O13   S    
C36   H2    S    
C26   H15   S    
C31   H29   S    
C29   H22   S    
C9    H23   S    
C24   H9    S    
C13   H36   S    
C24   C25   S    
C27   H18   S    
C27   H17   S    
C32   H31   S    
C1    O1    A    
C12   C21   A    
O11   Zn1   S    
C9    N1    A    
C19   C23   A    
C37   C38   A    
C31   C32   S    
C13   H37   S    
C23   C34   A    
O6    Zn2   S    
C7    C37   S    
C30   O4    S    
C19   H40   S    
C30   H27   S    
C1    C38   S    
C22   H7    S    
C16   O11   A    
O12   Zn2   S    
C22   C24   S    
N1    Zn2   S    
C17   C34   A    
C39   O4    S    
C26   H14   S    
C3    C15   S    
C4    O8    A    
C28   H20   S    
C27   O3    S    
C8    C14   S    
O1    Zn1   S    
C10   N2    A    
C32   H30   S    
C34   O13   S    
C3    C5    A    
C20   H3    S    
C6    C7    S    
C4    O7    A    
C28   H19   S    
C35   H39   S    
C32   C33   S    
C24   H8    S    
O8    Zn2   S    
C2    C3    A    
C25   H13   S    
C7    H12   S    
C15   O9    A    
C11   C13   S    
C5    C6    S    
C8    C11   A    
C2    O5    S    
C6    H1    S    
C25   H10   S    
C30   H26   S    
C33   H32   S    
C15   O10   A    
C33   H35   S    
C22   H6    S    
C27   C28   S    
C8    N1    A    
C17   C35   A    
