data_mof_unit_47805.cif
_audit_creation_date              2013-03-05T15:52:03-0500
_audit_creation_method            fapswitch 2.2
_symmetry_space_group_name_H-M    P1
_symmetry_Int_Tables_number       1
_space_group_crystal_system       triclinic
_cell_length_a                    25.763588
_cell_length_b                    26.307059
_cell_length_c                    22.089984
_cell_angle_alpha                 89.99728
_cell_angle_beta                  125.832039
_cell_angle_gamma                 90.202065
_cell_volume                      12138.0738558

loop_
_atom_site_label
_atom_site_type_symbol
_atom_site_description
_atom_site_fract_x
_atom_site_fract_y
_atom_site_fract_z
_atom_type_partial_charge
Zn1   Zn    Zn3+2 0.074160 0.706620 0.561580 1.120955
Zn2   Zn    Zn3+2 0.925840 0.293380 0.438420 1.140971
Zn3   Zn    Zn3+2 0.925840 0.706620 0.438420 1.122090
Zn4   Zn    Zn3+2 0.074160 0.293380 0.561580 1.140745
Zn5   Zn    Zn3+2 0.574160 0.206620 0.561580 1.128213
Zn6   Zn    Zn3+2 0.425840 0.793380 0.438420 1.129230
Zn7   Zn    Zn3+2 0.425840 0.206620 0.438420 1.138027
Zn8   Zn    Zn3+2 0.574160 0.793380 0.561580 1.130270
Zn9   Zn    Zn3+2 0.012590 0.793370 0.438410 1.095559
Zn10  Zn    Zn3+2 0.987410 0.206630 0.561590 1.106024
Zn11  Zn    Zn3+2 0.987410 0.793370 0.561590 1.096337
Zn12  Zn    Zn3+2 0.012590 0.206630 0.438410 1.106062
Zn13  Zn    Zn3+2 0.512590 0.293370 0.438410 1.095039
Zn14  Zn    Zn3+2 0.487410 0.706630 0.561590 1.096800
Zn15  Zn    Zn3+2 0.487410 0.293370 0.561590 1.105662
Zn16  Zn    Zn3+2 0.512590 0.706630 0.438410 1.108014
O1    O     O_3   0.000000 0.750000 0.500000 -0.557854
O2    O     O_3   0.000000 0.250000 0.500000 -0.553567
O3    O     O_3   0.500000 0.250000 0.500000 -0.556438
O4    O     O_3   0.500000 0.750000 0.500000 -0.556305
O5    O     O_R   0.887450 0.719640 0.335600 -0.589982
O6    O     O_R   0.112550 0.280360 0.664400 -0.595922
O7    O     O_R   0.112550 0.719640 0.664400 -0.589970
O8    O     O_R   0.887450 0.280360 0.335600 -0.594290
O9    O     O_R   0.387450 0.219640 0.335600 -0.587692
O10   O     O_R   0.612550 0.780360 0.664400 -0.596645
O11   O     O_R   0.612550 0.219640 0.664400 -0.587234
O12   O     O_R   0.387450 0.780360 0.335600 -0.584947
O13   O     O_R   0.094250 0.780350 0.456890 -0.590995
O14   O     O_R   0.905750 0.219650 0.543110 -0.592981
O15   O     O_R   0.905750 0.780350 0.543110 -0.591569
O16   O     O_R   0.094250 0.219650 0.456890 -0.593325
O17   O     O_R   0.594250 0.280350 0.456890 -0.592967
O18   O     O_R   0.405750 0.719650 0.543110 -0.590924
O19   O     O_R   0.405750 0.280350 0.543110 -0.592510
O20   O     O_R   0.594250 0.719650 0.456890 -0.590424
O21   O     O_R   0.008810 0.865800 0.456890 -0.605068
O22   O     O_R   0.991190 0.134200 0.543110 -0.609531
O23   O     O_R   0.991190 0.865800 0.543110 -0.604391
O24   O     O_R   0.008810 0.134200 0.456890 -0.608685
O25   O     O_R   0.508810 0.365800 0.456890 -0.605105
O26   O     O_R   0.491190 0.634200 0.543110 -0.606478
O27   O     O_R   0.491190 0.365800 0.543110 -0.606247
O28   O     O_R   0.508810 0.634200 0.456890 -0.608734
O29   O     O_R   0.948090 0.634190 0.456900 -0.568542
O30   O     O_R   0.051910 0.365810 0.543100 -0.564158
O31   O     O_R   0.051910 0.634190 0.543100 -0.567664
O32   O     O_R   0.948090 0.365810 0.456900 -0.563144
O33   O     O_R   0.448090 0.134190 0.456900 -0.561835
O34   O     O_R   0.551910 0.865810 0.543100 -0.576908
O35   O     O_R   0.551910 0.134190 0.543100 -0.569450
O36   O     O_R   0.448090 0.865810 0.456900 -0.559430
O37   O     O_R   0.137350 0.719630 0.543100 -0.608039
O38   O     O_R   0.862650 0.280370 0.456900 -0.618374
O39   O     O_R   0.862650 0.719630 0.456900 -0.608675
O40   O     O_R   0.137350 0.280370 0.543100 -0.619284
O41   O     O_R   0.637350 0.219630 0.543100 -0.614031
O42   O     O_R   0.362650 0.780370 0.456900 -0.618716
O43   O     O_R   0.362650 0.219630 0.456900 -0.608605
O44   O     O_R   0.637350 0.780370 0.543100 -0.607997
O45   O     O_R   0.948170 0.780360 0.335600 -0.585942
O46   O     O_R   0.051830 0.219640 0.664400 -0.582756
O47   O     O_R   0.051830 0.780360 0.664400 -0.583615
O48   O     O_R   0.948170 0.219640 0.335600 -0.582379
O49   O     O_R   0.448170 0.280360 0.335600 -0.587066
O50   O     O_R   0.551830 0.719640 0.664400 -0.580962
O51   O     O_R   0.551830 0.280360 0.664400 -0.585455
O52   O     O_R   0.448170 0.719640 0.335600 -0.583118
C1    C     C_R   0.900338 0.750050 0.300820 0.833147
C2    C     C_R   0.099706 0.249994 0.699256 0.859512
C3    C     C_R   0.099487 0.750003 0.699138 0.831090
C4    C     C_R   0.900420 0.249976 0.300793 0.855868
C5    C     C_R   0.400256 0.250090 0.300786 0.836970
C6    C     C_R   0.599537 0.750120 0.699297 0.828797
C7    C     C_R   0.599692 0.250174 0.699130 0.858801
C8    C     C_R   0.400519 0.749974 0.300805 0.860117
C9    C     C_R   0.138477 0.746552 0.495967 0.856960
C10   C     C_R   0.862282 0.253921 0.505127 0.865719
C11   C     C_R   0.861617 0.746370 0.504062 0.859522
C12   C     C_R   0.137718 0.254047 0.494799 0.865828
C13   C     C_R   0.638073 0.246315 0.495367 0.859384
C14   C     C_R   0.362245 0.753978 0.504930 0.852861
C15   C     C_R   0.361833 0.246269 0.504682 0.870109
C16   C     C_R   0.638436 0.753711 0.496004 0.864430
C17   C     C_R   0.000102 0.890180 0.500053 0.835781
C18   C     C_R   0.999830 0.109825 0.499876 0.825040
C19   C     C_R   0.499982 0.390174 0.499975 0.833126
C20   C     C_R   0.500174 0.609822 0.500144 0.826806
C21   C     C_R   0.999915 0.609552 0.499886 0.842298
C22   C     C_R   0.000121 0.390063 0.499742 0.958122
C23   C     C_R   0.499401 0.109720 0.499662 0.904510
C24   C     C_R   0.501037 0.890290 0.498500 0.890024
C25   C     C_R   0.934596 0.550699 0.361537 0.243373
C26   C     C_R   0.034368 0.449564 0.635196 0.262534
C27   C     C_R   0.066194 0.550613 0.638313 0.242449
C28   C     C_R   0.966950 0.449974 0.364732 0.261775
C29   C     C_R   0.451988 0.054152 0.361966 0.211531
C30   C     C_R   0.570166 0.948055 0.635717 0.234861
C31   C     C_R   0.537201 0.047905 0.635896 0.267901
C32   C     C_R   0.469911 0.950280 0.363098 0.260394
C33   C     C_R   0.935714 0.531876 0.303471 0.272365
C34   C     C_R   0.050187 0.480985 0.695649 0.325420
C35   C     C_R   0.066733 0.531582 0.697238 0.273792
C36   C     C_R   0.952626 0.481555 0.305288 0.326112
C37   C     C_R   0.459051 0.033473 0.309139 0.293764
C38   C     C_R   0.571505 0.965128 0.696047 0.273228
C39   C     C_R   0.554681 0.015346 0.696271 0.325151
C40   C     C_R   0.465998 0.981096 0.308151 0.318534
C41   C     C_R   0.979250 0.472276 0.432192 -0.095662
C42   C     C_R   0.030421 0.525545 0.568375 -0.092082
C43   C     C_R   0.021398 0.472229 0.567595 -0.097379
C44   C     C_R   0.969872 0.525366 0.431363 -0.093884
C45   C     C_R   0.482183 0.973547 0.429906 -0.080884
C46   C     C_R   0.521895 0.026278 0.566507 -0.089154
C47   C     C_R   0.531686 0.973307 0.565762 -0.125348
C48   C     C_R   0.476220 0.027504 0.430441 -0.105360
C49   C     C_R   0.000286 0.445239 0.499834 0.010394
C50   C     C_R   0.999855 0.552830 0.499972 0.002713
C51   C     C_R   0.504715 0.946422 0.497107 0.010119
C52   C     C_R   0.497160 0.053753 0.498734 0.007963
C53   C     C_3   0.754546 0.203889 0.022923 0.230519
C54   C     C_3   0.241766 0.798074 0.976406 0.245760
C55   C     C_3   0.244892 0.203479 0.976728 0.228267
C56   C     C_3   0.754293 0.799972 0.024321 0.236479
C57   C     C_3   0.259966 0.701554 0.023228 0.224011
C58   C     C_3   0.748192 0.299287 0.976505 0.243929
C59   C     C_3   0.741918 0.703977 0.976596 0.226187
C60   C     C_3   0.253992 0.299179 0.023619 0.245720
C61   C     C_3   0.194557 0.728328 0.975435 0.233512
C62   C     C_3   0.810258 0.268110 0.025473 0.218029
C63   C     C_3   0.805622 0.733441 0.024868 0.229158
C64   C     C_3   0.191056 0.268715 0.974352 0.217002
C65   C     C_3   0.692633 0.235088 0.974058 0.232228
C66   C     C_3   0.307268 0.771337 0.024207 0.210392
C67   C     C_3   0.307710 0.233995 0.025912 0.226792
C68   C     C_3   0.690362 0.770521 0.975872 0.214094
C69   C     C_1   0.138905 0.750340 0.778237 0.030670
C70   C     C_1   0.861119 0.250057 0.221574 0.017187
C71   C     C_1   0.860202 0.751015 0.221804 0.028525
C72   C     C_1   0.139368 0.249949 0.778416 0.013890
C73   C     C_1   0.640059 0.251240 0.778197 0.019811
C74   C     C_1   0.361550 0.749753 0.221605 0.021306
C75   C     C_1   0.359989 0.250995 0.221719 0.027644
C76   C     C_1   0.638276 0.750620 0.778550 0.028109
C77   C     C_3   0.278431 0.723821 0.973472 0.242115
C78   C     C_3   0.726173 0.281918 0.024890 0.224808
C79   C     C_3   0.721799 0.723226 0.026171 0.240565
C80   C     C_3   0.275603 0.280902 0.975291 0.236573
C81   C     C_3   0.776650 0.221230 0.974553 0.243289
C82   C     C_3   0.223312 0.775787 0.026041 0.240694
C83   C     C_3   0.223156 0.221735 0.024998 0.244959
C84   C     C_3   0.774316 0.780652 0.974702 0.220594
C85   C     C_3   0.212973 0.750634 0.925884 -0.337529
C86   C     C_3   0.788115 0.250711 0.073740 -0.322948
C87   C     C_3   0.785623 0.752669 0.074281 -0.328710
C88   C     C_3   0.212797 0.250383 0.926160 -0.323644
C89   C     C_3   0.714707 0.252436 0.925806 -0.336041
C90   C     C_3   0.288775 0.749051 0.073797 -0.324436
C91   C     C_3   0.285991 0.252250 0.074114 -0.337794
C92   C     C_3   0.710475 0.751209 0.926386 -0.318886
C93   C     C_1   0.172111 0.750747 0.844923 0.277125
C94   C     C_1   0.828159 0.250168 0.154817 0.270509
C95   C     C_1   0.826565 0.752151 0.155171 0.275918
C96   C     C_1   0.172607 0.249925 0.845141 0.270942
C97   C     C_1   0.673971 0.252180 0.844861 0.272352
C98   C     C_1   0.329011 0.749200 0.154872 0.271635
C99   C     C_1   0.326371 0.251952 0.155054 0.273096
C100  C     C_1   0.670593 0.750789 0.845282 0.274982
C101  C     C_R   0.747022 0.675686 0.406592 0.309021
C102  C     C_R   0.246305 0.330480 0.581446 0.331333
C103  C     C_R   0.252746 0.675925 0.593798 0.308940
C104  C     C_R   0.752988 0.329199 0.416631 0.335870
C105  C     C_R   0.250803 0.171366 0.414461 0.304311
C106  C     C_R   0.754053 0.824104 0.595288 0.336388
C107  C     C_R   0.748763 0.172246 0.586804 0.299400
C108  C     C_R   0.251692 0.827939 0.413648 0.335652
C109  C     C_R   0.689998 0.664719 0.336317 0.223993
C110  C     C_R   0.301459 0.344708 0.651765 0.159651
C111  C     C_R   0.309689 0.664305 0.663756 0.222018
C112  C     C_R   0.697516 0.342807 0.346325 0.145459
C113  C     C_R   0.194723 0.157027 0.344944 0.215467
C114  C     C_R   0.811353 0.834492 0.666105 0.139835
C115  C     C_R   0.804579 0.158787 0.656829 0.190963
C116  C     C_R   0.195966 0.839901 0.342720 0.155040
C117  C     C_R   0.632157 0.687018 0.316308 0.244895
C118  C     C_R   0.360795 0.321421 0.677991 0.147650
C119  C     C_R   0.368081 0.685801 0.683835 0.247290
C120  C     C_R   0.638243 0.319453 0.321047 0.147237
C121  C     C_R   0.135579 0.179450 0.320836 0.243202
C122  C     C_R   0.868921 0.811446 0.686063 0.151374
C123  C     C_R   0.863873 0.181240 0.680695 0.252792
C124  C     C_R   0.137207 0.816213 0.318829 0.148980
C125  C     C_R   0.634061 0.724832 0.362632 0.286653
C126  C     C_R   0.362142 0.282140 0.635086 0.317940
C127  C     C_R   0.366994 0.723833 0.638496 0.289192
C128  C     C_R   0.637335 0.280469 0.364492 0.322586
C129  C     C_R   0.135246 0.219194 0.363432 0.291594
C130  C     C_R   0.866424 0.774463 0.638275 0.318257
C131  C     C_R   0.864541 0.220131 0.637126 0.289616
C132  C     C_R   0.137198 0.778313 0.364224 0.318318
C133  C     C_R   0.691558 0.734747 0.433852 -0.126821
C134  C     C_R   0.306392 0.269750 0.563556 -0.120356
C135  C     C_R   0.309603 0.734717 0.567838 -0.124955
C136  C     C_R   0.693299 0.268716 0.435989 -0.122039
C137  C     C_R   0.191708 0.231917 0.434124 -0.127365
C138  C     C_R   0.808887 0.765487 0.566727 -0.118612
C139  C     C_R   0.808159 0.232199 0.566098 -0.127627
C140  C     C_R   0.193519 0.768055 0.436196 -0.118875
C141  C     C_R   0.749576 0.716106 0.450651 -0.138788
C142  C     C_R   0.247141 0.287594 0.543481 -0.136052
C143  C     C_R   0.250942 0.716570 0.550410 -0.137736
C144  C     C_R   0.752552 0.286731 0.455552 -0.135334
C145  C     C_R   0.250895 0.214028 0.453639 -0.134297
C146  C     C_R   0.750970 0.784037 0.550306 -0.131417
C147  C     C_R   0.748894 0.214380 0.546990 -0.119296
C148  C     C_R   0.252261 0.786421 0.454668 -0.131813
C149  C     C_R   0.692366 0.761757 0.489643 0.025726
C150  C     C_R   0.307982 0.239312 0.511631 0.027015
C151  C     C_R   0.309597 0.762467 0.513238 0.029817
C152  C     C_R   0.691885 0.239133 0.488500 0.029000
C153  C     C_R   0.190491 0.261908 0.486365 0.030384
C154  C     C_R   0.807932 0.738544 0.510817 0.025975
C155  C     C_R   0.809315 0.261631 0.513321 0.028061
C156  C     C_R   0.192960 0.739654 0.490281 0.024586
C157  C     C_R   0.002114 0.948860 0.387489 0.305961
C158  C     C_R   0.000317 0.050949 0.614375 0.299421
C159  C     C_R   0.999032 0.948806 0.613070 0.305523
C160  C     C_R   0.998009 0.050952 0.384494 0.298621
C161  C     C_R   0.500828 0.448831 0.386664 0.304886
C162  C     C_R   0.501583 0.551009 0.615150 0.300524
C163  C     C_R   0.499493 0.448870 0.613592 0.304862
C164  C     C_R   0.500197 0.550981 0.386059 0.300671
C165  C     C_R   0.970504 0.972562 0.318022 0.270731
C166  C     C_R   0.031357 0.025992 0.682971 0.285147
C167  C     C_R   0.030608 0.973096 0.682223 0.266400
C168  C     C_R   0.967256 0.025376 0.316271 0.285052
C169  C     C_R   0.469528 0.473133 0.317676 0.265326
C170  C     C_R   0.532740 0.526046 0.683703 0.284495
C171  C     C_R   0.531151 0.473164 0.682806 0.266063
C172  C     C_R   0.469068 0.526025 0.317342 0.284524
C173  C     C_R   0.000294 0.026781 0.443980 -0.105645
C174  C     C_R   0.998582 0.973212 0.555054 -0.097509
C175  C     C_R   0.998837 0.026787 0.555365 -0.105671
C176  C     C_R   0.001637 0.973213 0.444955 -0.097923
C177  C     C_R   0.501417 0.526771 0.444817 -0.106370
C178  C     C_R   0.499081 0.473198 0.555502 -0.095970
C179  C     C_R   0.499803 0.526775 0.556045 -0.107351
C180  C     C_R   0.501492 0.473196 0.444914 -0.097116
C181  C     C_R   0.999547 0.053845 0.499665 -0.032933
C182  C     C_R   0.000203 0.946186 0.500077 -0.036615
C183  C     C_R   0.500530 0.553829 0.500390 -0.034664
C184  C     C_R   0.500122 0.446167 0.500083 -0.034836
Cl1   Cl    Cl    0.097574 0.569450 0.777758 -0.331824
Cl2   Cl    Cl    0.949397 0.457185 0.228191 -0.283383
Cl3   Cl    Cl    0.906102 0.569842 0.223537 -0.327950
Cl4   Cl    Cl    0.055784 0.456264 0.773869 -0.285483
Cl5   Cl    Cl    0.563220 0.038680 0.776982 -0.300001
Cl6   Cl    Cl    0.463744 0.954014 0.233103 -0.282521
Cl7   Cl    Cl    0.446247 0.072291 0.235432 -0.325569
Cl8   Cl    Cl    0.606049 0.926268 0.776682 -0.310677
Cl9   Cl    Cl    0.053521 0.938411 0.762273 -0.315418
Cl10  Cl    Cl    0.941995 0.058834 0.234447 -0.289186
Cl11  Cl    Cl    0.950358 0.937877 0.238904 -0.319384
Cl12  Cl    Cl    0.054614 0.059731 0.764030 -0.286014
Cl13  Cl    Cl    0.553112 0.438783 0.762772 -0.318181
Cl14  Cl    Cl    0.445799 0.559863 0.236544 -0.285822
Cl15  Cl    Cl    0.447012 0.438690 0.237440 -0.316356
Cl16  Cl    Cl    0.556784 0.559918 0.764904 -0.286726
Cl17  Cl    Cl    0.071523 0.915375 0.411795 -0.482646
Cl18  Cl    Cl    0.931934 0.084857 0.592560 -0.432737
Cl19  Cl    Cl    0.929541 0.915346 0.589466 -0.483645
Cl20  Cl    Cl    0.066491 0.084853 0.405774 -0.429039
Cl21  Cl    Cl    0.569938 0.415412 0.409898 -0.486118
Cl22  Cl    Cl    0.432802 0.584249 0.593303 -0.422412
Cl23  Cl    Cl    0.430225 0.415153 0.590206 -0.489152
Cl24  Cl    Cl    0.568809 0.585206 0.408320 -0.426558
Cl25  Cl    Cl    0.863236 0.581992 0.331410 -0.367376
Cl26  Cl    Cl    0.031316 0.383914 0.651029 -0.461737
Cl27  Cl    Cl    0.137267 0.582647 0.667312 -0.360507
Cl28  Cl    Cl    0.967934 0.384134 0.347732 -0.461908
Cl29  Cl    Cl    0.383560 0.094160 0.319482 -0.377931
Cl30  Cl    Cl    0.643490 0.921207 0.662106 -0.315909
Cl31  Cl    Cl    0.536661 0.113997 0.655042 -0.451430
Cl32  Cl    Cl    0.458685 0.884126 0.341543 -0.453040
S1    S     S_3+6 0.118462 0.700445 0.939478 0.167260
O53   O     O_2   0.066953 0.739193 0.894562 -0.124085
O54   O     O_2   0.107392 0.656407 0.889817 -0.241290
O55   O     O_3   0.116672 0.680437 0.010555 -0.436512
H1    H     H_    0.097508 0.645951 0.996177 0.396129
S2    S     S_3+6 0.889350 0.290638 0.064006 0.184759
O56   O     O_2   0.900854 0.339284 0.105866 -0.116763
O57   O     O_2   0.937102 0.251744 0.117293 -0.231772
O58   O     O_3   0.898110 0.301561 0.995390 -0.425899
H2    H     H_    0.924155 0.272958 0.997751 0.396079
S3    S     S_3+6 0.883549 0.709686 0.061400 0.169504
O59   O     O_2   0.932346 0.750752 0.105507 -0.118379
O60   O     O_2   0.897752 0.665498 0.112064 -0.240123
O61   O     O_3   0.886913 0.691178 0.990856 -0.434412
H3    H     H_    0.899985 0.655025 0.000764 0.392050
S4    S     S_3+6 0.112788 0.292588 0.935994 0.186194
O62   O     O_2   0.101219 0.338992 0.890075 -0.118653
O63   O     O_2   0.063906 0.252769 0.886519 -0.231372
O64   O     O_3   0.106194 0.308219 0.005072 -0.425005
H4    H     H_    0.079838 0.280966 0.005578 0.397132
S5    S     S_3+6 0.613277 0.213514 0.935912 0.173461
O65   O     O_2   0.566288 0.254486 0.888021 -0.127186
O66   O     O_2   0.599211 0.167130 0.888758 -0.235368
O67   O     O_3   0.606878 0.199410 0.005568 -0.430394
H5    H     H_    0.582459 0.167074 0.990646 0.398707
S6    S     S_3+6 0.382883 0.800431 0.060519 0.187786
O68   O     O_2   0.391826 0.845583 0.107444 -0.116310
O69   O     O_2   0.435436 0.762998 0.108518 -0.229141
O70   O     O_3   0.385850 0.819796 0.990011 -0.424541
H6    H     H_    0.410864 0.793517 0.985502 0.398787
S7    S     S_3+6 0.386557 0.211665 0.064150 0.173231
O71   O     O_2   0.434281 0.252834 0.110881 -0.120696
O72   O     O_2   0.400096 0.166292 0.112614 -0.236398
O73   O     O_3   0.392513 0.195630 0.994719 -0.430356
H7    H     H_    0.410762 0.160945 0.006800 0.395628
S8    S     S_3+6 0.613203 0.796250 0.939223 0.179591
O74   O     O_2   0.608455 0.848641 0.909131 -0.109365
O75   O     O_2   0.562357 0.763182 0.876693 -0.244200
O76   O     O_3   0.601930 0.800175 0.006839 -0.426512
H8    H     H_    0.577175 0.769313 0.000872 0.394942
S9    S     S_3+6 0.760329 0.141154 0.056725 0.163866
O77   O     O_2   0.829298 0.125647 0.105594 -0.140898
O78   O     O_2   0.733803 0.140448 0.102060 -0.267282
O79   O     O_3   0.719160 0.100339 0.984624 -0.410300
H9    H     H_    0.681674 0.089510 0.983585 0.405428
S10   S     S_3+6 0.227662 0.861532 0.942233 0.154366
O80   O     O_2   0.249768 0.867501 0.892982 -0.207447
O81   O     O_2   0.157178 0.872058 0.897816 -0.206297
O82   O     O_3   0.267797 0.902354 0.014383 -0.424798
H10   H     H_    0.250583 0.936301 0.992281 0.412797
S11   S     S_3+6 0.237461 0.140529 0.942560 0.160601
O83   O     O_2   0.168070 0.125459 0.894636 -0.136225
O84   O     O_2   0.262895 0.139053 0.896301 -0.271820
O85   O     O_3   0.278416 0.099802 0.014491 -0.415228
H11   H     H_    0.316885 0.090524 0.017072 0.401683
S12   S     S_3+6 0.765051 0.862824 0.059710 0.147379
O86   O     O_2   0.735343 0.867185 0.101227 -0.179650
O87   O     O_2   0.835517 0.873808 0.112335 -0.240214
O88   O     O_3   0.730241 0.904534 0.988658 -0.417366
H12   H     H_    0.760498 0.933615 0.006383 0.407386
S13   S     S_3+6 0.274429 0.638155 0.057814 0.165855
O89   O     O_2   0.344887 0.627600 0.101995 -0.134091
O90   O     O_2   0.253087 0.632436 0.107896 -0.267698
O91   O     O_3   0.234635 0.596705 0.986337 -0.410100
H13   H     H_    0.196509 0.586292 0.983999 0.400414
S14   S     S_3+6 0.742141 0.361905 0.942165 0.143316
O92   O     O_2   0.771976 0.363473 0.900702 -0.191777
O93   O     O_2   0.672652 0.375808 0.890021 -0.236558
O94   O     O_3   0.780097 0.403187 0.013976 -0.426312
H14   H     H_    0.761680 0.436836 0.991500 0.410257
S15   S     S_3+6 0.731877 0.640861 0.941995 0.158772
O95   O     O_2   0.662679 0.625863 0.900154 -0.133695
O96   O     O_2   0.751322 0.638888 0.889768 -0.277643
O97   O     O_3   0.776692 0.600371 0.013378 -0.411277
H15   H     H_    0.813140 0.591267 0.011780 0.396691
S16   S     S_3+6 0.261530 0.362155 0.057644 0.149162
O98   O     O_2   0.235876 0.364072 0.103592 -0.198881
O99   O     O_2   0.331063 0.376869 0.105407 -0.224288
O100  O     O_3   0.220274 0.402426 0.985248 -0.423492
H16   H     H_    0.237969 0.436547 0.006628 0.409696
S17   S     S_3+6 0.695011 0.320954 0.062644 0.166373
O101  O     O_2   0.680915 0.288372 0.107267 -0.213509
O102  O     O_2   0.743820 0.360591 0.113180 -0.214739
O103  O     O_3   0.627111 0.349176 0.993315 -0.388537
H17   H     H_    0.640476 0.382956 0.987062 0.410933
S18   S     S_3+6 0.310217 0.689168 0.932577 0.156215
O104  O     O_2   0.263679 0.648185 0.882658 -0.139746
O105  O     O_2   0.320218 0.724775 0.887002 -0.264522
O106  O     O_3   0.380195 0.662659 0.999968 -0.476257
H18   H     H_    0.402850 0.656493 0.976744 0.405335
S19   S     S_3+6 0.307993 0.319004 0.937905 0.156781
O107  O     O_2   0.321833 0.285758 0.893691 -0.211530
O108  O     O_2   0.260001 0.358673 0.887085 -0.233320
O109  O     O_3   0.376276 0.347076 0.007539 -0.389298
H19   H     H_    0.364587 0.382680 0.008831 0.412759
S20   S     S_3+6 0.692190 0.685081 0.066713 0.151969
O110  O     O_2   0.739497 0.643764 0.112867 -0.137253
O111  O     O_2   0.683686 0.717807 0.116078 -0.248992
O112  O     O_3   0.621716 0.658831 0.999080 -0.490543
H20   H     H_    0.601328 0.648958 0.023939 0.407728
S21   S     S_3+6 0.189599 0.809419 0.065404 0.152862
O113  O     O_2   0.179945 0.773326 0.110751 -0.216358
O114  O     O_2   0.234858 0.850976 0.115613 -0.228240
O115  O     O_3   0.118624 0.834398 0.997130 -0.394130
H21   H     H_    0.126308 0.871449 0.998680 0.414728
S22   S     S_3+6 0.806615 0.181169 0.936336 0.156630
O116  O     O_2   0.756292 0.142742 0.884921 -0.149855
O117  O     O_2   0.822760 0.213041 0.892952 -0.256442
O118  O     O_3   0.872475 0.151023 0.005814 -0.464788
H22   H     H_    0.895465 0.140649 0.984304 0.400968
S23   S     S_3+6 0.806117 0.817359 0.935599 0.165140
O119  O     O_2   0.818658 0.782695 0.891495 -0.212113
O120  O     O_2   0.758397 0.856987 0.884212 -0.193630
O121  O     O_3   0.875093 0.845472 0.003708 -0.396269
H23   H     H_    0.862677 0.879462 0.010459 0.404824
S24   S     S_3+6 0.191473 0.182655 0.062371 0.157387
O122  O     O_2   0.240147 0.143348 0.112971 -0.143257
O123  O     O_2   0.176599 0.215160 0.106321 -0.258240
O124  O     O_3   0.124398 0.153712 0.992257 -0.465727
H24   H     H_    0.102814 0.141446 0.014718 0.401509
S25   S     S_3+6 0.944984 0.833662 0.763318 0.212026
O125  O     O_2   0.962252 0.806737 0.832750 -0.133763
O126  O     O_2   0.996162 0.823598 0.751999 -0.162902
O127  O     O_3   0.942853 0.896715 0.774406 -0.371806
H25   H     H_    0.920905 0.911088 0.723580 0.386981
S26   S     S_3+6 0.061464 0.152718 0.246116 0.210905
O128  O     O_2   0.067625 0.095872 0.246880 -0.144294
O129  O     O_2   0.008835 0.165214 0.254142 -0.171910
O130  O     O_3   0.042060 0.175856 0.164362 -0.449454
H26   H     H_    0.998112 0.163024 0.126644 0.412709
S27   S     S_3+6 0.062759 0.837911 0.238613 0.219904
O131  O     O_2   0.049779 0.811812 0.170509 -0.125975
O132  O     O_2   0.008620 0.826367 0.244455 -0.156425
O133  O     O_3   0.064814 0.901179 0.229194 -0.368699
H27   H     H_    0.083124 0.915241 0.279558 0.390117
S28   S     S_3+6 0.937760 0.155685 0.757269 0.212431
O134  O     O_2   0.931997 0.098889 0.758160 -0.137521
O135  O     O_2   0.991335 0.167942 0.750668 -0.172208
O136  O     O_3   0.955605 0.180123 0.837724 -0.449441
H28   H     H_    0.999684 0.168444 0.876398 0.413433
S29   S     S_3+6 0.434480 0.344588 0.758416 0.224892
O137  O     O_2   0.446538 0.319675 0.826768 -0.119212
O138  O     O_2   0.489412 0.332836 0.754347 -0.153055
O139  O     O_3   0.431936 0.408013 0.765935 -0.368467
H29   H     H_    0.415252 0.421323 0.715704 0.390394
S30   S     S_3+6 0.557164 0.660532 0.243826 0.208722
O140  O     O_2   0.564044 0.603889 0.242587 -0.146888
O141  O     O_2   0.506915 0.671445 0.256422 -0.182908
O142  O     O_3   0.533877 0.685229 0.161427 -0.441770
H30   H     H_    0.490015 0.671851 0.125407 0.421714
S31   S     S_3+6 0.564135 0.342447 0.241557 0.218046
O143  O     O_2   0.550154 0.316817 0.172651 -0.128798
O144  O     O_2   0.510176 0.331277 0.247772 -0.153828
O145  O     O_3   0.567161 0.405741 0.233152 -0.370161
H31   H     H_    0.583991 0.419600 0.283205 0.391479
S32   S     S_3+6 0.442303 0.657942 0.754931 0.209573
O146  O     O_2   0.433569 0.601437 0.754664 -0.141504
O147  O     O_2   0.492240 0.668297 0.741442 -0.184400
O148  O     O_3   0.467499 0.682036 0.838420 -0.448700
H32   H     H_    0.513579 0.673798 0.871581 0.421840
Cl33  Cl    Cl    0.807518 0.628460 0.448375 -0.398775
Cl34  Cl    Cl    0.181685 0.374003 0.531847 -0.409932
Cl35  Cl    Cl    0.191752 0.628730 0.551209 -0.398325
Cl36  Cl    Cl    0.817222 0.373572 0.465128 -0.408705
Cl37  Cl    Cl    0.314760 0.127104 0.461578 -0.420028
Cl38  Cl    Cl    0.693703 0.871433 0.554031 -0.400277
Cl39  Cl    Cl    0.685533 0.127046 0.539119 -0.482417
Cl40  Cl    Cl    0.314756 0.873438 0.459848 -0.430890
S33   S     S_3+6 0.696141 0.629416 0.272007 0.201824
O149  O     O_2   0.637779 0.633376 0.192818 -0.172507
O150  O     O_2   0.752112 0.650348 0.275400 -0.192367
O151  O     O_3   0.709453 0.567945 0.297603 -0.404260
H33   H     H_    0.726619 0.553036 0.271497 0.425761
S34   S     S_3+6 0.291289 0.388037 0.706354 0.166341
O152  O     O_2   0.290112 0.441253 0.680903 -0.154020
O153  O     O_2   0.228055 0.377547 0.693415 -0.221529
O154  O     O_3   0.348867 0.384095 0.798703 -0.394411
H34   H     H_    0.334756 0.356851 0.816951 0.408769
S35   S     S_3+6 0.303382 0.629231 0.728044 0.202146
O155  O     O_2   0.361473 0.634321 0.807287 -0.172294
O156  O     O_2   0.247041 0.649672 0.723925 -0.188327
O157  O     O_3   0.291022 0.567498 0.703498 -0.403279
H35   H     H_    0.277615 0.551863 0.733160 0.424433
S36   S     S_3+6 0.707168 0.385287 0.290461 0.170987
O158  O     O_2   0.710093 0.438764 0.316220 -0.151458
O159  O     O_2   0.769404 0.373936 0.301605 -0.213055
O160  O     O_3   0.648419 0.381181 0.198491 -0.384424
H36   H     H_    0.655617 0.348541 0.182277 0.403915
S37   S     S_3+6 0.203709 0.116975 0.286756 0.199996
O161  O     O_2   0.147491 0.118278 0.206011 -0.148119
O162  O     O_2   0.261546 0.135341 0.291780 -0.203366
O163  O     O_3   0.216011 0.056743 0.318246 -0.408779
H37   H     H_    0.251189 0.043532 0.315310 0.415728
S38   S     S_3+6 0.805193 0.869519 0.730877 0.195310
O164  O     O_2   0.788843 0.923809 0.705480 -0.128924
O165  O     O_2   0.751370 0.846546 0.730239 -0.194800
O166  O     O_3   0.871013 0.869177 0.819645 -0.381781
H38   H     H_    0.868882 0.836995 0.841283 0.412889
S39   S     S_3+6 0.796620 0.117544 0.715167 0.196072
O167  O     O_2   0.846729 0.128189 0.796535 -0.137090
O168  O     O_2   0.732156 0.124991 0.700131 -0.217799
O169  O     O_3   0.803298 0.056814 0.696786 -0.411306
H39   H     H_    0.758783 0.044344 0.661515 0.406627
S40   S     S_3+6 0.204963 0.880530 0.284595 0.172913
O170  O     O_2   0.210490 0.934522 0.310058 -0.156080
O171  O     O_2   0.265999 0.866964 0.294053 -0.212173
O172  O     O_3   0.144769 0.876711 0.193069 -0.389980
H40   H     H_    0.154153 0.846521 0.174368 0.408371
Cl41  Cl    Cl    0.569139 0.767910 0.324497 -0.410814
Cl42  Cl    Cl    0.427998 0.239680 0.677954 -0.411805
Cl43  Cl    Cl    0.433256 0.766060 0.677597 -0.445456
Cl44  Cl    Cl    0.571375 0.237675 0.322460 -0.435121
Cl45  Cl    Cl    0.069061 0.261327 0.320962 -0.400198
Cl46  Cl    Cl    0.930407 0.730594 0.674758 -0.455709
Cl47  Cl    Cl    0.931039 0.262316 0.678684 -0.401450
Cl48  Cl    Cl    0.072127 0.734779 0.324262 -0.447777

loop_
_geom_bond_atom_site_label_1
_geom_bond_atom_site_label_2
_geom_bond_distance
_ccdc_geom_bond_type
C1    C71   1.415453 S    
C2    C72   1.417685 S    
C130  C138  1.416186 A    
S2    O58   1.682549 S    
Zn8   O10   1.904324 S    
S29   O137  1.502670 D    
Zn6   O42   1.925704 S    
C148  C151  1.421948 A    
C135  C143  1.404970 A    
C42   C50   1.424523 A    
C46   C47   1.418844 A    
C3    C69   1.416612 S    
O82   H10   0.990867 S    
C126  Cl42  1.776294 S    
S37   O163  1.685334 S    
C122  C130  1.408963 A    
C102  C110  1.408590 A    
S28   O134  1.502244 D    
C24   C51   1.480857 S    
O42   C14   1.273044 A    
C84   S23   1.781235 S    
C105  Cl37  1.777541 S    
Zn4   O30   1.964567 S    
C127  C135  1.416085 A    
C38   C39   1.392734 A    
C26   C43   1.454035 A    
C125  C133  1.416404 A    
O46   C2    1.277917 A    
O24   C18   1.273756 A    
C42   C43   1.419377 A    
C56   S12   1.779062 S    
C12   C153  1.490169 S    
S6    O68   1.502332 D    
C161  C180  1.428669 A    
O97   H15   0.990326 S    
C162  C170  1.396143 A    
C128  C136  1.416258 A    
C79   C87   1.542151 S    
Zn16  O28   1.962628 S    
C25   Cl25  1.754641 S    
Zn4   O2    1.935205 S    
C138  C146  1.402720 A    
C132  C140  1.416939 A    
Zn4   O40   1.927753 S    
C141  C154  1.424611 A    
O33   C23   1.264182 A    
O11   C7    1.281816 A    
Zn7   O43   1.927751 S    
O103  H17   0.990376 S    
C55   C88   1.542631 S    
O25   C19   1.274049 A    
S6    O69   1.501873 D    
C67   C91   1.541756 S    
C53   C86   1.543118 S    
S35   O155  1.501091 D    
C28   Cl28  1.775731 S    
C22   C49   1.451515 S    
C172  Cl14  1.757337 S    
C173  C181  1.431171 A    
S12   O86   1.504169 D    
C25   C33   1.390943 A    
S11   O84   1.503086 D    
C15   C150  1.493133 S    
C57   C90   1.543663 S    
C56   C68   1.544592 S    
S22   O117  1.502887 D    
C13   C152  1.492948 S    
C85   C93   1.449965 S    
Zn12  O24   1.962628 S    
S33   O151  1.682028 S    
C105  C145  1.416420 A    
Zn13  O17   1.926054 S    
O16   C12   1.291952 A    
Zn10  O14   1.926056 S    
S15   O95   1.501370 D    
C78   C86   1.542106 S    
Zn16  O4    1.943559 S    
C161  Cl21  1.774155 S    
C32   Cl32  1.781664 S    
C70   C94   1.195656 T    
S13   O91   1.682292 S    
C66   S6    1.784462 S    
O30   C22   1.270593 A    
C67   S7    1.784521 S    
O47   C3    1.279792 A    
Zn7   O3    1.935208 S    
C101  C109  1.406520 A    
S29   O139  1.682078 S    
S17   O103  1.682009 S    
O61   H3    0.990871 S    
O23   C17   1.274097 A    
C161  C169  1.395045 A    
O112  H20   0.990771 S    
Zn8   O34   1.964567 S    
C31   C39   1.419349 A    
S4    O62   1.502156 D    
C11   C154  1.489054 S    
C107  C115  1.408958 A    
C28   C41   1.452977 A    
C121  C129  1.410037 A    
C108  C116  1.408728 A    
C127  Cl43  1.776146 S    
S28   O136  1.680666 S    
O43   C15   1.277431 A    
S19   O107  1.502018 D    
C67   C80   1.543200 S    
Zn5   O41   1.925707 S    
O118  H22   0.990857 S    
C30   C38   1.387486 A    
Zn10  O22   1.963332 S    
C169  Cl15  1.758302 S    
C170  Cl16  1.757964 S    
S1    O54   1.502779 D    
C147  C152  1.426691 A    
C158  Cl18  1.774503 S    
C69   C93   1.194340 T    
Zn10  O2    1.942138 S    
C61   S1    1.783013 S    
O91   H13   0.990558 S    
C53   C81   1.544236 S    
Zn3   O1    1.935208 S    
C124  C132  1.414132 A    
S14   O92   1.501826 D    
S30   O141  1.503398 D    
C25   C44   1.418507 A    
S11   O83   1.501057 D    
C110  C118  1.420412 A    
C57   C61   1.541362 S    
S39   O169  1.682462 S    
C26   C34   1.411801 A    
O157  H35   0.990840 S    
C177  C180  1.409398 A    
O5    C1    1.279567 A    
Zn5   O35   1.960680 S    
C114  C122  1.415096 A    
Zn6   O36   1.960680 S    
O109  H19   0.990369 S    
S17   O101  1.501691 D    
C180  C184  1.429031 A    
C83   C91   1.541669 S    
S20   O110  1.503547 D    
S31   O144  1.502794 D    
C139  C155  1.414202 A    
S12   O88   1.682406 S    
C106  C114  1.412268 A    
C31   C46   1.455840 A    
S18   O104  1.502986 D    
O70   H6    0.990693 S    
C103  Cl35  1.775218 S    
C60   S16   1.781650 S    
O154  H34   0.988952 S    
C157  C176  1.428450 A    
O22   C18   1.273903 A    
Zn9   O45   1.900629 S    
C33   Cl3   1.767872 S    
O9    C5    1.279491 A    
Zn11  O47   1.902698 S    
Zn1   O31   1.960680 S    
Zn12  O48   1.902697 S    
C26   Cl26  1.772698 S    
O50   C6    1.277380 A    
C107  Cl39  1.776116 S    
S9    O78   1.507150 D    
Zn1   O37   1.925707 S    
C54   C66   1.542585 S    
C7    C73   1.416335 S    
Zn5   O11   1.903108 S    
Zn3   O39   1.927751 S    
Zn6   O12   1.903108 S    
C14   C151  1.488976 S    
C91   C99   1.449606 S    
O151  H33   0.990882 S    
S5    O66   1.503441 D    
C57   S13   1.781896 S    
S27   O132  1.504048 D    
S21   O115  1.682126 S    
S4    O64   1.682389 S    
C165  Cl11  1.758183 S    
C18   C181  1.472666 S    
C4    C70   1.418797 S    
C55   S11   1.782527 S    
O32   C22   1.268211 A    
C103  C111  1.408033 A    
O169  H39   0.990525 S    
C133  C141  1.402926 A    
S16   O98   1.501760 D    
C27   C35   1.387062 A    
C59   C63   1.540636 S    
C82   S21   1.784114 S    
C83   S24   1.785443 S    
C32   C40   1.413430 A    
S34   O152  1.502360 D    
C131  Cl47  1.776150 S    
C160  Cl20  1.774034 S    
S25   O127  1.682519 S    
C89   C97   1.449653 S    
C87   C95   1.448789 S    
S40   O172  1.682477 S    
C48   C52   1.445096 A    
C55   C67   1.541541 S    
S8    O75   1.501430 D    
Zn11  O23   1.962627 S    
O58   H2    0.990832 S    
C29   Cl29  1.781108 S    
C74   C98   1.195441 T    
Zn4   O6    1.904324 S    
S39   O167  1.502150 D    
C102  C142  1.413514 A    
Zn15  O51   1.902698 S    
O166  H38   0.989238 S    
C62   C86   1.543394 S    
C130  Cl46  1.776696 S    
C75   C99   1.194251 T    
S26   O128  1.503431 D    
S20   O112  1.679531 S    
C66   C90   1.542656 S    
C47   C51   1.430356 A    
C119  S32   1.775898 S    
C54   C85   1.541960 S    
O51   C7    1.280210 A    
C117  S30   1.775023 S    
O139  H29   0.990536 S    
O8    C4    1.282376 A    
S2    O57   1.503091 D    
C58   C89   1.542416 S    
C159  Cl19  1.774239 S    
C178  C179  1.409459 A    
S7    O73   1.682223 S    
C64   S4    1.785196 S    
S15   O96   1.503867 D    
C118  C126  1.416409 A    
S24   O122  1.503027 D    
Zn14  O18   1.926056 S    
C145  C150  1.426127 A    
S8    O74   1.504094 D    
C179  C183  1.430088 A    
C72   C96   1.195017 T    
Zn1   O1    1.943061 S    
C158  C166  1.396965 A    
C43   C49   1.443830 A    
C173  C176  1.409609 A    
C134  C150  1.419093 A    
C71   C95   1.193796 T    
C29   C37   1.392909 A    
C57   C77   1.545213 S    
Zn16  O20   1.923420 S    
C61   C85   1.540646 S    
C30   C47   1.422301 A    
C138  C154  1.411633 A    
C64   C88   1.542634 S    
C34   Cl4   1.771472 S    
S38   O164  1.503136 D    
C165  C168  1.391372 A    
Zn3   O5    1.904324 S    
C105  C113  1.409420 A    
C68   C92   1.544888 S    
O13   C9    1.299807 A    
S36   O158  1.502599 D    
C116  S40   1.786428 S    
C169  C172  1.391502 A    
C115  S39   1.785394 S    
O18   C14   1.297466 A    
S21   O114  1.503968 D    
C59   C92   1.544452 S    
O6    C2    1.279408 A    
S16   O100  1.681434 S    
C162  C179  1.429344 A    
C60   C91   1.542214 S    
C58   S14   1.782269 S    
C168  Cl10  1.758384 S    
O130  H26   0.991452 S    
C175  C181  1.430765 A    
C164  Cl24  1.774338 S    
C129  C137  1.415478 A    
C54   S10   1.780933 S    
C159  C174  1.427372 A    
Zn13  O25   1.963333 S    
O94   H14   0.991126 S    
C41   C49   1.444567 A    
C108  Cl40  1.777364 S    
C92   C100  1.452678 S    
Zn15  O3    1.943556 S    
C125  Cl41  1.776273 S    
S10   O81   1.501459 D    
C136  C152  1.414805 A    
C54   C82   1.542810 S    
S12   O87   1.502055 D    
C106  Cl38  1.775600 S    
C110  S34   1.787235 S    
S23   O121  1.681972 S    
S19   O109  1.681950 S    
C111  C119  1.411531 A    
C58   C62   1.543938 S    
C126  C134  1.416158 A    
C109  C117  1.412478 A    
S32   O146  1.502125 D    
S2    O56   1.502390 D    
C128  Cl44  1.776662 S    
S33   O150  1.502054 D    
O145  H31   0.990486 S    
C120  C128  1.413992 A    
C112  C120  1.419973 A    
O35   C23   1.280348 A    
C45   C51   1.429581 A    
C113  C121  1.417620 A    
C80   S19   1.784389 S    
C160  C173  1.429713 A    
S10   O82   1.680914 S    
S35   O157  1.681418 S    
O100  H16   0.990786 S    
C116  C124  1.420053 A    
S13   O90   1.503494 D    
O29   C21   1.275202 A    
C102  Cl34  1.777829 S    
C104  C112  1.409770 A    
C177  C183  1.430813 A    
C137  C145  1.402843 A    
S7    O71   1.501667 D    
C167  Cl9   1.757662 S    
C162  Cl22  1.774068 S    
S29   O138  1.502863 D    
C63   C84   1.543215 S    
Zn10  O46   1.900630 S    
S24   O124  1.679879 S    
O163  H37   1.008682 S    
S4    O63   1.502364 D    
O85   H11   0.990287 S    
O55   H1    0.990443 S    
C55   C83   1.543483 S    
S37   O162  1.505802 D    
Zn13  O3    1.942138 S    
C174  C182  1.428890 A    
Zn14  O4    1.942138 S    
S3    O60   1.503705 D    
C131  C139  1.416813 A    
S10   O80   1.502493 D    
S3    O59   1.501096 D    
O19   C15   1.293456 A    
C140  C156  1.416261 A    
O79   H9    0.993235 S    
C178  C184  1.429583 A    
S14   O94   1.681817 S    
Zn2   O32   1.960680 S    
Zn3   O29   1.964567 S    
O76   H8    0.990555 S    
C106  C146  1.418378 A    
C107  C147  1.416151 A    
O37   C9    1.273430 A    
O160  H36   0.989399 S    
S8    O76   1.683495 S    
S1    O53   1.500799 D    
O7    C3    1.282373 A    
O39   C11   1.270266 A    
C9    C156  1.492405 S    
S36   O160  1.681849 S    
C139  C147  1.403442 A    
C174  C175  1.409407 A    
C104  Cl36  1.777582 S    
C29   C48   1.437548 A    
S14   O93   1.501946 D    
S30   O142  1.679043 S    
C157  Cl17  1.774517 S    
C176  C182  1.428957 A    
C20   C183  1.473057 S    
S39   O168  1.504476 D    
C33   C36   1.388343 A    
Zn2   O38   1.925704 S    
C35   Cl1   1.768435 S    
C79   S20   1.784783 S    
O36   C24   1.283032 A    
O52   C8    1.279369 A    
C166  C167  1.391553 A    
O12   C8    1.283787 A    
C63   S3    1.784492 S    
C90   C98   1.452034 S    
S20   O111  1.503145 D    
S21   O113  1.502262 D    
C5    C75   1.416366 S    
C112  S36   1.786255 S    
C66   C77   1.545694 S    
C6    C76   1.419639 S    
C170  C171  1.391441 A    
Zn11  O1    1.943556 S    
C82   C90   1.541807 S    
C73   C97   1.194143 T    
C60   C80   1.542313 S    
C123  C131  1.411569 A    
C27   C42   1.414159 A    
O40   C12   1.276720 A    
C86   C94   1.452232 S    
S11   O85   1.682517 S    
S18   O105  1.503083 D    
S23   O119  1.501947 D    
C30   Cl30  1.768430 S    
S22   O116  1.503195 D    
Zn5   O3    1.943061 S    
Zn6   O4    1.943061 S    
C132  Cl48  1.776284 S    
Zn7   O9    1.904324 S    
S32   O148  1.679272 S    
C39   Cl5   1.773099 S    
C157  C165  1.395402 A    
C63   C87   1.540502 S    
O27   C19   1.273594 A    
C31   Cl31  1.791425 S    
Zn8   O44   1.927753 S    
C120  S31   1.782516 S    
C53   S9    1.781796 S    
C158  C175  1.430524 A    
C143  C156  1.430996 A    
S28   O135  1.504297 D    
C129  Cl45  1.776678 S    
S9    O77   1.499457 D    
C111  S35   1.778631 S    
S18   O106  1.679057 S    
C16   C149  1.490486 S    
Zn15  O27   1.962627 S    
C61   C82   1.543112 S    
O127  H25   0.990646 S    
S5    O65   1.502027 D    
C64   C83   1.544941 S    
C65   C78   1.543328 S    
C80   C88   1.541279 S    
C81   C89   1.541896 S    
C46   C52   1.433872 A    
O38   C10   1.277046 A    
S6    O70   1.682359 S    
O88   H12   0.992325 S    
C84   C92   1.542753 S    
Zn2   O2    1.943061 S    
S23   O120  1.503934 D    
C40   Cl6   1.773820 S    
O124  H24   0.990612 S    
S22   O118  1.680437 S    
S16   O99   1.501462 D    
C58   C78   1.543054 S    
C36   Cl2   1.775440 S    
Zn13  O49   1.900629 S    
C59   S15   1.781488 S    
Zn8   O4    1.935205 S    
S34   O153  1.504511 D    
C76   C100  1.195493 T    
O21   C17   1.273695 A    
C68   S8    1.786181 S    
S1    O55   1.681918 S    
S17   O102  1.504020 D    
C113  S37   1.779395 S    
C123  S28   1.782057 S    
S25   O126  1.503196 D    
C118  S29   1.781788 S    
O49   C5    1.277113 A    
C171  Cl13  1.758357 S    
C163  C171  1.395595 A    
C164  C177  1.429559 A    
C137  C153  1.413449 A    
S30   O140  1.503393 D    
O64   H4    0.990274 S    
S34   O154  1.682501 S    
O172  H40   0.989017 S    
C108  C148  1.413762 A    
Zn16  O52   1.902697 S    
C65   C89   1.541321 S    
Zn9   O13   1.926054 S    
C10   C155  1.492409 S    
Zn14  O26   1.963332 S    
S31   O145  1.681961 S    
C77   C85   1.542513 S    
C56   C84   1.545880 S    
Zn11  O15   1.923422 S    
C17   C182  1.473362 S    
C140  C148  1.400775 A    
C142  C153  1.419781 A    
Zn12  O16   1.923420 S    
C38   Cl8   1.777657 S    
O31   C21   1.273799 A    
C136  C144  1.401520 A    
C34   C35   1.390367 A    
C134  C142  1.399914 A    
C60   C64   1.542936 S    
S40   O171  1.504358 D    
S3    O61   1.682683 S    
S19   O108  1.503970 D    
C19   C184  1.473015 S    
C37   C40   1.391919 A    
S7    O72   1.502728 D    
C114  S38   1.785622 S    
C81   S22   1.785585 S    
Zn7   O33   1.964567 S    
S26   O130  1.681310 S    
S24   O123  1.502871 D    
C41   C44   1.416525 A    
O136  H28   0.990159 S    
O115  H21   0.990529 S    
S38   O166  1.681558 S    
S37   O161  1.502013 D    
C27   Cl27  1.757623 S    
S9    O79   1.681929 S    
O73   H7    0.990449 S    
C103  C143  1.418495 A    
S27   O131  1.501973 D    
C101  Cl33  1.775903 S    
S5    O67   1.681943 S    
C101  C141  1.416646 A    
C62   S2    1.785687 S    
C62   C81   1.545358 S    
Zn9   O21   1.963333 S    
Zn14  O50   1.900630 S    
S27   O133  1.681821 S    
C163  Cl23  1.774223 S    
S38   O165  1.503167 D    
C65   S5    1.785188 S    
C124  S27   1.781280 S    
Zn9   O1    1.942138 S    
S36   O159  1.503979 D    
C77   S18   1.785872 S    
Zn1   O7    1.903108 S    
Zn2   O8    1.903108 S    
O41   C13   1.275841 A    
C56   C87   1.543390 S    
C163  C178  1.428425 A    
O26   C20   1.274366 A    
O67   H5    0.990735 S    
C164  C172  1.396221 A    
O133  H27   0.990681 S    
O45   C1    1.276435 A    
O34   C24   1.263816 A    
C119  C127  1.404350 A    
C23   C52   1.472926 S    
S26   O129  1.504206 D    
C32   C45   1.450845 A    
C117  C125  1.407176 A    
C104  C144  1.413714 A    
C146  C149  1.429636 A    
C115  C123  1.418176 A    
C78   S17   1.784516 S    
O15   C11   1.296368 A    
C122  S25   1.780630 S    
C159  C167  1.394664 A    
Zn15  O19   1.923422 S    
C135  C151  1.409710 A    
S40   O170  1.502985 D    
C121  S26   1.779191 S    
C45   C48   1.429085 A    
C28   C36   1.409045 A    
C133  C149  1.412127 A    
O148  H32   0.988220 S    
C109  S33   1.780454 S    
O106  H18   0.990670 S    
C44   C50   1.428667 A    
O44   C16   1.268568 A    
O20   C16   1.298713 A    
C166  Cl12  1.758772 S    
O10   C6    1.280675 A    
S32   O147  1.504848 D    
S25   O125  1.501773 D    
O48   C4    1.280979 A    
S33   O149  1.501081 D    
C160  C168  1.396415 A    
C68   C79   1.546556 S    
S31   O143  1.502584 D    
O14   C10   1.295339 A    
S15   O97   1.682565 S    
C21   C50   1.492176 S    
C88   C96   1.451054 S    
C37   Cl7   1.782130 S    
O142  H30   0.989178 S    
Zn12  O2    1.943559 S    
S35   O156  1.501772 D    
O121  H23   0.990951 S    
C53   C65   1.541546 S    
S13   O89   1.501347 D    
O28   C20   1.273411 A    
O17   C13   1.297057 A    
C59   C79   1.546230 S    
C144  C155  1.422986 A    
C8    C74   1.418538 S    
