data_mof_unit_49389.cif
_audit_creation_date              2012-12-10T17:09:25-0500
_audit_creation_method            fapswitch 2.2
_symmetry_space_group_name_H-M    P1
_symmetry_Int_Tables_number       1
_space_group_crystal_system       triclinic
_cell_length_a                    10.486959
_cell_length_b                    10.667398
_cell_length_c                    10.134096
_cell_angle_alpha                 89.408562
_cell_angle_beta                  90.081562
_cell_angle_gamma                 89.392859
_cell_volume                      1133.5614045

loop_
_atom_site_label
_atom_site_type_symbol
_atom_type_description
_atom_site_fract_x
_atom_site_fract_y
_atom_site_fract_z
_atom_type_partial_charge
C1    C     C_R   0.502393 0.262462 0.500120 0.930590
C2    C     C_2   0.426914 0.568884 0.071831 0.181882
C3    C     C_R   0.257733 0.499949 0.500090 0.847194
C4    C     C_R   0.486406 0.736495 0.499630 0.898701
C5    C     C_R   0.742330 0.499941 0.499922 0.861990
C6    C     C_3   0.040991 0.502243 0.625811 -0.141345
C7    C     C_3   0.959178 0.397867 0.565578 -0.183560
C8    C     C_3   0.877658 0.499947 0.499347 0.035534
C9    C     C_3   0.956816 0.604305 0.559377 -0.175931
C10   C     C_3   0.041085 0.602161 0.434588 -0.186514
C11   C     C_3   0.506419 0.369340 0.894531 -0.137357
C12   C     C_3   0.959294 0.497819 0.374373 -0.141078
C13   C     C_3   0.374379 0.309891 0.893938 -0.841925
C14   C     C_3   0.313016 0.639212 0.125299 -0.339502
C15   C     C_3   0.190742 0.565908 0.103853 -0.878182
C16   C     C_3   0.359355 0.910507 0.613673 -0.393235
C17   C     C_3   0.239298 0.832102 0.631140 -0.899933
C18   C     C_3   0.043476 0.395781 0.440773 -0.180594
C19   C     C_3   0.122556 0.500123 0.500780 0.043610
C20   C     C_2   0.468330 0.934260 0.391219 -0.238207
C21   C     C_2   0.441293 0.864646 0.498441 0.027155
C22   C     C_2   0.463369 0.068992 0.392900 -0.170673
C23   C     C_2   0.507269 0.129135 0.498332 -0.369140
C24   C     C_2   0.453269 0.586713 0.927310 -0.087031
H1    H     H_    0.921033 0.314868 0.618769 0.127854
H2    H     H_    0.511254 0.893253 0.303923 0.158543
H3    H     H_    0.431897 0.118117 0.303990 0.180121
H4    H     H_    0.315193 0.347999 0.974986 0.246095
H5    H     H_    0.324996 0.327868 0.798729 0.281573
H6    H     H_    0.384152 0.206970 0.908922 0.213620
H7    H     H_    0.569848 0.317656 0.826941 0.197084
H8    H     H_    0.554511 0.349445 0.988408 0.121831
H9    H     H_    0.175600 0.549402 0.996914 0.246856
H10   H     H_    0.195457 0.474307 0.156764 0.275500
H11   H     H_    0.108151 0.620553 0.141588 0.238968
H12   H     H_    0.544327 0.079727 0.584779 0.149552
H13   H     H_    0.324609 0.662461 0.230126 0.251422
H14   H     H_    0.303524 0.731214 0.073496 0.158488
H15   H     H_    0.185112 0.829127 0.537079 0.252645
H16   H     H_    0.263547 0.735426 0.664026 0.279416
H17   H     H_    0.177360 0.874856 0.707634 0.243691
H18   H     H_    0.416344 0.906585 0.706182 0.198543
H19   H     H_    0.325072 0.008311 0.599260 0.232433
H20   H     H_    0.422372 0.674049 0.880985 0.130154
H21   H     H_    0.593246 0.491455 0.113445 0.145112
H22   H     H_    0.078347 0.504161 0.728363 0.140102
H23   H     H_    0.916997 0.689122 0.607520 0.133375
H24   H     H_    0.079064 0.685018 0.381115 0.129112
H25   H     H_    0.922195 0.495942 0.271749 0.140843
H26   H     H_    0.083719 0.311201 0.392526 0.130132
N1    N     N_2   0.501360 0.501330 0.852150 -0.085332
N2    N     N_2   0.501400 0.501360 0.147810 -0.212543
O1    O     O_R   0.499980 0.319060 0.613040 -0.633147
O2    O     O_R   0.500020 0.319100 0.386900 -0.603322
O3    O     O_R   0.313930 0.499950 0.613050 -0.633394
O4    O     O_R   0.313970 0.499990 0.386910 -0.620043
O5    O     O_R   0.499980 0.680900 0.613100 -0.613298
O6    O     O_R   0.500020 0.680940 0.386960 -0.648860
O7    O     O_R   0.686030 0.500010 0.613090 -0.619130
O8    O     O_R   0.686070 0.500050 0.386950 -0.626890
Zn1   Zn    Zn3+2 0.499970 0.499970 0.650990 0.916074
Zn2   Zn    Zn3+2 0.500030 0.500030 0.349010 0.914371

loop_
_geom_bond_atom_site_label_1
_geom_bond_atom_site_label_2
_ccdc_geom_bond_type
C4    O5    A    
O6    Zn2   S    
C5    C8    S    
C1    O2    A    
C13   H4    S    
C3    C19   S    
C6    C7    S    
C6    C19   S    
C14   H14   S    
O2    Zn2   S    
C9    C10   S    
C15   H10   S    
N1    Zn1   S    
C10   C19   S    
C8    C12   S    
C7    C18   S    
C6    C9    S    
C12   C18   S    
C12   H25   S    
C11   H7    S    
C7    C8    S    
N2    Zn2   S    
C14   H13   S    
C10   H24   S    
C4    C21   S    
C11   C13   S    
C16   H19   S    
C16   C21   S    
C2    N2    D    
C24   N1    D    
C24   H20   S    
O3    Zn1   S    
C15   H11   S    
C20   C22   S    
C11   H8    S    
C1    C23   S    
C17   H17   S    
C22   H3    S    
C5    O8    A    
C2    C24   S    
C3    O4    A    
C2    C14   S    
O4    Zn2   S    
O7    Zn1   S    
C9    H23   S    
C11   N1    S    
C5    O7    A    
C10   C12   S    
C4    O6    A    
C16   H18   S    
C13   H6    S    
C20   C21   D    
C18   H26   S    
O1    Zn1   S    
O8    Zn2   S    
C23   H12   S    
C17   H15   S    
C13   H5    S    
O5    Zn1   S    
C1    O1    A    
C22   C23   D    
C18   C19   S    
C6    H22   S    
H21   N2    S    
C14   C15   S    
C3    O3    A    
C15   H9    S    
C16   C17   S    
C8    C9    S    
C20   H2    S    
C17   H16   S    
C7    H1    S    
