data_mof_unit_12477.cif
_audit_creation_date              2013-03-05T15:52:14-0500
_audit_creation_method            fapswitch 2.2
_symmetry_space_group_name_H-M    P1
_symmetry_Int_Tables_number       1
_space_group_crystal_system       triclinic
_cell_length_a                    23.512511
_cell_length_b                    10.857574
_cell_length_c                    9.572692
_cell_angle_alpha                 90.365287
_cell_angle_beta                  90.133796
_cell_angle_gamma                 92.560344
_cell_volume                      2441.30373058

loop_
_atom_site_label
_atom_site_type_symbol
_atom_site_description
_atom_site_fract_x
_atom_site_fract_y
_atom_site_fract_z
_atom_type_partial_charge
O1    O     O_R   0.500000 0.319640 0.618810 -0.590084
O2    O     O_R   0.500000 0.319660 0.381240 -0.565692
C1    C     C_R   0.504458 0.263042 0.500396 0.840592
O3    O     O_R   0.417880 0.499950 0.618810 -0.580339
O4    O     O_R   0.417880 0.499980 0.381240 -0.540483
C2    C     C_R   0.391051 0.496724 0.499825 0.876984
Cu1   Cu    Cu3+1 0.500000 0.499990 0.640660 0.934794
Cu2   Cu    Cu3+1 0.500000 0.500010 0.359340 0.968962
O5    O     O_R   0.500000 0.680340 0.618760 -0.617046
O6    O     O_R   0.500000 0.680360 0.381190 -0.600197
O7    O     O_R   0.582120 0.500020 0.618760 -0.607794
O8    O     O_R   0.582120 0.500050 0.381190 -0.602946
C3    C     C_R   0.496736 0.737569 0.501507 0.777028
C4    C     C_R   0.609051 0.501157 0.500157 0.767313
C5    C     C_R   0.883296 0.613737 0.480597 0.541095
N1    N     N_R   0.851964 0.506264 0.501795 -0.471897
C6    C     C_R   0.877453 0.396841 0.521654 0.564865
C7    C     C_R   0.937022 0.392444 0.520215 -0.076987
C8    C     C_R   0.970018 0.501822 0.498654 -0.012345
C9    C     C_R   0.942987 0.613835 0.478853 -0.015759
C10   C     C_R   0.963958 0.280988 0.537129 -0.203997
C11   C     C_R   0.023320 0.276327 0.532577 0.347756
C12   C     C_R   0.057269 0.387043 0.516392 -0.139240
C13   C     C_R   0.030055 0.499448 0.497074 -0.053708
C14   C     C_R   0.062685 0.610064 0.476421 -0.015806
C15   C     C_R   0.035266 0.721015 0.456529 -0.108776
C16   C     C_R   0.976071 0.722884 0.457768 -0.130983
C17   C     C_R   0.117393 0.390914 0.522280 0.588759
N2    N     N_R   0.148166 0.498939 0.498901 -0.468015
C18   C     C_R   0.122160 0.607117 0.475758 0.561457
O9    O     O_2   0.856737 0.720064 0.461940 -0.524128
O10   O     O_2   0.845174 0.292519 0.541512 -0.523392
H1    H     H_    0.938838 0.195692 0.549891 0.218258
O11   O     O_2   0.145207 0.289041 0.555084 -0.443151
O12   O     O_2   0.153875 0.711502 0.451788 -0.497788
H2    H     H_    0.059458 0.806980 0.440344 0.226774
H3    H     H_    0.956368 0.810081 0.442339 0.206903
C19   C     C_R   0.240969 0.561120 0.602157 -0.063634
H4    H     H_    0.219704 0.612173 0.682688 0.168708
C20   C     C_R   0.300133 0.558259 0.602702 -0.248594
H5    H     H_    0.323912 0.609346 0.682872 0.177820
C21   C     C_R   0.328470 0.492113 0.499483 -0.162542
C22   C     C_R   0.296449 0.425665 0.395919 0.315099
C23   C     C_R   0.237043 0.431435 0.395273 -0.140976
H6    H     H_    0.212002 0.380969 0.316904 0.192273
C24   C     C_R   0.209234 0.498226 0.498161 0.264426
C25   C     C_R   0.761059 0.495756 0.627406 -0.098831
H7    H     H_    0.783791 0.487307 0.725142 0.142757
C26   C     C_R   0.701731 0.494194 0.627108 -0.220519
H8    H     H_    0.679444 0.484640 0.725606 0.162566
C27   C     C_R   0.671709 0.503852 0.500711 -0.035282
C28   C     C_R   0.702146 0.516538 0.374976 -0.219703
H9    H     H_    0.680195 0.524756 0.276113 0.163169
C29   C     C_R   0.761485 0.518702 0.375714 -0.101432
H10   H     H_    0.784545 0.527756 0.278267 0.142494
C30   C     C_R   0.791062 0.507783 0.501771 0.353980
H11   H     H_    0.497430 0.109486 0.279249 0.167166
C31   C     C_R   0.536397 0.122189 0.755617 -0.152832
H12   H     H_    0.559601 0.210349 0.755096 0.161016
C32   C     C_R   0.529507 0.064200 0.884218 -0.148630
H13   H     H_    0.544605 0.109962 0.978950 0.136548
C33   C     C_R   0.501281 0.949421 0.891006 -0.122965
H14   H     H_    0.492858 0.907031 0.991374 0.142239
C34   C     C_R   0.485270 0.887395 0.768182 -0.145429
H15   H     H_    0.461298 0.801156 0.780389 0.171223
C35   C     C_R   0.497868 0.939431 0.635446 0.097455
C36   C     C_R   0.515048 0.065240 0.631207 0.095020
C37   C     C_R   0.509378 0.129195 0.503245 -0.121632
C38   C     C_R   0.500554 0.063007 0.378620 -0.165760
H16   H     H_    0.492036 0.887254 0.280916 0.165455
C39   C     C_R   0.495665 0.935783 0.380008 -0.195835
C40   C     C_R   0.494296 0.872221 0.506916 -0.108571
H17   H     H_    0.436348 0.358894 0.127859 0.198017
C41   C     C_R   0.575522 0.664695 0.145681 -0.165457
H18   H     H_    0.579460 0.672344 0.255774 0.202296
C42   C     C_R   0.612311 0.745140 0.073960 -0.221293
H19   H     H_    0.641078 0.808095 0.130794 0.165348
C43   C     C_R   0.612411 0.744756 0.930075 -0.190321
H20   H     H_    0.641132 0.807636 0.874244 0.165705
C44   C     C_R   0.575631 0.664115 0.857081 -0.152161
H21   H     H_    0.579218 0.671864 0.747084 0.204386
C45   C     C_R   0.537106 0.580912 0.925832 0.190037
C46   C     C_R   0.537066 0.581022 0.075584 0.205708
N3    N     N_R   0.500540 0.501210 0.147910 -0.209257
C47   C     C_R   0.464961 0.422506 0.073172 -0.040133
H22   H     H_    0.436271 0.359096 0.869036 0.168133
C48   C     C_R   0.464947 0.422585 0.925128 -0.054465
N4    N     N_R   0.500560 0.501290 0.852040 -0.211529
N5    N     N_R   0.047574 0.157489 0.537095 0.162393
O13   O     O_R   0.076071 0.119016 0.430184 -0.293076
O14   O     O_R   0.030591 0.078330 0.631349 -0.333317
N6    N     N_R   0.322975 0.347173 0.296180 0.123783
O15   O     O_R   0.361915 0.273609 0.336662 -0.365368
O16   O     O_R   0.301855 0.333801 0.170929 -0.346656

loop_
_geom_bond_atom_site_label_1
_geom_bond_atom_site_label_2
_geom_bond_distance
_ccdc_geom_bond_type
C48   N4    1.366507 A    
C7    C10   1.400814 A    
C1    C37   1.463415 S    
C41   C46   1.417468 A    
Cu1   Cu2   2.692990 S    
C25   C26   1.394294 A    
C23   H6    1.083311 S    
Cu1   O7    1.942667 S    
C15   C16   1.392949 A    
N2    C18   1.367266 A    
C41   C42   1.387584 A    
C18   O12   1.349764 S    
C17   N2    1.370251 A    
C42   C43   1.377359 A    
C19   H4    1.082891 S    
O7    C4    1.301144 A    
C43   C44   1.387256 A    
C10   H1    1.083689 S    
C31   C32   1.392798 A    
C5    N1    1.368371 A    
C32   C33   1.387471 A    
C7    C8    1.405859 A    
C38   C39   1.381148 A    
Cu1   N4    2.023443 S    
O5    C3    1.290185 A    
C33   C34   1.393854 A    
N3    C47   1.366541 A    
C35   C40   1.426880 A    
C46   N3    1.382675 A    
C23   C24   1.399915 A    
C37   C38   1.399043 A    
C26   C27   1.406245 A    
C12   C13   1.416068 A    
H16   C39   1.083491 S    
N5    O14   1.301206 A    
C20   C21   1.404566 A    
C35   C36   1.407918 A    
C17   O11   1.348271 S    
O1    Cu1   1.967975 S    
C10   C11   1.399685 A    
O3    Cu1   1.941638 S    
C28   C29   1.394371 A    
C47   C48   1.417186 A    
C5    C9    1.403588 A    
C29   C30   1.399663 A    
C41   H18   1.060135 S    
C36   C37   1.420839 A    
C25   H7    1.082850 S    
C13   C14   1.411220 A    
C44   C45   1.416691 A    
H22   C48   1.081740 S    
N1    C6    1.368497 A    
C14   C15   1.405287 A    
C27   C28   1.406118 A    
C32   H13   1.082710 S    
O1    C1    1.292657 A    
C34   C35   1.420364 A    
C22   C23   1.400978 A    
N1    C30   1.432792 S    
C33   H14   1.082844 S    
C4    C27   1.472213 S    
Cu2   O8    1.941638 S    
N6    O16   1.301453 A    
C6    C7    1.403643 A    
C12   C17   1.413383 A    
C42   H19   1.083019 S    
H17   C47   1.080946 S    
O3    C2    1.300251 A    
C20   H5    1.083560 S    
C3    C40   1.466271 S    
O8    C4    1.301472 A    
C26   H8    1.083092 S    
C21   C22   1.417423 A    
C28   H9    1.082999 S    
C15   H2    1.083304 S    
C14   C18   1.400231 A    
Cu1   O5    1.970683 S    
C29   H10   1.082855 S    
Cu2   N3    2.024146 S    
O2    Cu2   1.970681 S    
C44   H21   1.060108 S    
O6    C3    1.309130 A    
O4    Cu2   1.942670 S    
C5    O9    1.349494 S    
C9    C16   1.403280 A    
C22   N6    1.437621 S    
N2    C24   1.436260 S    
C34   H15   1.078265 S    
C8    C9    1.410817 A    
O2    C1    1.305411 A    
C31   H12   1.080427 S    
C39   C40   1.400729 A    
C19   C20   1.392840 A    
C43   H20   1.083016 S    
O4    C2    1.299876 A    
C16   H3    1.083241 S    
C45   N4    1.381205 A    
N6    O15   1.301559 A    
C11   N5    1.434663 S    
C8    C13   1.413117 A    
C19   C24   1.398733 A    
C31   C36   1.418702 A    
Cu2   O6    1.967976 S    
C45   C46   1.433524 A    
C2    C21   1.470039 S    
C6    O10   1.349721 S    
C11   C12   1.422485 A    
H11   C38   1.083532 S    
N5    O13   1.301384 A    
C25   C30   1.399595 A    
