data_mof_unit_31461.cif
_audit_creation_date              2012-12-11T21:15:13-0500
_audit_creation_method            fapswitch 2.2
_symmetry_space_group_name_H-M    P1
_symmetry_Int_Tables_number       1
_space_group_crystal_system       triclinic
_cell_length_a                    8.201487
_cell_length_b                    18.787168
_cell_length_c                    26.990627
_cell_angle_alpha                 99.41627
_cell_angle_beta                  92.623629
_cell_angle_gamma                 88.205504
_cell_volume                      4097.25392332

loop_
_atom_site_label
_atom_site_type_symbol
_atom_type_description
_atom_site_fract_x
_atom_site_fract_y
_atom_site_fract_z
_atom_type_partial_charge
Ba1   Ba    Ba6+2 0.160810 0.465630 0.521640 1.640289
Ba2   Ba    Ba6+2 0.649380 0.534380 0.478400 1.640074
C1    C     C_3   0.416453 0.284921 0.700839 -0.345165
C2    C     C_R   0.077629 0.095409 0.451887 -0.039926
C3    C     C_R   0.223975 0.072151 0.429019 -0.063155
C4    C     C_3   0.958024 0.270570 0.624932 0.371921
C5    C     C_R   0.285419 0.001767 0.428379 0.384496
C6    C     C_R   0.200860 0.953012 0.452624 -0.035787
C7    C     C_R   0.053232 0.976357 0.476091 -0.022020
C8    C     C_R   0.260692 0.882304 0.454492 -0.108864
C9    C     C_R   0.170929 0.832714 0.475510 -0.038636
C10   C     C_R   0.023677 0.856213 0.499219 -0.000186
C11   C     C_R   0.966352 0.928438 0.499852 0.011194
C12   C     C_3   0.428102 0.307849 0.649721 0.340389
C13   C     C_R   0.222776 0.759703 0.472775 -0.011019
C14   C     C_R   0.126012 0.711240 0.491778 -0.291976
C15   C     C_R   0.985771 0.733919 0.517946 0.045636
C16   C     C_3   0.987860 0.197228 0.641122 -0.366680
C17   C     C_R   0.934245 0.807842 0.522589 -0.047972
C18   C     C_R   0.846254 0.071834 0.499555 0.024602
C19   C     C_R   0.788299 0.144152 0.500616 0.000072
C20   C     C_R   0.877421 0.192719 0.477535 -0.040772
C21   C     C_R   0.016556 0.165851 0.451013 -0.018625
C22   C     C_R   0.795033 0.834876 0.549005 -0.044007
C23   C     C_3   0.469005 0.314386 0.397112 0.298005
C24   C     C_R   0.734294 0.905270 0.547820 0.031582
C25   C     C_R   0.819923 0.952379 0.523314 0.012912
C26   C     C_R   0.759251 0.023710 0.522767 0.033318
C27   C     C_R   0.587049 0.928987 0.570293 -0.078110
C28   C     C_3   0.841214 0.621263 0.631511 0.299258
C29   C     C_R   0.525312 0.998762 0.568742 -0.087432
C30   C     C_R   0.611282 0.046786 0.545567 0.041161
C31   C     C_R   0.640674 0.167478 0.524401 -0.039792
C32   C     C_R   0.551993 0.117597 0.545538 -0.102846
C33   C     C_R   0.587497 0.240286 0.526735 -0.001472
C34   C     C_3   0.479089 0.233130 0.380101 -0.377846
C35   C     C_R   0.682956 0.288778 0.507373 -0.304219
C36   C     C_R   0.825173 0.266526 0.482250 0.046673
C37   C     C_R   0.296221 0.449874 0.174748 0.596108
C38   C     C_R   0.180255 0.568954 0.175925 0.589707
C39   C     C_2   0.022389 0.521974 0.268311 -0.075292
C40   C     C_3   0.841554 0.638691 0.688511 -0.361242
C41   C     C_3   0.988713 0.518776 0.322985 -0.073307
C42   C     C_1   0.278029 0.493665 0.336390 0.013818
C43   C     C_2   0.313167 0.498872 0.289824 -0.091586
C44   C     C_2   0.178772 0.512498 0.252449 0.190228
C45   C     C_3   0.867269 0.722476 0.377912 0.349458
C46   C     C_R   0.303455 0.506445 0.099602 -0.076508
C47   C     C_R   0.342290 0.447617 0.124780 -0.024241
C48   C     C_R   0.426181 0.387445 0.099567 -0.052951
C49   C     C_R   0.220505 0.567254 0.125359 -0.026590
C50   C     C_2   0.144148 0.524646 0.355581 -0.284997
C51   C     C_2   0.648056 0.471106 0.637234 -0.293257
C52   C     C_3   0.978365 0.368463 0.365479 0.295911
C53   C     C_R   0.477704 0.440842 0.972867 0.021418
C54   C     C_R   0.348344 0.561240 0.972409 0.020730
C55   C     C_R   0.434138 0.499778 0.947401 0.049384
C56   C     C_3   0.870477 0.797218 0.363278 -0.356248
C57   C     C_R   0.564587 0.381455 0.946367 -0.101997
C58   C     C_R   0.602898 0.379042 0.896589 -0.060359
C59   C     C_R   0.558986 0.436094 0.870871 -0.023443
C60   C     C_R   0.476712 0.497039 0.896262 -0.080619
C61   C     C_R   0.436711 0.554990 0.870440 -0.034612
C62   C     C_R   0.481932 0.551690 0.820030 0.596742
C63   C     C_R   0.595479 0.432618 0.820031 0.574978
C64   C     C_3   0.011882 0.338131 0.310972 -0.362548
C65   C     C_2   0.739243 0.453624 0.724512 -0.086251
C66   C     C_3   0.750787 0.426873 0.669140 -0.048407
C67   C     C_3   0.351018 0.701274 0.350606 0.289357
C68   C     C_1   0.519441 0.508547 0.656274 0.035064
C69   C     C_2   0.478585 0.511079 0.703818 -0.104756
C70   C     C_2   0.597779 0.485466 0.741800 0.185845
C71   C     C_R   0.433403 0.442902 0.023600 0.021610
C72   C     C_R   0.347596 0.504381 0.048676 0.050225
C73   C     C_R   0.305318 0.563723 0.023450 0.020635
C74   C     C_R   0.471063 0.385056 0.050325 -0.098008
C75   C     C_R   0.180177 0.625373 0.100187 -0.055549
C76   C     C_3   0.331121 0.685969 0.592622 0.317938
C77   C     C_R   0.308430 0.618170 0.945107 -0.098712
C78   C     C_3   0.393064 0.713272 0.298399 -0.341263
C79   C     C_R   0.352374 0.615148 0.895528 -0.060397
C80   C     C_R   0.220881 0.623690 0.050487 -0.098548
C81   C     C_3   0.328987 0.767208 0.609683 -0.391626
C82   C     C_1   0.885035 0.522926 0.232775 0.347858
C83   C     C_R   0.992545 0.047901 0.475974 0.004800
H1    H     H_    0.360599 0.360217 0.650239 0.084855
H2    H     H_    0.204944 0.668301 0.583102 0.004592
H3    H     H_    0.406749 0.673038 0.559111 0.064585
H4    H     H_    0.289089 0.270955 0.707004 0.150274
H5    H     H_    0.246673 0.781889 0.641472 0.129356
H6    H     H_    0.285208 0.795520 0.578530 0.056796
H7    H     H_    0.454151 0.785116 0.622058 0.118716
H8    H     H_    0.558797 0.314220 0.643080 -0.052618
H9    H     H_    0.453129 0.330145 0.730568 0.128790
H10   H     H_    0.594306 0.333813 0.407608 0.025611
H11   H     H_    0.392253 0.325346 0.430497 0.060196
H12   H     H_    0.748511 0.681575 0.700261 0.135172
H13   H     H_    0.561238 0.220064 0.348075 0.139056
H14   H     H_    0.528157 0.206161 0.411485 0.065210
H15   H     H_    0.355484 0.212499 0.368155 0.115774
H16   H     H_    0.498365 0.237268 0.703459 0.114380
H17   H     H_    0.924856 0.155143 0.613868 0.066278
H18   H     H_    0.763619 0.721424 0.402790 0.114254
H19   H     H_    0.983069 0.712362 0.398643 -0.050033
H20   H     H_    0.753572 0.809156 0.343753 0.143637
H21   H     H_    0.887998 0.838388 0.397267 0.081815
H22   H     H_    0.971916 0.800143 0.338005 0.121775
H23   H     H_    0.813096 0.590112 0.704402 0.069161
H24   H     H_    0.221439 0.718013 0.356699 -0.013107
H25   H     H_    0.368276 0.642754 0.352199 0.061621
H26   H     H_    0.313305 0.680168 0.269844 0.132036
H27   H     H_    0.522675 0.697013 0.291332 0.156822
H28   H     H_    0.006757 0.268453 0.586983 0.081136
H29   H     H_    0.374200 0.771211 0.294949 0.117758
H30   H     H_    0.290674 0.108608 0.410662 0.089174
H31   H     H_    0.164913 0.655137 0.488220 0.067697
H32   H     H_    0.377688 0.865594 0.439509 0.119047
H33   H     H_    0.081643 0.199472 0.430181 0.097452
H34   H     H_    0.963765 0.657337 0.703629 0.134087
H35   H     H_    0.729454 0.801304 0.569765 0.098888
H36   H     H_    0.518647 0.893379 0.588797 0.063457
H37   H     H_    0.410935 0.015436 0.586219 0.069011
H38   H     H_    0.437459 0.133339 0.562901 0.107185
H39   H     H_    0.823866 0.280403 0.622760 -0.075215
H40   H     H_    0.641978 0.344515 0.509974 0.074321
H41   H     H_    0.437747 0.490335 0.277891 0.124066
H42   H     H_    0.458264 0.341449 0.117966 0.122894
H43   H     H_    0.834382 0.437598 0.749989 0.124798
H44   H     H_    0.668549 0.331778 0.878260 0.123231
H45   H     H_    0.092534 0.389464 0.384824 0.022945
H46   H     H_    0.605732 0.335265 0.962716 0.069511
H47   H     H_    0.534699 0.336260 0.034446 0.069020
H48   H     H_    0.115854 0.672862 0.118906 0.123553
H49   H     H_    0.242591 0.666366 0.960768 0.069969
H50   H     H_    0.120293 0.183368 0.642410 0.147909
H51   H     H_    0.318412 0.660419 0.876677 0.122323
H52   H     H_    0.357356 0.529884 0.715029 0.138794
H53   H     H_    0.184212 0.670928 0.034557 0.069743
H54   H     H_    0.143814 0.549853 0.394724 0.071242
H55   H     H_    0.661017 0.459133 0.596889 0.086770
H56   H     H_    0.884547 0.412363 0.366922 0.040072
H57   H     H_    0.939142 0.197899 0.678912 0.120028
H58   H     H_    0.717565 0.605614 0.616916 0.011600
H59   H     H_    0.928730 0.575764 0.620852 0.080473
H60   H     H_    0.419507 0.932976 0.385620 0.300770
H61   H     H_    0.095582 0.290261 0.309344 0.149710
H62   H     H_    0.070106 0.378464 0.292342 0.078785
H63   H     H_    0.895752 0.321786 0.290128 0.118446
N1    N     N_R   0.217114 0.510344 0.200005 -0.429314
N2    N     N_R   0.559019 0.490422 0.794800 -0.421295
N3    N     N_1   0.774854 0.523677 0.204473 -0.289144
O1    O     O_2   0.106080 0.324280 0.466820 -0.470507
O2    O     O_2   0.656404 0.563761 0.333087 -0.490388
O3    O     O_3   0.849875 0.670835 0.334271 -0.595092
O4    O     O_3   0.859130 0.413620 0.470620 -0.482207
O5    O     O_3   0.459240 0.537930 0.559910 -0.490649
O6    O     O_2   0.583120 0.462390 0.379940 -0.463626
O7    O     O_3   0.399921 0.347371 0.357727 -0.631479
O8    O     O_2   0.562178 0.756263 0.478844 -0.492424
O9    O     O_3   0.454109 0.742880 0.386186 -0.607228
O10   O     O_2   0.325488 0.397602 0.195710 -0.595805
O11   O     O_2   0.657983 0.377167 0.798064 -0.619857
O12   O     O_3   0.395830 0.652795 0.632066 -0.622986
O13   O     O_2   0.113516 0.622872 0.198588 -0.598269
O14   O     O_2   0.454143 0.603817 0.798922 -0.598859
O15   O     O_3   0.376230 0.370290 0.556910 -0.484507
O16   O     O_2   0.248154 0.243348 0.520608 -0.492381
O17   O     O_3   0.919981 0.312707 0.387397 -0.642965
O18   O     O_3   0.358960 0.254850 0.612854 -0.607666
O19   O     O_2   0.227190 0.537650 0.620070 -0.464713
O20   O     O_3   0.971110 0.406970 0.583250 -0.483605
O21   O     O_2   0.085488 0.463853 0.675015 -0.497414
O22   O     O_3   0.427484 0.983265 0.403370 -0.727613
O23   O     O_3   0.037106 0.324248 0.659558 -0.590479
O24   O     O_2   0.704230 0.675760 0.533200 -0.467195
O25   O     O_3   0.951180 0.586390 0.529420 -0.490070
O26   O     O_3   0.434080 0.629720 0.443130 -0.471275
O27   O     O_3   0.885772 0.682731 0.612912 -0.639761
O28   O     O_3   0.351080 0.462080 0.440130 -0.476540
O29   O     O_3   0.839200 0.593040 0.416790 -0.486426
P1    P     P_3+3 0.929380 0.335110 0.452880 0.977221
P2    P     P_3+3 0.398530 0.559060 0.613740 0.995688
P3    P     P_3+3 0.962645 0.408358 0.647678 0.949070
P4    P     P_3+3 0.880940 0.664900 0.547160 0.975339
P5    P     P_3+3 0.832153 0.585320 0.351344 0.977829
P6    P     P_3+3 0.393215 0.276745 0.553748 0.935608
P7    P     P_3+3 0.399063 0.441027 0.376790 0.962592
P8    P     P_3+3 0.416950 0.722975 0.445663 0.929159

loop_
_geom_bond_atom_site_label_1
_geom_bond_atom_site_label_2
_ccdc_geom_bond_type
C76   H2    S    
C66   P3    S    
C32   H38   S    
C53   C57   A    
C51   H55   S    
C74   H47   S    
C71   C72   A    
C15   P4    S    
C4    H39   S    
O7    P7    S    
C67   O9    S    
C21   H33   S    
C55   C60   A    
C69   H52   S    
C43   C44   S    
C81   H7    S    
C57   H46   S    
C24   C25   A    
Ba2   O4    S    
C36   P1    S    
C75   H48   S    
C61   C79   A    
Ba1   O15   S    
O20   P3    S    
C33   C35   A    
C35   C36   A    
C22   C24   A    
O18   P6    S    
C65   C70   D    
Ba2   O6    S    
C41   C50   S    
C19   C31   A    
C41   P5    S    
C13   C14   A    
C20   C36   A    
Ba1   O19   S    
C44   N1    S    
C50   H54   S    
C28   H59   S    
C54   C55   A    
C10   C17   A    
Ba1   O1    S    
Ba1   Ba2   S    
C16   H17   S    
C63   N2    Am   
Ba1   O4    S    
C51   C66   S    
C7    C11   A    
C7    C83   A    
C9    C13   A    
C76   C81   S    
C68   P2    S    
C46   C49   A    
C14   C15   A    
C27   H36   S    
C63   O11   D    
C39   C44   D    
C68   C69   D    
Ba2   O26   S    
C37   O10   D    
C12   H8    S    
C64   H63   S    
Ba2   O25   S    
C1    H16   S    
C76   O12   S    
C54   C73   A    
C67   H24   S    
C19   C20   A    
C3    H30   S    
O12   P2    S    
C27   C29   A    
C39   C41   S    
Ba2   O29   S    
C12   O18   S    
C52   H45   S    
C51   C68   D    
C14   H31   S    
Ba1   O25   S    
C31   C32   A    
C35   H40   S    
C4    C16   S    
O3    P5    S    
C22   H35   S    
C45   H18   S    
C72   C73   A    
C65   C66   S    
C46   C72   A    
C16   H57   S    
C12   H1    S    
O29   P5    S    
C40   H12   S    
C52   O17   S    
C3    C5    A    
C2    C21   A    
Ba1   P1    S    
C6    C7    A    
C34   H14   S    
C2    C83   A    
C4    O23   S    
O16   P6    D    
Ba1   O20   S    
C28   H58   S    
C62   N2    Am   
C58   C59   A    
C56   H21   S    
C30   C32   A    
O8    P8    D    
C58   H44   S    
Ba1   O5    S    
C49   C75   A    
C4    H28   S    
C62   O14   D    
C48   C74   A    
Ba2   O24   S    
C67   H25   S    
C29   C30   A    
C26   C30   A    
C43   H41   S    
C9    C10   A    
C18   C83   A    
C78   H27   S    
C60   C61   A    
C39   C82   S    
C28   O27   S    
C16   H50   S    
C34   H15   S    
Ba2   P4    S    
C18   C19   A    
O26   P8    S    
C64   H62   S    
C1    C12   S    
C24   C27   A    
C46   C47   A    
C37   C47   A    
C78   H29   S    
C23   H10   S    
C70   N2    S    
C53   C55   A    
C71   C74   A    
Ba2   O28   S    
O9    P8    S    
C15   C17   A    
C56   H22   S    
C81   H6    S    
C42   C43   D    
C79   H51   S    
C77   C79   A    
C76   H3    S    
O25   P4    S    
C81   H5    S    
Ba2   O5    S    
C45   H19   S    
O5    P2    S    
O15   P6    S    
C28   C40   S    
O6    P7    D    
C29   H37   S    
H60   O22   S    
C2    C3    A    
O23   P3    S    
Ba1   P2    S    
O4    P1    S    
C73   C80   A    
C38   O13   D    
C52   C64   S    
C45   O3    S    
C42   P7    S    
C38   C49   A    
C18   C26   A    
C13   P8    S    
C37   N1    Am   
C1    H4    S    
C56   H20   S    
C47   C48   A    
C17   C22   A    
C54   C77   A    
C69   C70   S    
C80   H53   S    
C8    H32   S    
C65   H43   S    
C45   C56   S    
Ba1   O28   S    
O21   P3    D    
C42   C50   D    
O2    P5    D    
C75   C80   A    
C33   P6    S    
C5    O22   S    
C78   H26   S    
C23   O7    S    
C31   C33   A    
C38   N1    Am   
C1    H9    S    
C59   C60   A    
C40   H34   S    
O27   P4    S    
C64   H61   S    
C5    C6    A    
C8    C9    A    
C23   C34   S    
C61   C62   A    
C53   C71   A    
C82   N3    T    
C59   C63   A    
C57   C58   A    
C52   H56   S    
O28   P7    S    
C10   C11   A    
C23   H11   S    
C6    C8    A    
O17   P1    S    
C77   H49   S    
C25   C26   A    
C20   C21   A    
C11   C25   A    
C67   C78   S    
C34   H13   S    
C48   H42   S    
O1    P1    D    
C40   H23   S    
O19   P2    D    
O24   P4    D    
