data_mof_unit_23248.cif
_audit_creation_date              2013-03-05T15:40:27-0500
_audit_creation_method            fapswitch 2.2
_symmetry_space_group_name_H-M    P1
_symmetry_Int_Tables_number       1
_space_group_crystal_system       triclinic
_cell_length_a                    18.951717
_cell_length_b                    10.997578
_cell_length_c                    18.782631
_cell_angle_alpha                 89.799334
_cell_angle_beta                  90.069686
_cell_angle_gamma                 90.012751
_cell_volume                      3914.70503915

loop_
_atom_site_label
_atom_site_type_symbol
_atom_site_description
_atom_site_fract_x
_atom_site_fract_y
_atom_site_fract_z
_atom_type_partial_charge
O1    O     O_R   0.215090 0.709860 0.828130 -0.536250
O2    O     O_R   0.784910 0.709860 0.171870 -0.528907
O3    O     O_R   0.715090 0.209860 0.828130 -0.529942
O4    O     O_R   0.284910 0.209860 0.171870 -0.531000
O5    O     O_R   0.236990 0.958390 0.823710 -0.520462
O6    O     O_R   0.763010 0.958390 0.176290 -0.518622
O7    O     O_R   0.736990 0.458390 0.823710 -0.518587
O8    O     O_R   0.263010 0.458390 0.176290 -0.524324
C1    C     C_R   0.271443 0.043307 0.852446 0.609560
C2    C     C_R   0.728461 0.043280 0.147408 0.609218
C3    C     C_R   0.771441 0.543315 0.852443 0.609642
C4    C     C_R   0.228467 0.543293 0.147417 0.600237
O9    O     O_R   0.332380 0.074750 0.830850 -0.461916
O10   O     O_R   0.667620 0.074750 0.169150 -0.465201
O11   O     O_R   0.832380 0.574750 0.830850 -0.464732
O12   O     O_R   0.167620 0.574750 0.169150 -0.466892
O13   O     O_R   0.445800 0.917770 0.825070 -0.508567
O14   O     O_R   0.554200 0.917770 0.174930 -0.512533
O15   O     O_R   0.945800 0.417770 0.825070 -0.514346
O16   O     O_R   0.054200 0.417770 0.174930 -0.507880
C5    C     C_R   0.471665 0.822070 0.853073 0.546445
C6    C     C_R   0.528309 0.822439 0.146915 0.537396
C7    C     C_R   0.971657 0.322076 0.853081 0.541118
C8    C     C_R   0.028302 0.322432 0.146922 0.555368
O17   O     O_R   0.456410 0.716580 0.829970 -0.500432
O18   O     O_R   0.543590 0.716580 0.170030 -0.505669
O19   O     O_R   0.956410 0.216580 0.829970 -0.501583
O20   O     O_R   0.043590 0.216580 0.170030 -0.497364
O21   O     O_R   0.321080 0.625290 0.822650 -0.432247
O22   O     O_R   0.678920 0.625290 0.177350 -0.437553
O23   O     O_R   0.821080 0.125290 0.822650 -0.437931
O24   O     O_R   0.178920 0.125290 0.177350 -0.439967
C9    C     C_R   0.260637 0.634478 0.850774 0.576052
C10   C     C_R   0.739288 0.634892 0.149136 0.571637
C11   C     C_R   0.760633 0.134465 0.850770 0.570769
C12   C     C_R   0.239292 0.134881 0.149142 0.567048
O25   O     O_R   0.214930 0.711450 0.668160 -0.449831
O26   O     O_R   0.785070 0.711450 0.331840 -0.464318
O27   O     O_R   0.714930 0.211450 0.668160 -0.461876
O28   O     O_R   0.285070 0.211450 0.331840 -0.433362
O29   O     O_R   0.236850 0.959870 0.675420 -0.467457
O30   O     O_R   0.763150 0.959870 0.324580 -0.482069
O31   O     O_R   0.736850 0.459870 0.675420 -0.482794
O32   O     O_R   0.263150 0.459870 0.324580 -0.481420
C13   C     C_R   0.272578 0.046268 0.648047 0.617095
C14   C     C_R   0.727564 0.045879 0.352195 0.611059
C15   C     C_R   0.772477 0.546113 0.647764 0.612627
C16   C     C_R   0.228732 0.546060 0.351854 0.563553
O33   O     O_R   0.332230 0.076350 0.670880 -0.507915
O34   O     O_R   0.667770 0.076350 0.329120 -0.512466
O35   O     O_R   0.832230 0.576350 0.670880 -0.513615
O36   O     O_R   0.167770 0.576350 0.329120 -0.522109
O37   O     O_R   0.445660 0.919250 0.676780 -0.493755
O38   O     O_R   0.554340 0.919250 0.323220 -0.489146
O39   O     O_R   0.945660 0.419250 0.676780 -0.509015
O40   O     O_R   0.054340 0.419250 0.323220 -0.468316
C17   C     C_R   0.469285 0.823436 0.647061 0.577533
C18   C     C_R   0.527943 0.824012 0.350643 0.566443
C19   C     C_R   0.972375 0.324017 0.649316 0.550133
C20   C     C_R   0.062600 0.319617 0.359447 0.576404
O41   O     O_R   0.456260 0.718170 0.670000 -0.512901
O42   O     O_R   0.543740 0.718170 0.330000 -0.517249
O43   O     O_R   0.956260 0.218170 0.670000 -0.505921
O44   O     O_R   0.043740 0.218170 0.330000 -0.473970
O45   O     O_R   0.320940 0.626760 0.674370 -0.480253
O46   O     O_R   0.679060 0.626760 0.325630 -0.504703
O47   O     O_R   0.820940 0.126760 0.674370 -0.504964
O48   O     O_R   0.179060 0.126760 0.325630 -0.535664
C21   C     C_R   0.277033 0.700228 0.640871 0.585349
C22   C     C_R   0.740675 0.631627 0.351450 0.579713
C23   C     C_R   0.759257 0.131893 0.648583 0.577696
C24   C     C_R   0.240547 0.132015 0.351668 0.578782
Cr1   Cr    Cr6+3 0.230530 0.836340 0.748870 1.072748
Cr2   Cr    Cr6+3 0.769470 0.836340 0.251130 1.074761
Cr3   Cr    Cr6+3 0.730530 0.336340 0.748870 1.074293
Cr4   Cr    Cr6+3 0.269470 0.336340 0.251130 1.063581
Cr5   Cr    Cr6+3 0.387420 0.989430 0.750820 1.074270
Cr6   Cr    Cr6+3 0.612580 0.989430 0.249180 1.072318
Cr7   Cr    Cr6+3 0.887420 0.489430 0.750820 1.056007
Cr8   Cr    Cr6+3 0.112580 0.489430 0.249180 1.075370
Cr9   Cr    Cr6+3 0.385640 0.677860 0.749230 1.098695
Cr10  Cr    Cr6+3 0.614360 0.677860 0.250770 1.084241
Cr11  Cr    Cr6+3 0.885640 0.177860 0.749230 1.093651
Cr12  Cr    Cr6+3 0.114360 0.177860 0.250770 1.090623
O49   O     O_3   0.334530 0.834540 0.749640 -0.326543
O50   O     O_3   0.665470 0.834540 0.250360 -0.288715
O51   O     O_3   0.834530 0.334540 0.749640 -0.286502
O52   O     O_3   0.165470 0.334540 0.250360 -0.306343
H1    H     H_    0.497474 0.633686 0.938306 0.146707
H2    H     H_    0.496478 0.634853 0.063929 0.146313
H3    H     H_    0.997589 0.133706 0.938280 0.146540
H4    H     H_    0.996604 0.134809 0.063901 0.147486
C25   C     C_R   0.499803 0.831542 0.074602 0.006539
C26   C     C_R   0.499748 0.830201 0.925524 0.007265
C27   C     C_R   0.999791 0.331505 0.074612 0.006418
C28   C     C_R   0.999733 0.330232 0.925535 0.007981
C29   C     C_R   0.497835 0.943850 0.036992 0.019727
C30   C     C_R   0.504607 0.942854 0.961909 0.019290
C31   C     C_R   0.997737 0.443823 0.037027 0.018204
C32   C     C_R   0.004509 0.442883 0.961944 0.020936
C33   C     C_R   0.499459 0.721394 0.964265 -0.167154
C34   C     C_R   0.496839 0.722149 0.037028 -0.166929
C35   C     C_R   0.999518 0.221405 0.964255 -0.167242
C36   C     C_R   0.996903 0.222122 0.037018 -0.167010
C37   C     C_R   0.489545 0.056866 0.071753 -0.077919
C38   C     C_R   0.515809 0.054299 0.925825 -0.078005
C39   C     C_R   0.989363 0.556794 0.071817 -0.077520
C40   C     C_R   0.015626 0.554382 0.925889 -0.078114
C41   C     C_R   0.996318 0.665928 0.034452 -0.110874
C42   C     C_R   0.011590 0.664647 0.962078 -0.111552
C43   C     C_R   0.496593 0.165960 0.034363 -0.111042
C44   C     C_R   0.511865 0.164595 0.961989 -0.111607
H5    H     H_    0.990753 0.751755 0.061942 0.133949
H6    H     H_    0.019309 0.749420 0.933656 0.131221
H7    H     H_    0.491094 0.251818 0.061832 0.133334
H8    H     H_    0.519652 0.249331 0.933548 0.132973
C45   C     C_2   0.246400 0.572074 0.917774 -0.053229
C46   C     C_2   0.753338 0.573145 0.082091 -0.052142
C47   C     C_2   0.746391 0.072034 0.917759 -0.052316
C48   C     C_2   0.253351 0.073129 0.082099 -0.054399
C49   C     C_2   0.254802 0.585534 0.079066 0.003686
C50   C     C_2   0.744816 0.586098 0.920406 0.002884
C51   C     C_2   0.754787 0.085512 0.079049 0.003650
C52   C     C_2   0.244824 0.086068 0.920418 0.002152
C53   C     C_2   0.277643 0.498881 0.033867 -0.235039
C54   C     C_2   0.721981 0.499914 0.966219 -0.234326
C55   C     C_2   0.777652 0.998862 0.033858 -0.235649
C56   C     C_2   0.221995 0.999871 0.966228 -0.234655
C57   C     C_2   0.296453 0.521972 0.959940 -0.014293
C58   C     C_2   0.703099 0.523821 0.039960 -0.010758
C59   C     C_2   0.796449 0.021942 0.959924 -0.013166
C60   C     C_2   0.203121 0.023753 0.039978 -0.009669
H9    H     H_    0.279637 0.404262 0.050691 0.141339
H10   H     H_    0.720020 0.405163 0.950066 0.140864
H11   H     H_    0.779683 0.904253 0.050697 0.140271
H12   H     H_    0.220030 0.905125 0.950064 0.140930
H13   H     H_    0.194045 0.587044 0.939940 0.092093
H14   H     H_    0.805803 0.587496 0.059989 0.092918
H15   H     H_    0.694033 0.086989 0.939923 0.092791
H16   H     H_    0.305808 0.087524 0.059989 0.092511
C61   C     C_2   0.492554 0.829779 0.574051 -0.048519
C62   C     C_2   0.492477 0.834893 0.417940 -0.085034
C63   C     C_2   0.015982 0.335568 0.586328 -0.067815
C64   C     C_2   0.044821 0.329440 0.433690 -0.070887
C65   C     C_2   0.482905 0.734033 0.456098 -0.175095
C66   C     C_2   0.476246 0.734674 0.532294 -0.156790
C67   C     C_2   0.060178 0.237667 0.477686 -0.144968
C68   C     C_2   0.035859 0.235281 0.551184 -0.083520
H17   H     H_    0.485781 0.644453 0.431969 0.161826
H18   H     H_    0.456688 0.649644 0.554328 0.160620
H19   H     H_    0.085377 0.155988 0.457420 0.134231
H20   H     H_    0.029447 0.145593 0.574745 0.179276
H21   H     H_    0.486869 0.924650 0.440715 0.103693
H22   H     H_    0.512567 0.914979 0.553305 0.098383
H23   H     H_    0.018161 0.411220 0.451281 0.108452
H24   H     H_    0.025789 0.426219 0.565677 0.096333
C69   C     C_2   0.282127 0.709754 0.563182 -0.083631
C70   C     C_2   0.753574 0.557485 0.414251 -0.068102
C71   C     C_2   0.745826 0.058054 0.586047 -0.066693
C72   C     C_2   0.253289 0.057261 0.414212 -0.090885
C73   C     C_2   0.256846 0.595478 0.418141 0.002382
C74   C     C_2   0.760355 0.578065 0.573978 0.015521
C75   C     C_2   0.740064 0.077852 0.425803 0.013538
C76   C     C_2   0.260844 0.079458 0.574749 0.051612
C77   C     C_2   0.233656 0.703777 0.441594 -0.207406
C78   C     C_2   0.809154 0.533253 0.528137 -0.221564
C79   C     C_2   0.690650 0.035357 0.471873 -0.221446
C80   C     C_2   0.306105 0.027357 0.528152 -0.205724
C81   C     C_2   0.227863 0.732924 0.517876 -0.011836
C82   C     C_2   0.813124 0.562303 0.452370 -0.029294
C83   C     C_2   0.686746 0.065917 0.547256 -0.027653
C84   C     C_2   0.311961 0.062569 0.453625 -0.018975
H25   H     H_    0.200838 0.758042 0.406067 0.139918
H26   H     H_    0.851602 0.475899 0.548397 0.130750
H27   H     H_    0.647438 0.979501 0.452016 0.131884
H28   H     H_    0.344773 0.961421 0.547046 0.108589
C85   C     C_2   0.156613 0.775503 0.539232 0.258079
H29   H     H_    0.110444 0.737572 0.513206 0.103623
O53   O     O_2   0.148620 0.858579 0.581209 -0.486192
C86   C     C_2   0.883965 0.587685 0.422014 0.279840
H30   H     H_    0.926487 0.615895 0.457036 0.086290
O54   O     O_2   0.896656 0.570973 0.359075 -0.453898
C87   C     C_2   0.616335 0.097845 0.576289 0.266811
H31   H     H_    0.575675 0.131610 0.540585 0.087549
O55   O     O_2   0.601653 0.080145 0.638766 -0.466932
C88   C     C_2   0.382473 0.099598 0.427090 0.270493
H32   H     H_    0.421747 0.132301 0.464537 0.097867
O56   O     O_2   0.398909 0.087261 0.364690 -0.487771
C89   C     C_2   0.303330 0.513317 0.460188 0.251617
H33   H     H_    0.356099 0.541346 0.475000 0.088988
O57   O     O_2   0.283940 0.410600 0.475170 -0.503679
C90   C     C_2   0.705190 0.669027 0.555696 0.209242
H34   H     H_    0.704339 0.714084 0.504325 0.100297
O58   O     O_2   0.660331 0.696739 0.599337 -0.481710
C91   C     C_2   0.796638 0.166232 0.443706 0.211715
H35   H     H_    0.798075 0.211417 0.494847 0.097588
O59   O     O_2   0.842086 0.191548 0.400048 -0.466877
C92   C     C_2   0.214759 0.184649 0.558278 0.256295
H36   H     H_    0.207838 0.217079 0.504326 0.135773
O60   O     O_2   0.184935 0.238845 0.606215 -0.477336
H37   H     H_    0.333907 0.693954 0.541694 0.047994
H38   H     H_    0.707023 0.515784 0.437947 0.093088
H39   H     H_    0.791804 0.013629 0.563130 0.094429
H40   H     H_    0.206918 0.012694 0.436539 0.084747
H41   H     H_    0.475919 0.062171 0.127529 0.149201
H42   H     H_    0.529216 0.057205 0.869904 0.151906
H43   H     H_    0.975746 0.562022 0.127597 0.153005
H44   H     H_    0.029043 0.557364 0.869974 0.143213
C93   C     C_2   0.367414 0.479427 0.937522 0.287855
H45   H     H_    0.409715 0.476682 0.976498 0.060756
O61   O     O_2   0.378186 0.438038 0.878321 -0.431060
C94   C     C_2   0.631700 0.483114 0.062295 0.289761
H46   H     H_    0.589227 0.483305 0.023484 0.062021
O62   O     O_2   0.620681 0.439957 0.121193 -0.438121
C95   C     C_2   0.867410 0.979414 0.937495 0.288587
H47   H     H_    0.909722 0.976712 0.976460 0.062081
O63   O     O_2   0.878170 0.937996 0.878299 -0.436615
C96   C     C_2   0.131748 0.982951 0.062338 0.290157
H48   H     H_    0.089266 0.983057 0.023538 0.061881
O64   O     O_2   0.120766 0.939817 0.121248 -0.439392
C97   C     C_2   0.260822 0.717318 0.064426 0.213704
H49   H     H_    0.280183 0.750306 0.013669 0.082921
O65   O     O_2   0.247266 0.790607 0.111026 -0.463832
C98   C     C_2   0.738646 0.718004 0.934072 0.219173
H50   H     H_    0.719873 0.751438 0.984816 0.080938
O66   O     O_2   0.751378 0.790860 0.886695 -0.453893
C99   C     C_2   0.760748 0.217295 0.064380 0.218467
H51   H     H_    0.780125 0.250277 0.013628 0.081253
O67   O     O_2   0.747120 0.290596 0.110951 -0.453397
C100  C     C_2   0.238659 0.217969 0.934099 0.218602
H52   H     H_    0.219872 0.251388 0.984841 0.080748
O68   O     O_2   0.251411 0.290839 0.886736 -0.450728

loop_
_geom_bond_atom_site_label_1
_geom_bond_atom_site_label_2
_geom_bond_distance
_ccdc_geom_bond_type
C10   C46   1.457638 S    
Cr11  O51   1.976921 S    
O4    C12   1.269195 A    
C18   O42   1.264311 A    
C33   C34   1.367704 A    
O39   C19   1.274357 A    
O20   Cr12  2.066584 S    
O29   C13   1.273878 A    
C75   C79   1.357615 D    
C67   C68   1.456074 S    
C42   H6    1.082679 S    
C40   H44   1.081254 S    
C98   H50   1.083295 S    
C74   C90   1.486210 S    
C65   C66   1.436912 S    
C96   H48   1.085302 S    
O1    C9    1.268946 A    
O27   Cr3   2.070093 S    
C38   C44   1.394367 A    
C27   C36   1.398037 A    
C9    C45   1.456756 S    
C71   C83   1.337752 D    
O24   C12   1.265690 A    
C83   C87   1.484802 S    
C13   C76   1.440097 S    
C55   H11   1.087093 S    
O25   C21   1.290413 A    
C87   O55   1.221278 D    
O26   Cr2   2.063123 S    
C27   C31   1.421093 A    
C61   H22   1.082265 S    
O47   C23   1.266023 A    
C51   C99   1.478625 S    
C5    C26   1.463606 S    
C26   C30   1.419916 A    
C77   H25   1.088400 S    
O21   C9    1.266225 A    
O8    Cr4   1.943976 S    
C1    C52   1.453088 S    
O23   Cr11  1.931621 S    
C7    C28   1.463627 S    
O32   Cr4   1.943402 S    
O30   C14   1.274030 A    
C81   C85   1.485400 S    
C79   C83   1.458350 S    
C89   O57   1.219898 D    
C1    O9    1.271931 A    
H2    C34   1.083353 S    
O7    C3    1.261834 A    
O25   Cr1   2.070093 S    
C69   C81   1.357610 D    
C49   C53   1.350191 D    
C66   H18   1.086570 S    
C15   C74   1.446657 S    
C71   H39   1.088972 S    
C23   C71   1.452500 S    
O11   Cr7   2.059650 S    
C4    C49   1.452700 S    
C4    O12   1.272159 A    
C26   C33   1.398322 A    
C84   C88   1.483226 S    
C85   O53   1.218479 D    
C47   C59   1.351309 D    
C37   H41   1.081052 S    
C49   C97   1.478625 S    
C92   H36   1.080945 S    
C48   H16   1.089189 S    
C13   O33   1.253411 A    
O14   C6    1.272722 A    
C45   C57   1.351301 D    
Cr4   O52   1.971108 S    
C39   H43   1.081057 S    
O2    Cr2   2.062144 S    
C41   H5    1.082697 S    
C29   C30   1.416329 A    
C52   C56   1.349511 D    
C29   C37   1.414847 A    
O2    C10   1.269208 A    
C24   C72   1.451492 S    
C37   C43   1.394536 A    
C19   C63   1.449158 S    
O18   Cr10  2.066584 S    
C97   O65   1.219558 D    
O27   C23   1.268761 A    
O31   Cr3   1.936597 S    
C39   C41   1.394517 A    
C62   C65   1.331009 D    
C89   H33   1.082737 S    
C3    O11   1.271925 A    
C64   C67   1.334139 D    
O34   Cr6   2.065913 S    
Cr7   O51   1.976431 S    
C76   C92   1.481249 S    
O6    Cr2   1.943976 S    
O35   Cr7   2.061261 S    
C77   C81   1.473519 S    
C63   C68   1.341623 D    
O24   Cr12  1.934676 S    
O9    Cr5   2.059650 S    
C78   H26   1.089781 S    
C32   C40   1.414577 A    
O22   C10   1.265674 A    
C59   C95   1.485877 S    
O48   Cr12  1.946004 S    
Cr12  O52   1.976499 S    
C76   C80   1.354862 D    
C73   C89   1.486580 S    
C2    C51   1.452747 S    
C2    O10   1.272160 A    
C8    C27   1.464191 S    
O16   Cr8   1.947743 S    
C70   C82   1.336928 D    
O7    Cr3   1.950726 S    
C16   C73   1.460286 S    
Cr10  O50   1.976499 S    
O29   Cr1   1.936597 S    
O13   C5    1.272928 A    
O40   C20   1.297192 A    
C82   C86   1.485282 S    
O48   C24   1.264602 A    
O12   Cr8   2.054634 S    
C58   C94   1.485649 S    
C90   O58   1.221098 D    
C50   C54   1.349482 D    
O15   C7    1.272881 A    
C95   H47   1.085337 S    
C87   H31   1.085593 S    
O5    C1    1.261818 A    
C97   H49   1.083279 S    
C46   C58   1.352008 D    
C53   C57   1.455453 S    
O46   Cr10  1.946004 S    
O39   Cr7   1.938951 S    
O3    C11   1.268960 A    
C18   C62   1.437694 S    
C21   C69   1.465890 S    
C99   H51   1.083277 S    
C75   C91   1.486038 S    
O40   Cr8   1.934873 S    
O8    C4    1.261101 A    
C11   C47   1.456743 S    
O13   Cr5   1.943983 S    
C93   H45   1.085335 S    
C72   C84   1.336437 D    
O47   Cr11  1.948689 S    
Cr2   O50   1.971108 S    
C100  O68   1.219624 D    
C52   C100  1.478735 S    
Cr1   O49   1.971119 S    
O30   Cr2   1.943402 S    
C61   C66   1.345217 D    
Cr3   O51   1.971119 S    
O26   C22   1.269777 A    
C99   O67   1.219548 D    
C94   O62   1.220462 D    
O21   Cr9   1.931621 S    
C78   C82   1.459459 S    
C7    O19   1.273213 A    
C14   C75   1.447001 S    
C73   C77   1.345402 D    
O37   Cr5   1.938951 S    
C70   H38   1.089065 S    
C6    C25   1.464213 S    
O23   C11   1.266250 A    
O38   Cr6   1.934873 S    
C3    C50   1.453061 S    
C69   H37   1.075917 S    
C72   H40   1.089803 S    
C88   O56   1.221119 D    
C25   C29   1.421187 A    
C51   C55   1.350207 D    
C44   H8    1.082677 S    
O3    Cr3   2.055008 S    
C86   H30   1.085533 S    
C8    O20   1.274285 A    
O14   Cr6   1.947743 S    
O38   C18   1.268549 A    
C80   C84   1.455446 S    
C53   H9    1.087091 S    
C80   H28   1.089308 S    
C5    O17   1.273142 A    
C56   C60   1.455854 S    
O37   C17   1.275661 A    
O22   Cr10  1.934676 S    
O28   C24   1.269643 A    
C43   C44   1.390332 A    
H1    C33   1.082941 S    
C48   C60   1.352000 D    
O36   Cr8   2.065913 S    
O5    Cr1   1.950726 S    
C45   H13   1.089274 S    
C68   H20   1.086512 S    
H3    C35   1.082957 S    
O17   Cr9   2.068645 S    
C98   O66   1.219632 D    
C25   C34   1.397991 A    
C38   H42   1.081288 S    
C15   O35   1.257427 A    
C40   C42   1.394381 A    
C17   O41   1.258341 A    
C17   C61   1.442443 S    
C31   C39   1.414840 A    
C14   O34   1.257867 A    
C19   O43   1.263416 A    
C30   C38   1.414567 A    
C31   C32   1.416310 A    
O44   Cr12  2.052332 S    
C96   O64   1.220466 D    
C20   O44   1.296942 A    
C47   H15   1.089268 S    
C90   H34   1.083241 S    
C50   C98   1.478743 S    
C64   H23   1.084457 S    
C56   H12   1.086942 S    
O1    Cr1   2.055008 S    
Cr8   O52   1.976681 S    
O32   C16   1.261294 A    
O41   Cr9   2.049951 S    
C41   C42   1.390315 A    
C20   C64   1.439431 S    
C86   O54   1.221227 D    
Cr6   O50   1.976681 S    
C63   H24   1.084550 S    
O46   C22   1.265073 A    
O31   C15   1.273741 A    
O45   C21   1.317799 A    
C67   H19   1.087602 S    
C28   C32   1.420019 A    
O19   Cr11  2.068645 S    
C93   O61   1.220420 D    
O33   Cr5   2.061261 S    
C74   C78   1.358172 D    
C79   H27   1.089836 S    
C60   C96   1.485649 S    
O10   Cr6   2.054635 S    
C62   H21   1.082496 S    
O42   Cr10  2.052332 S    
C100  H52   1.083292 S    
C12   C48   1.457657 S    
C55   C59   1.455489 S    
O4    Cr4   2.062144 S    
C95   O63   1.220427 D    
O6    C2    1.261120 A    
H4    C36   1.083349 S    
Cr5   O49   1.976431 S    
C91   H35   1.083347 S    
O28   Cr4   2.063123 S    
C16   O36   1.275169 A    
C65   H17   1.087253 S    
C94   H46   1.085300 S    
C54   H10   1.086940 S    
C43   H7    1.082696 S    
C85   H29   1.085723 S    
C6    O18   1.274375 A    
C28   C35   1.398295 A    
O43   Cr11  2.049951 S    
C35   C36   1.367691 A    
C54   C58   1.455795 S    
O45   Cr9   1.948689 S    
C92   O60   1.220890 D    
C22   C70   1.452107 S    
C88   H32   1.085546 S    
C46   H14   1.089189 S    
C57   C93   1.485875 S    
O16   C8    1.272773 A    
Cr9   O49   1.976921 S    
O15   Cr7   1.943983 S    
C91   O59   1.221392 D    
