data_mof_unit_10650.cif
_audit_creation_date              2012-12-11T14:40:06-0500
_audit_creation_method            fapswitch 2.2
_symmetry_space_group_name_H-M    P1
_symmetry_Int_Tables_number       1
_space_group_crystal_system       triclinic
_cell_length_a                    19.773554
_cell_length_b                    10.912556
_cell_length_c                    19.461888
_cell_angle_alpha                 90.054674
_cell_angle_beta                  97.012934
_cell_angle_gamma                 89.859973
_cell_volume                      4168.05516042

loop_
_atom_site_label
_atom_site_type_symbol
_atom_type_description
_atom_site_fract_x
_atom_site_fract_y
_atom_site_fract_z
_atom_type_partial_charge
C1    C     C_R   0.707549 0.999753 0.366506 0.563026
C2    C     C_R   0.276300 0.955847 0.638057 0.559799
C3    C     C_R   0.207554 0.499732 0.366505 0.559841
C4    C     C_R   0.776280 0.455791 0.638077 0.556972
C5    C     C_3   0.774282 0.312828 0.483192 -0.104627
C6    C     C_3   0.279751 0.344096 0.510243 -0.143925
C7    C     C_3   0.274338 0.812888 0.483181 -0.104375
C8    C     C_3   0.779792 0.844214 0.510257 -0.142276
C9    C     C_3   0.747135 0.411995 0.430717 0.055261
C10   C     C_3   0.248812 0.408750 0.569222 0.064396
C11   C     C_3   0.247152 0.912021 0.430700 0.055536
C12   C     C_3   0.748799 0.908767 0.569232 0.066352
C13   C     C_3   0.691158 0.442571 0.475722 0.142036
C14   C     C_3   0.265164 0.531918 0.541229 0.129489
C15   C     C_3   0.191173 0.942549 0.475707 0.142127
C16   C     C_3   0.765092 0.031987 0.541275 0.129729
C17   C     C_3   0.737285 0.539721 0.513758 -0.100831
C18   C     C_3   0.193785 0.537078 0.498890 -0.139685
C19   C     C_3   0.237270 0.039753 0.513729 -0.101171
C20   C     C_3   0.693721 0.037048 0.498909 -0.140905
C21   C     C_3   0.794577 0.507843 0.468355 -0.166779
C22   C     C_3   0.177654 0.409890 0.527452 -0.139966
C23   C     C_3   0.294567 0.007925 0.468321 -0.166882
C24   C     C_3   0.677650 0.909811 0.527445 -0.140153
C25   C     C_3   0.821896 0.408404 0.521081 -0.107681
C26   C     C_3   0.208296 0.345063 0.467931 -0.124872
C27   C     C_3   0.321925 0.908521 0.521054 -0.107673
C28   C     C_3   0.708347 0.845083 0.467927 -0.124363
C29   C     C_3   0.764206 0.437770 0.564582 0.047667
C30   C     C_3   0.224334 0.471128 0.439699 0.032731
C31   C     C_3   0.264231 0.937837 0.564559 0.046786
C32   C     C_3   0.724325 0.971195 0.439715 0.030259
C33   C     C_3   0.541992 0.271851 0.965051 -0.204150
C34   C     C_3   0.499031 0.263755 0.025958 -0.188926
C35   C     C_3   0.051058 0.761838 0.965469 -0.217254
C36   C     C_3   0.002698 0.770883 0.021972 -0.196127
C37   C     C_3   0.592467 0.177347 0.000902 0.249917
C38   C     C_3   0.459412 0.156123 0.990698 0.280629
C39   C     C_3   0.089467 0.655917 0.006249 0.248643
C40   C     C_3   0.956921 0.673442 0.984040 0.293749
C41   C     C_3   0.549892 0.169732 0.062607 -0.031217
C42   C     C_3   0.501350 0.164230 0.929133 -0.028671
C43   C     C_3   0.041260 0.665219 0.062803 -0.040294
C44   C     C_3   0.004250 0.664637 0.927062 -0.032307
C45   C     C_R   0.534844 0.180022 0.337714 0.537265
C46   C     C_R   0.464888 0.179880 0.662075 0.538905
C47   C     C_R   0.034858 0.680023 0.337723 0.535895
C48   C     C_R   0.964862 0.679881 0.662057 0.537123
C49   C     C_3   0.509957 0.061822 0.026013 0.272282
C50   C     C_3   0.551653 0.069235 0.964492 0.243087
C51   C     C_3   0.994757 0.566534 0.023442 0.276550
C52   C     C_3   0.042479 0.558677 0.967124 0.266775
C53   C     C_1   0.784952 0.485368 0.916053 0.032939
C54   C     C_1   0.238466 0.418898 0.097599 0.018864
C55   C     C_1   0.281135 0.975437 0.914378 0.025320
C56   C     C_1   0.720837 0.969306 0.086623 0.019028
C57   C     C_1   0.761291 0.447859 0.043976 -0.055668
C58   C     C_1   0.259708 0.375873 0.970660 -0.055450
C59   C     C_1   0.257418 0.937800 0.041646 -0.070217
C60   C     C_1   0.744769 0.931392 0.959860 -0.023443
C61   C     C_1   0.775058 0.472547 0.975641 -0.026852
C62   C     C_1   0.248812 0.399039 0.039271 -0.018417
C63   C     C_1   0.270112 0.959790 0.973102 -0.036096
C64   C     C_1   0.732630 0.951926 0.028415 0.020759
C65   C     C_1   0.749605 0.416078 0.100719 -0.002920
C66   C     C_1   0.268429 0.350796 0.912439 -0.010067
C67   C     C_1   0.247349 0.909913 0.099240 -0.011872
C68   C     C_1   0.754059 0.905633 0.901821 -0.023166
C69   C     C_R   0.739708 0.367329 0.360241 0.537269
C70   C     C_R   0.260443 0.363581 0.638876 0.549788
C71   C     C_R   0.239715 0.867348 0.360230 0.534430
C72   C     C_R   0.760444 0.863573 0.638874 0.541454
C73   C     C_R   0.705966 0.995115 0.154888 0.548054
C74   C     C_R   0.294815 0.997443 0.845100 0.568130
C75   C     C_R   0.221716 0.452687 0.163944 0.559813
C76   C     C_R   0.796025 0.500616 0.844939 0.592399
C77   C     C_R   0.566561 0.182184 0.137775 0.553691
C78   C     C_R   0.468708 0.177842 0.859220 0.541339
C79   C     C_R   0.062931 0.681033 0.136623 0.581734
C80   C     C_R   0.971803 0.677808 0.857135 0.553389
C81   C     C_R   0.736641 0.362582 0.165234 0.547021
C82   C     C_R   0.276334 0.314858 0.843700 0.558898
C83   C     C_R   0.236290 0.861578 0.165042 0.553686
C84   C     C_R   0.763959 0.860684 0.835187 0.541083
C85   C     C_1   0.485777 0.171846 0.594703 -0.023474
C86   C     C_1   0.513302 0.172035 0.404795 -0.028558
C87   C     C_1   0.985746 0.671840 0.594686 -0.021227
C88   C     C_1   0.013310 0.672030 0.404798 -0.027407
C89   C     C_1   0.503332 0.168534 0.464362 -0.066076
C90   C     C_1   0.495425 0.168445 0.535036 -0.067404
C91   C     C_1   0.003327 0.668524 0.464358 -0.066129
C92   C     C_1   0.995401 0.668435 0.535024 -0.067228
C93   C     C_3   0.716721 0.343136 0.527613 -0.120241
C94   C     C_3   0.296296 0.470501 0.481080 -0.091017
C95   C     C_3   0.216774 0.843147 0.527603 -0.120271
C96   C     C_3   0.796280 0.970673 0.481125 -0.090782
Cr1   Cr    Cr6+3 0.765830 0.160660 0.268180 1.006784
Cr2   Cr    Cr6+3 0.234170 0.160660 0.731820 0.992688
Cr3   Cr    Cr6+3 0.265830 0.660660 0.268180 1.015555
Cr4   Cr    Cr6+3 0.734170 0.660660 0.731820 0.994388
Cr5   Cr    Cr6+3 0.612110 0.009150 0.248770 0.994639
Cr6   Cr    Cr6+3 0.387890 0.009150 0.751230 0.967384
Cr7   Cr    Cr6+3 0.112110 0.509150 0.248770 0.988402
Cr8   Cr    Cr6+3 0.887890 0.509150 0.751230 0.970963
Cr9   Cr    Cr6+3 0.615930 0.324050 0.248450 1.008290
Cr10  Cr    Cr6+3 0.384070 0.324050 0.751550 0.996761
Cr11  Cr    Cr6+3 0.115930 0.824050 0.248450 1.014232
Cr12  Cr    Cr6+3 0.884070 0.824050 0.751550 1.007957
H1    H     H_    0.792027 0.222214 0.467415 0.162750
H2    H     H_    0.316145 0.266269 0.517338 0.111753
H3    H     H_    0.292101 0.722276 0.467411 0.162984
H4    H     H_    0.816212 0.766422 0.517346 0.111814
H5    H     H_    0.684656 0.281926 0.555441 0.106414
H6    H     H_    0.344303 0.495849 0.460508 0.115783
H7    H     H_    0.184734 0.781909 0.555441 0.107254
H8    H     H_    0.844286 0.996134 0.460584 0.116006
H9    H     H_    0.219951 0.128974 0.531873 0.132565
H10   H     H_    0.656934 0.113795 0.490430 0.100274
H11   H     H_    0.720004 0.628977 0.531894 0.132836
H12   H     H_    0.157031 0.613870 0.490391 0.100227
H13   H     H_    0.825578 0.574696 0.442838 0.116591
H14   H     H_    0.129474 0.384420 0.547691 0.126056
H15   H     H_    0.325540 0.074794 0.442779 0.115787
H16   H     H_    0.629477 0.884237 0.547665 0.125772
H17   H     H_    0.876127 0.392384 0.541435 0.134776
H18   H     H_    0.184598 0.267759 0.436642 0.151106
H19   H     H_    0.376162 0.892556 0.541404 0.134867
H20   H     H_    0.684701 0.767747 0.436627 0.152112
H21   H     H_    0.553757 0.359210 0.939902 0.127324
H22   H     H_    0.478025 0.346148 0.049163 0.130253
H23   H     H_    0.072111 0.842160 0.940418 0.123936
H24   H     H_    0.985899 0.858521 0.043505 0.136812
O1    O     O_R   0.783230 0.287800 0.346510 -0.537241
O2    O     O_R   0.216770 0.287800 0.653490 -0.531922
O3    O     O_R   0.283230 0.787800 0.346510 -0.537538
O4    O     O_R   0.716770 0.787800 0.653490 -0.535888
O5    O     O_R   0.554500 0.081650 0.170370 -0.525872
O6    O     O_R   0.445500 0.081650 0.829630 -0.527462
O7    O     O_R   0.054500 0.581650 0.170370 -0.530252
O8    O     O_R   0.945500 0.581650 0.829630 -0.524217
O9    O     O_R   0.545430 0.285140 0.163100 -0.524566
O10   O     O_R   0.454570 0.285140 0.836900 -0.518470
O11   O     O_R   0.045430 0.785140 0.163100 -0.527459
O12   O     O_R   0.954570 0.785140 0.836900 -0.500263
O13   O     O_R   0.677850 0.374730 0.185500 -0.507021
O14   O     O_R   0.322150 0.374730 0.814500 -0.496163
O15   O     O_R   0.177850 0.874730 0.185500 -0.506813
O16   O     O_R   0.822150 0.874730 0.814500 -0.484937
O17   O     O_3   0.664630 0.164620 0.255130 -0.306303
O18   O     O_3   0.335370 0.164620 0.744870 -0.274444
O19   O     O_3   0.164630 0.664620 0.255130 -0.284113
O20   O     O_3   0.835370 0.664620 0.744870 -0.257004
O21   O     O_R   0.760130 0.037060 0.338610 -0.499609
O22   O     O_R   0.239870 0.037060 0.661390 -0.505826
O23   O     O_R   0.260130 0.537060 0.338610 -0.507776
O24   O     O_R   0.739870 0.537060 0.661390 -0.507829
O25   O     O_R   0.666620 0.921370 0.332440 -0.504973
O26   O     O_R   0.333380 0.921370 0.667560 -0.526364
O27   O     O_R   0.166620 0.421370 0.332440 -0.515023
O28   O     O_R   0.833380 0.421370 0.667560 -0.527867
O29   O     O_R   0.557170 0.082420 0.312350 -0.503384
O30   O     O_R   0.442830 0.082420 0.687650 -0.509504
O31   O     O_R   0.057170 0.582420 0.312350 -0.507930
O32   O     O_R   0.942830 0.582420 0.687650 -0.513872
O33   O     O_R   0.548310 0.285980 0.316250 -0.515706
O34   O     O_R   0.451690 0.285980 0.683750 -0.519880
O35   O     O_R   0.048310 0.785980 0.316250 -0.516274
O36   O     O_R   0.951690 0.785980 0.683750 -0.522270
O37   O     O_R   0.680520 0.375500 0.327470 -0.493223
O38   O     O_R   0.319480 0.375500 0.672530 -0.501587
O39   O     O_R   0.180520 0.875500 0.327470 -0.495917
O40   O     O_R   0.819480 0.875500 0.672530 -0.507228
O41   O     O_R   0.780350 0.286970 0.193350 -0.517319
O42   O     O_R   0.219650 0.286970 0.806650 -0.535908
O43   O     O_R   0.280350 0.786970 0.193350 -0.505854
O44   O     O_R   0.719650 0.786970 0.806650 -0.533150
O45   O     O_R   0.757460 0.036290 0.196640 -0.489879
O46   O     O_R   0.242540 0.036290 0.803360 -0.516572
O47   O     O_R   0.257460 0.536290 0.196640 -0.485726
O48   O     O_R   0.742540 0.536290 0.803360 -0.516582
O49   O     O_R   0.663740 0.920540 0.179290 -0.547646
O50   O     O_R   0.336260 0.920540 0.820710 -0.528567
O51   O     O_R   0.163740 0.420540 0.179290 -0.533056
O52   O     O_R   0.836260 0.420540 0.820710 -0.539114
N1    N     N_2   0.620216 0.462565 0.450132 -0.497106
H25   H     H_    0.598828 0.387105 0.424567 0.282744
C97   C     C_3   0.578774 0.508789 0.500754 -0.309431
H26   H     H_    0.525497 0.520980 0.476140 0.142816
H27   H     H_    0.597883 0.599218 0.520679 0.152613
H28   H     H_    0.578927 0.443134 0.544393 0.142228
N2    N     N_2   0.296366 0.625578 0.587503 -0.526033
H29   H     H_    0.272819 0.637621 0.631471 0.251402
C98   C     C_3   0.370053 0.624420 0.599803 -0.298191
H30   H     H_    0.387841 0.697641 0.637280 0.153707
H31   H     H_    0.391829 0.642415 0.550868 0.129075
H32   H     H_    0.389167 0.534999 0.621156 0.176613
N3    N     N_2   0.120223 0.962445 0.450110 -0.497795
H33   H     H_    0.098852 0.886877 0.424634 0.282685
C99   C     C_3   0.078780 0.008823 0.500696 -0.309628
H34   H     H_    0.025485 0.020808 0.476085 0.142610
H35   H     H_    0.097835 0.099393 0.520480 0.152537
H36   H     H_    0.079002 0.943352 0.544446 0.142947
N4    N     N_2   0.796212 0.125657 0.587598 -0.526125
H37   H     H_    0.772605 0.137648 0.631534 0.249338
C100  C     C_3   0.869898 0.124609 0.599983 -0.299237
H38   H     H_    0.887615 0.197792 0.637514 0.153039
H39   H     H_    0.891720 0.142718 0.551086 0.129572
H40   H     H_    0.889038 0.035189 0.621311 0.176253
O53   O     O_3   0.664027 0.182174 0.004001 -0.567811
C101  C     C_3   0.685272 0.240739 0.944982 0.025018
H41   H     H_    0.741784 0.238637 0.952578 0.166293
H42   H     H_    0.668713 0.337864 0.942800 0.127587
C102  C     C_3   0.662006 0.179905 0.874418 -0.288415
H43   H     H_    0.667932 0.080336 0.877996 0.208261
H44   H     H_    0.607901 0.200986 0.857252 0.146261
C103  C     C_3   0.702798 0.224273 0.817769 -0.472805
H45   H     H_    0.692109 0.322549 0.807303 0.185656
H46   H     H_    0.687265 0.172251 0.769345 0.136906
H47   H     H_    0.758214 0.209736 0.832985 0.170007
O54   O     O_3   0.388606 0.135426 0.986177 -0.563330
C104  C     C_3   0.360410 0.186204 0.043652 0.008513
H48   H     H_    0.304574 0.176498 0.032335 0.162398
H49   H     H_    0.371038 0.285637 0.049070 0.122667
C105  C     C_3   0.381038 0.120852 0.112989 -0.249103
H50   H     H_    0.375286 0.020411 0.106955 0.220251
H51   H     H_    0.434497 0.140722 0.131662 0.212353
C106  C     C_3   0.338685 0.165693 0.168653 -0.479752
H52   H     H_    0.347962 0.264777 0.178849 0.155390
H53   H     H_    0.353521 0.114313 0.217415 0.160651
H54   H     H_    0.283506 0.151148 0.152326 0.144108
O55   O     O_3   0.160599 0.636963 0.018878 -0.554683
C107  C     C_3   0.194619 0.690543 0.966319 0.024963
H55   H     H_    0.250161 0.683287 0.983479 0.163761
H56   H     H_    0.182189 0.788782 0.960831 0.129287
C108  C     C_3   0.178862 0.629598 0.894834 -0.278432
H57   H     H_    0.177669 0.529523 0.900428 0.214275
H58   H     H_    0.128284 0.659888 0.869648 0.133451
C109  C     C_3   0.231514 0.662356 0.846790 -0.459302
H59   H     H_    0.229359 0.761908 0.835537 0.173055
H60   H     H_    0.220119 0.611820 0.797180 0.158282
H61   H     H_    0.283608 0.636907 0.870517 0.163408
O56   O     O_3   0.885057 0.675114 0.971480 -0.547774
C110  C     C_3   0.855103 0.736036 0.024776 0.012266
H62   H     H_    0.799351 0.728512 0.010481 0.160842
H63   H     H_    0.868086 0.835074 0.026007 0.125836
C111  C     C_3   0.870845 0.679144 0.097571 -0.283781
H64   H     H_    0.865391 0.578672 0.095051 0.209853
H65   H     H_    0.923429 0.700407 0.119919 0.181386
C112  C     C_3   0.823679 0.728927 0.147443 -0.464820
H66   H     H_    0.831639 0.828973 0.154631 0.173329
H67   H     H_    0.835409 0.683438 0.198543 0.158872
H68   H     H_    0.769562 0.710613 0.127608 0.156243
O57   O     O_3   0.479834 0.957185 0.052871 -0.571540
C113  C     C_3   0.527192 0.863826 0.074203 0.014702
H69   H     H_    0.547863 0.878570 0.128735 0.197120
H70   H     H_    0.570005 0.857780 0.042664 0.183869
C114  C     C_3   0.489867 0.741044 0.071575 -0.286019
H71   H     H_    0.452021 0.742398 0.109420 0.176560
H72   H     H_    0.461620 0.726326 0.019343 0.169924
C115  C     C_3   0.539415 0.634864 0.088993 -0.469605
H73   H     H_    0.575545 0.627686 0.049696 0.149091
H74   H     H_    0.510530 0.547969 0.089364 0.157389
H75   H     H_    0.568532 0.648249 0.140970 0.162272
O58   O     O_3   0.589804 0.968632 0.943585 -0.598295
C116  C     C_3   0.563437 0.917625 0.879472 -0.010244
H76   H     H_    0.604749 0.861261 0.861719 0.167326
H77   H     H_    0.552515 0.987804 0.838711 0.136953
C117  C     C_3   0.503724 0.831469 0.886704 -0.246365
H78   H     H_    0.521088 0.759235 0.924962 0.152506
H79   H     H_    0.461048 0.882628 0.905615 0.217906
C118  C     C_3   0.478812 0.769397 0.817975 -0.446474
H80   H     H_    0.463567 0.838778 0.777355 0.182129
H81   H     H_    0.434130 0.710855 0.824282 0.150199
H82   H     H_    0.519711 0.710754 0.801060 0.122937
O59   O     O_3   0.949769 0.468357 0.033189 -0.570351
C119  C     C_3   0.969752 0.391930 0.090271 -0.000554
H83   H     H_    0.927505 0.325693 0.092620 0.151623
H84   H     H_    0.971985 0.441899 0.139685 0.159071
C120  C     C_3   0.033807 0.316847 0.082071 -0.237872
H85   H     H_    0.025886 0.264710 0.032850 0.176450
H86   H     H_    0.077764 0.378712 0.080172 0.232688
C121  C     C_3   0.049598 0.226045 0.141522 -0.451641
H87   H     H_    0.055573 0.274758 0.192030 0.171744
H88   H     H_    0.097711 0.176552 0.135660 0.158393
H89   H     H_    0.007876 0.157937 0.141040 0.134391
O60   O     O_3   0.073882 0.446183 0.952350 -0.581567
C122  C     C_3   0.057414 0.405694 0.883704 -0.001239
H90   H     H_    0.101075 0.349624 0.870752 0.165720
H91   H     H_    0.053161 0.481240 0.845505 0.125174
C123  C     C_3   0.994881 0.322240 0.877526 -0.234152
H92   H     H_    0.005218 0.242801 0.912867 0.148188
H93   H     H_    0.950645 0.372836 0.893403 0.229845
C124  C     C_3   0.977962 0.273647 0.803856 -0.443358
H94   H     H_    0.969799 0.350348 0.766379 0.179524
H95   H     H_    0.930843 0.217646 0.800290 0.147356
H96   H     H_    0.020242 0.215159 0.789797 0.122611

loop_
_geom_bond_atom_site_label_1
_geom_bond_atom_site_label_2
_ccdc_geom_bond_type
C79   O7    A    
C123  C124  S    
C108  H58   S    
C103  H47   S    
C20   H10   S    
Cr11  O39   S    
N4    C100  S    
C121  H87   S    
Cr9   O37   S    
Cr7   O51   S    
Cr10  O34   S    
C15   N3    S    
C118  H80   S    
C26   H18   S    
N3    C99   S    
C9    C13   S    
C113  H70   S    
C55   C74   S    
C11   C15   S    
C12   C16   S    
C6    C94   S    
C122  H91   S    
C75   O47   A    
C99   H34   S    
C41   C49   S    
C22   H14   S    
C102  H44   S    
C25   C29   S    
C109  H60   S    
Cr1   O41   S    
C27   C31   S    
C51   C52   S    
Cr6   O50   S    
C28   C32   S    
Cr5   O5    S    
C17   C21   S    
Cr8   O8    S    
C19   C23   S    
C66   C82   S    
C73   O49   A    
C106  H52   S    
C74   O46   A    
C16   C20   S    
C107  H56   S    
C48   C87   S    
C5    C25   S    
C117  H79   S    
C8    C28   S    
Cr11  O11   S    
C72   O40   A    
Cr12  O12   S    
Cr2   O18   S    
C56   C73   S    
C9    C69   S    
Cr8   O32   S    
C85   C90   T    
C57   C61   S    
C48   O32   A    
C124  H96   S    
C59   C63   S    
C60   C64   S    
Cr8   O20   S    
C8    H4    S    
C30   C94   S    
C37   C50   S    
C9    C21   S    
C11   C23   S    
C107  C108  S    
C77   O9    A    
C98   H30   S    
C70   O2    A    
C96   H8    S    
Cr12  O16   S    
C29   C93   S    
Cr2   O22   S    
C67   C83   S    
Cr10  O18   S    
Cr1   O1    S    
Cr6   O26   S    
Cr4   O20   S    
C112  H66   S    
C104  H48   S    
C33   C42   S    
C103  H46   S    
C36   H24   S    
C52   O60   S    
O57   C113  S    
N1    C97   S    
C49   O57   S    
C114  H71   S    
C45   O29   A    
C59   C67   T    
C53   C61   T    
C79   O11   A    
C7    H3    S    
O58   C116  S    
C80   O12   A    
C55   C63   T    
C99   H36   S    
C56   C64   T    
Cr2   O46   S    
Cr11  O19   S    
C44   C52   S    
C120  H86   S    
Cr12  O36   S    
C2    O22   A    
C3    O27   A    
Cr10  O38   S    
O54   C104  S    
C100  H39   S    
C16   C96   S    
C82   O42   A    
C10   C14   S    
C91   C92   S    
C23   H15   S    
C113  C114  S    
C81   O41   A    
C5    C9    S    
C124  H94   S    
C88   C91   T    
C8    C12   S    
C110  C111  S    
O53   C101  S    
C69   O37   A    
C116  H77   S    
C60   C68   T    
C42   C50   S    
C106  H53   S    
C26   C30   S    
C101  H42   S    
Cr12  O40   S    
C108  C109  S    
C71   O39   A    
Cr4   O48   S    
Cr5   O49   S    
C20   C32   S    
C21   C25   S    
C111  H64   S    
C112  H68   S    
C18   C22   S    
C24   C28   S    
C115  H73   S    
C74   O50   A    
C101  C102  S    
C12   C24   S    
C121  H88   S    
C51   O59   S    
C114  C115  S    
C45   C86   S    
C6    C26   S    
C37   C41   S    
N3    H33   S    
C54   C75   S    
C40   C44   S    
Cr3   O43   S    
C119  H83   S    
C121  H89   S    
C49   C50   S    
Cr1   O17   S    
Cr4   O4    S    
C111  C112  S    
C58   C62   S    
C118  H82   S    
C17   C29   S    
C35   C36   S    
C19   C31   S    
C105  H50   S    
C38   C49   S    
C50   O58   S    
C102  H43   S    
C10   C22   S    
C15   C19   S    
C109  H61   S    
C77   O5    A    
C104  C105  S    
C78   O10   A    
C15   C95   S    
C41   C77   S    
C11   C71   S    
C110  H62   S    
C7    C27   S    
C123  H92   S    
C25   H17   S    
C97   H28   S    
Cr12  O20   S    
C27   H19   S    
Cr3   O23   S    
Cr4   O44   S    
C108  H57   S    
Cr10  O10   S    
Cr1   O21   S    
C4    C29   S    
Cr7   O19   S    
C46   C85   S    
C47   O31   A    
Cr4   O24   S    
C12   C72   S    
Cr5   O25   S    
C87   C92   T    
C34   C41   S    
Cr8   O28   S    
C115  H75   S    
C82   O14   A    
Cr11  O35   S    
C84   O16   A    
C68   C84   S    
C44   C80   S    
C13   N1    S    
C54   C62   T    
C80   O8    A    
C33   C37   S    
N2    H29   S    
C13   C93   S    
C35   C39   S    
N2    C98   S    
Cr3   O47   S    
C113  H69   S    
Cr11  O15   S    
Cr1   O45   S    
C122  H90   S    
C119  C120  S    
C2    O26   A    
Cr9   O13   S    
C3    O23   A    
O56   C110  S    
C122  C123  S    
Cr3   O3    S    
C93   H5    S    
C1    O21   A    
Cr6   O18   S    
C10   C70   S    
C4    O24   A    
C53   C76   S    
C40   C51   S    
C105  C106  S    
C35   H23   S    
C7    C95   S    
C102  C103  S    
C33   H21   S    
C109  H59   S    
C46   O34   A    
C57   C65   T    
C76   O48   A    
C86   C89   T    
C6    C10   S    
C13   C17   S    
C70   O38   A    
C120  H85   S    
C97   H26   S    
C98   H32   S    
Cr9   O9    S    
C43   C51   S    
N1    H25   S    
C5    H1    S    
C31   C95   S    
Cr5   O29   S    
C107  H55   S    
Cr9   O33   S    
C17   H11   S    
C117  H78   S    
C19   H9    S    
C104  H49   S    
C22   C26   S    
C99   H35   S    
C36   C43   S    
C89   C90   S    
C84   O44   A    
C45   O33   A    
C14   C94   S    
C28   H20   S    
N4    H37   S    
C83   O43   A    
C14   C18   S    
C8    C96   S    
C75   O51   A    
C94   H6    S    
C100  H38   S    
C7    C11   S    
C38   C42   S    
C71   O3    A    
O60   C122  S    
Cr2   O42   S    
C72   O4    A    
C43   C79   S    
C24   H16   S    
Cr6   O6    S    
C120  C121  S    
C65   C81   S    
C58   C66   T    
C20   C24   S    
C95   H7    S    
C110  H63   S    
C18   C30   S    
C23   C27   S    
C16   N4    S    
C116  H76   S    
Cr6   O30   S    
C73   O45   A    
C39   C52   S    
C6    H2    S    
C78   O6    A    
C111  H65   S    
C112  H67   S    
C38   O54   S    
C36   C40   S    
C103  H45   S    
C115  H74   S    
C39   C43   S    
C98   H31   S    
Cr3   O19   S    
C1    C32   S    
C2    C31   S    
C114  H72   S    
C3    C30   S    
C39   O55   S    
Cr7   O7    S    
C47   O35   A    
C48   O36   A    
C117  C118  S    
C33   C34   S    
C35   C44   S    
C37   O53   S    
C83   O15   A    
C14   N2    S    
C32   C96   S    
O59   C119  S    
C119  H84   S    
C42   C78   S    
C81   O13   A    
C18   H12   S    
C100  H40   S    
C118  H81   S    
C69   O1    A    
Cr8   O52   S    
C34   C38   S    
C105  H51   S    
C5    C93   S    
Cr9   O17   S    
Cr2   O2    S    
Cr7   O31   S    
Cr10  O14   S    
C47   C88   S    
C1    O25   A    
C124  H95   S    
Cr7   O27   S    
C4    O28   A    
Cr5   O17   S    
C123  H93   S    
C21   H13   S    
C116  C117  S    
C97   H27   S    
C106  H54   S    
C34   H22   S    
C101  H41   S    
C46   O30   A    
O55   C107  S    
C76   O52   A    
C40   O56   S    
