data_mof_unit_44725.cif
_audit_creation_date              2013-03-05T15:50:13-0500
_audit_creation_method            fapswitch 2.2
_symmetry_space_group_name_H-M    P1
_symmetry_Int_Tables_number       1
_space_group_crystal_system       triclinic
_cell_length_a                    18.466202
_cell_length_b                    25.799462
_cell_length_c                    18.364698
_cell_angle_alpha                 90.281144
_cell_angle_beta                  89.995762
_cell_angle_gamma                 89.964542
_cell_volume                      8749.16707017

loop_
_atom_site_label
_atom_site_type_symbol
_atom_site_description
_atom_site_fract_x
_atom_site_fract_y
_atom_site_fract_z
_atom_type_partial_charge
Zn1   Zn    Zn3+2 0.249990 0.293780 0.913250 1.085396
Zn2   Zn    Zn3+2 0.249990 0.706220 0.086750 1.130037
Zn3   Zn    Zn3+2 0.249990 0.706220 0.913250 1.115930
Zn4   Zn    Zn3+2 0.249990 0.293780 0.086750 1.086330
Zn5   Zn    Zn3+2 0.749990 0.793780 0.413250 1.128043
Zn6   Zn    Zn3+2 0.749990 0.206220 0.586750 1.106483
Zn7   Zn    Zn3+2 0.749990 0.206220 0.413250 1.090103
Zn8   Zn    Zn3+2 0.749990 0.793780 0.586750 1.122598
Zn9   Zn    Zn3+2 0.336760 0.206240 0.000000 1.052925
Zn10  Zn    Zn3+2 0.336760 0.793760 0.000000 1.083293
Zn11  Zn    Zn3+2 0.836760 0.706240 0.500000 1.091534
Zn12  Zn    Zn3+2 0.836760 0.293760 0.500000 1.044051
Zn13  Zn    Zn3+2 0.163250 0.206230 0.000000 1.069014
Zn14  Zn    Zn3+2 0.163250 0.793770 0.000000 1.089975
Zn15  Zn    Zn3+2 0.663250 0.706230 0.500000 1.076922
Zn16  Zn    Zn3+2 0.663250 0.293770 0.500000 1.089975
O1    O     O_3   0.249990 0.250010 0.000000 -0.549818
O2    O     O_3   0.249990 0.749990 0.000000 -0.548412
O3    O     O_3   0.749990 0.750010 0.500000 -0.547066
O4    O     O_3   0.749990 0.249990 0.500000 -0.554138
O5    O     O_R   0.335430 0.280650 0.146160 -0.598447
O6    O     O_R   0.335430 0.719350 0.853840 -0.590303
O7    O     O_R   0.335430 0.719350 0.146160 -0.564749
O8    O     O_R   0.335430 0.280650 0.853840 -0.606695
O9    O     O_R   0.835430 0.780650 0.646160 -0.591415
O10   O     O_R   0.835430 0.219350 0.353840 -0.595306
O11   O     O_R   0.835430 0.219350 0.646160 -0.605121
O12   O     O_R   0.835430 0.780650 0.353840 -0.578085
O13   O     O_R   0.164550 0.280640 0.853840 -0.610193
O14   O     O_R   0.164550 0.719360 0.146160 -0.591155
O15   O     O_R   0.164550 0.719360 0.853840 -0.609241
O16   O     O_R   0.164550 0.280640 0.146160 -0.601536
O17   O     O_R   0.664550 0.780640 0.353840 -0.584156
O18   O     O_R   0.664550 0.219360 0.646160 -0.585565
O19   O     O_R   0.664550 0.219360 0.353840 -0.600209
O20   O     O_R   0.664550 0.780640 0.646160 -0.576826
O21   O     O_R   0.396160 0.219380 0.914560 -0.592047
O22   O     O_R   0.396160 0.780620 0.085440 -0.612246
O23   O     O_R   0.396160 0.780620 0.914560 -0.621446
O24   O     O_R   0.396160 0.219380 0.085440 -0.607067
O25   O     O_R   0.896160 0.719380 0.414560 -0.604082
O26   O     O_R   0.896160 0.280620 0.585440 -0.598287
O27   O     O_R   0.896160 0.280620 0.414560 -0.599423
O28   O     O_R   0.896160 0.719380 0.585440 -0.625211
O29   O     O_R   0.103840 0.219370 0.085450 -0.656510
O30   O     O_R   0.103840 0.780630 0.914550 -0.625347
O31   O     O_R   0.103840 0.780630 0.085450 -0.601741
O32   O     O_R   0.103840 0.219370 0.914550 -0.592889
O33   O     O_R   0.603840 0.719370 0.585450 -0.638941
O34   O     O_R   0.603840 0.280630 0.414550 -0.621891
O35   O     O_R   0.603840 0.280630 0.585450 -0.593509
O36   O     O_R   0.603840 0.719370 0.414550 -0.614710
O37   O     O_R   0.310730 0.133160 0.000000 -0.613654
O38   O     O_R   0.310730 0.866840 0.000000 -0.591568
O39   O     O_R   0.810730 0.633160 0.500000 -0.593728
O40   O     O_R   0.810730 0.366840 0.500000 -0.615731
O41   O     O_R   0.249970 0.366860 0.060720 -0.573751
O42   O     O_R   0.249970 0.633140 0.939280 -0.566342
O43   O     O_R   0.249970 0.633140 0.060720 -0.647340
O44   O     O_R   0.249970 0.366860 0.939280 -0.628315
O45   O     O_R   0.749970 0.866860 0.560720 -0.586530
O46   O     O_R   0.749970 0.133140 0.439280 -0.587848
O47   O     O_R   0.749970 0.133140 0.560720 -0.611514
O48   O     O_R   0.749970 0.866860 0.439280 -0.638942
O49   O     O_R   0.189290 0.133150 0.000000 -0.623484
O50   O     O_R   0.189290 0.866850 0.000000 -0.644840
O51   O     O_R   0.689290 0.633150 0.500000 -0.646105
O52   O     O_R   0.689290 0.366850 0.500000 -0.625792
C1    C     C_R   0.389846 0.249906 0.140235 0.921854
C2    C     C_R   0.389362 0.750387 0.859630 0.936969
C3    C     C_R   0.389594 0.750319 0.140301 1.056510
C4    C     C_R   0.391448 0.251495 0.861016 0.856787
C5    C     C_R   0.889487 0.749900 0.640203 0.956316
C6    C     C_R   0.889985 0.250066 0.359809 0.850666
C7    C     C_R   0.890597 0.249156 0.639640 0.856483
C8    C     C_R   0.889336 0.749303 0.359471 1.062156
C9    C     C_R   0.110536 0.249851 0.859428 0.852759
C10   C     C_R   0.110395 0.750100 0.140091 0.921914
C11   C     C_R   0.109380 0.749491 0.859982 0.821255
C12   C     C_R   0.110417 0.249625 0.140597 0.884770
C13   C     C_R   0.610551 0.749841 0.359814 0.915171
C14   C     C_R   0.610216 0.249816 0.640033 0.936926
C15   C     C_R   0.609672 0.249910 0.360036 0.833870
C16   C     C_R   0.609049 0.750977 0.639634 0.864474
C17   C     C_R   0.249923 0.108811 0.000975 0.905114
C18   C     C_R   0.250335 0.890360 0.009608 0.889904
C19   C     C_R   0.750544 0.609546 0.490941 0.888819
C20   C     C_R   0.749773 0.391101 0.499045 0.909059
C21   C     C_R   0.247946 0.391143 0.000130 0.984840
C22   C     C_R   0.248096 0.608849 0.999942 1.011368
C23   C     C_R   0.748104 0.891182 0.499892 0.980630
C24   C     C_R   0.747590 0.108889 0.499751 0.944630
C25   C     C_3   0.213609 0.470606 0.073029 0.285013
C26   C     C_3   0.211180 0.529433 0.928641 0.284844
C27   C     C_3   0.205191 0.530447 0.068924 0.100917
C28   C     C_3   0.202237 0.469716 0.933294 0.122583
C29   C     C_3   0.708732 0.970841 0.569772 0.267307
C30   C     C_3   0.713805 0.029325 0.425523 0.264166
C31   C     C_3   0.698702 0.030461 0.564266 0.183290
C32   C     C_3   0.704955 0.969377 0.429698 0.179097
H1    H     H_    0.253070 0.462701 0.117369 0.189313
H2    H     H_    0.249166 0.536935 0.882956 0.204264
H3    H     H_    0.229270 0.546787 0.119780 0.150848
H4    H     H_    0.223505 0.452952 0.881463 0.198864
H5    H     H_    0.745219 0.964306 0.616670 0.191884
H6    H     H_    0.753479 0.036630 0.381529 0.175121
H7    H     H_    0.717927 0.047546 0.616584 0.229968
H8    H     H_    0.729912 0.953061 0.379123 0.191254
H9    H     H_    0.129630 0.907376 0.094315 0.236191
H10   H     H_    0.149152 0.097282 0.104570 0.161974
H11   H     H_    0.647358 0.402874 0.396447 0.184510
H12   H     H_    0.633048 0.592979 0.403892 0.214074
C33   C     C_3   0.327707 0.469045 0.995158 0.538100
C34   C     C_3   0.327932 0.530694 0.002410 0.533737
C35   C     C_3   0.827112 0.970143 0.493942 0.565510
C36   C     C_3   0.826191 0.030559 0.509754 0.572805
C37   C     C_3   0.247017 0.448857 0.000190 -0.312947
C38   C     C_3   0.247231 0.551134 0.000172 -0.301627
C39   C     C_3   0.746569 0.948922 0.498955 -0.333553
C40   C     C_3   0.745978 0.051220 0.499218 -0.338946
C41   C     C_R   0.094297 0.333724 0.744193 0.407658
C42   C     C_R   0.999220 0.670677 0.138468 0.314160
C43   C     C_R   0.108801 0.676624 0.727354 0.396105
C44   C     C_R   0.134297 0.289998 0.294751 0.393519
C45   C     C_R   0.502642 0.831863 0.357992 0.319775
C46   C     C_R   0.583992 0.162212 0.742056 0.380419
C47   C     C_R   0.630599 0.205899 0.207565 0.412980
C48   C     C_R   0.608542 0.824690 0.769877 0.398292
C49   C     C_R   0.116076 0.354721 0.676848 0.317560
C50   C     C_R   0.954266 0.627153 0.144642 0.302649
C51   C     C_R   0.092569 0.627253 0.698462 0.299420
C52   C     C_R   0.136169 0.328452 0.350335 0.214776
C53   C     C_R   0.458067 0.875463 0.350762 0.303951
C54   C     C_R   0.607303 0.136210 0.805316 0.244321
C55   C     C_R   0.631129 0.164077 0.157643 0.309580
C56   C     C_R   0.592881 0.874725 0.797385 0.190909
C57   C     C_R   0.410177 0.877961 0.292984 -0.323737
C58   C     C_R   0.588109 0.156837 0.873431 -0.277495
C59   C     C_R   0.565468 0.140167 0.139280 -0.402412
C60   C     C_R   0.521758 0.886485 0.817936 -0.291837
C61   C     C_R   0.094791 0.329561 0.612421 -0.362035
C62   C     C_R   0.908041 0.623471 0.203756 -0.321670
C63   C     C_R   0.020272 0.614578 0.683791 -0.346333
C64   C     C_R   0.071737 0.353508 0.369812 -0.370588
C65   C     C_R   0.403647 0.837295 0.242590 0.442722
C66   C     C_R   0.538862 0.198422 0.878769 0.430023
C67   C     C_R   0.499369 0.163431 0.158759 0.461180
C68   C     C_R   0.468080 0.847827 0.817530 0.436968
C69   C     C_R   0.042467 0.289982 0.614166 0.452180
C70   C     C_R   0.903489 0.662799 0.256420 0.443101
C71   C     C_R   0.966409 0.653091 0.686025 0.441837
C72   C     C_R   0.004791 0.333521 0.346753 0.457238
C73   C     C_R   0.450527 0.792995 0.246660 -0.038314
C74   C     C_R   0.512108 0.221131 0.813765 -0.026046
C75   C     C_R   0.500712 0.211050 0.197597 -0.005776
C76   C     C_R   0.485875 0.797527 0.791077 -0.044311
C77   C     C_R   0.014639 0.274104 0.682499 0.017782
C78   C     C_R   0.949919 0.707299 0.252505 -0.039109
C79   C     C_R   0.985344 0.703642 0.710069 -0.007710
C80   C     C_R   0.003995 0.286942 0.305464 -0.015690
C81   C     C_R   0.055191 0.286222 0.744488 -0.189885
C82   C     C_R   0.001231 0.709704 0.194922 -0.111404
C83   C     C_R   0.050720 0.710194 0.747515 -0.171677
C84   C     C_R   0.066132 0.274930 0.265292 -0.067487
C85   C     C_R   0.502785 0.791396 0.303517 -0.108143
C86   C     C_R   0.550341 0.210997 0.749587 -0.071022
C87   C     C_R   0.563145 0.222816 0.237173 -0.179043
C88   C     C_R   0.550313 0.791297 0.751570 -0.060009
C89   C     C_R   0.446096 0.750288 0.196412 -0.060028
C90   C     C_R   0.451437 0.255169 0.807957 -0.064465
C91   C     C_R   0.445834 0.249764 0.196656 -0.046262
C92   C     C_R   0.443415 0.752297 0.801862 -0.041107
C93   C     C_R   0.948940 0.246430 0.694050 -0.065221
C94   C     C_R   0.946404 0.749240 0.303991 -0.061466
C95   C     C_R   0.943871 0.748968 0.697562 -0.038283
C96   C     C_R   0.947161 0.249496 0.304387 -0.063615
C97   C     C_R   0.496605 0.708111 0.198693 -0.051536
C98   C     C_R   0.452461 0.292756 0.750494 -0.162457
C99   C     C_R   0.447360 0.289097 0.251076 -0.070999
C100  C     C_R   0.452707 0.709600 0.754086 -0.068954
C101  C     C_R   0.942954 0.215931 0.758838 -0.172051
C102  C     C_R   0.998885 0.790127 0.304198 -0.049325
C103  C     C_R   0.956073 0.793231 0.741866 -0.069632
C104  C     C_R   0.948317 0.210527 0.249262 -0.158636
C105  C     C_R   0.007361 0.206368 0.796118 -0.115916
C106  C     C_R   0.056451 0.787853 0.253035 -0.175873
C107  C     C_R   0.994248 0.785675 0.806372 -0.161990
C108  C     C_R   0.988450 0.221470 0.186969 -0.177076
C109  C     C_R   0.554703 0.710827 0.249121 -0.186124
C110  C     C_R   0.517474 0.298066 0.711958 -0.149827
C111  C     C_R   0.486929 0.278627 0.314026 -0.108540
C112  C     C_R   0.490676 0.718418 0.689895 -0.193852
C113  C     C_R   0.057326 0.247965 0.800160 -0.026910
C114  C     C_R   0.054636 0.749568 0.196547 -0.024209
C115  C     C_R   0.051596 0.748354 0.804437 -0.039294
C116  C     C_R   0.054843 0.248857 0.197620 -0.016603
C117  C     C_R   0.554878 0.750617 0.303345 -0.019394
C118  C     C_R   0.557791 0.252283 0.699600 -0.004692
C119  C     C_R   0.553003 0.250294 0.303950 -0.038698
C120  C     C_R   0.550292 0.753567 0.694098 -0.016104
C121  C     C_R   0.492556 0.664043 0.150301 0.316991
C122  C     C_R   0.395992 0.327807 0.731935 0.399421
C123  C     C_R   0.413101 0.337999 0.245978 0.315905
C124  C     C_R   0.424461 0.659483 0.765594 0.369743
C125  C     C_R   0.879065 0.193169 0.788210 0.391490
C126  C     C_R   0.996578 0.832692 0.355275 0.314906
C127  C     C_R   0.934335 0.844349 0.724846 0.355928
C128  C     C_R   0.911883 0.161990 0.251896 0.396199
C129  C     C_R   0.542925 0.622988 0.156647 0.138431
C130  C     C_R   0.414031 0.376367 0.702808 0.137834
C131  C     C_R   0.394600 0.364855 0.310733 0.158203
C132  C     C_R   0.408710 0.627724 0.704561 0.075554
C133  C     C_R   0.885370 0.149518 0.833944 0.190443
C134  C     C_R   0.051601 0.870819 0.355486 0.114967
C135  C     C_R   0.930457 0.881939 0.781371 0.068362
C136  C     C_R   0.895905 0.135690 0.186461 0.202182
C137  C     C_R   0.954814 0.129608 0.851092 0.307354
C138  C     C_R   0.111424 0.865494 0.309098 0.349372
C139  C     C_R   0.944048 0.866476 0.853927 0.292208
C140  C     C_R   0.916159 0.158343 0.119204 0.291166
C141  C     C_R   0.603586 0.628482 0.201862 0.318372
C142  C     C_R   0.487000 0.388057 0.686694 0.281770
C143  C     C_R   0.412372 0.342786 0.378320 0.346690
C144  C     C_R   0.423892 0.646847 0.633918 0.305678
C145  C     C_R   0.016721 0.157418 0.829609 0.289077
C146  C     C_R   0.114762 0.824082 0.260120 0.246574
C147  C     C_R   0.974587 0.817274 0.866784 0.277805
C148  C     C_R   0.961495 0.202455 0.119412 0.278582
C149  C     C_R   0.611522 0.673259 0.243948 0.213056
C150  C     C_R   0.539057 0.348282 0.689075 0.297141
C151  C     C_R   0.459579 0.299218 0.380782 0.184433
C152  C     C_R   0.465872 0.692239 0.626367 0.281753
H13   H     H_    0.375025 0.911450 0.288756 0.217951
H14   H     H_    0.612079 0.141071 0.922287 0.243376
H15   H     H_    0.565488 0.105274 0.106260 0.239641
H16   H     H_    0.508347 0.925479 0.835363 0.229312
H17   H     H_    0.115838 0.342467 0.560545 0.230947
H18   H     H_    0.872907 0.589992 0.207704 0.218197
H19   H     H_    0.006639 0.575819 0.665622 0.229097
H20   H     H_    0.073235 0.386576 0.406352 0.235701
C153  C     C_R   0.369680 0.041713 0.945936 0.355792
C154  C     C_R   0.387374 0.953929 0.034016 0.356714
C155  C     C_R   0.888775 0.544907 0.474044 0.356740
C156  C     C_R   0.865633 0.457314 0.561139 0.359700
C157  C     C_R   0.439361 0.019402 0.955087 0.075497
C158  C     C_R   0.448759 0.978533 0.004612 0.076769
C159  C     C_R   0.948524 0.519608 0.506283 0.065760
C160  C     C_R   0.936071 0.478921 0.555586 0.076451
C161  C     C_R   0.317713 0.973264 0.017131 -0.096203
C162  C     C_R   0.311545 0.022994 0.988958 -0.086820
C163  C     C_R   0.809968 0.476565 0.515297 -0.079769
C164  C     C_R   0.817908 0.526214 0.487464 -0.101864
C165  C     C_R   0.252920 0.945716 0.029172 -0.038830
C166  C     C_R   0.249891 0.052479 0.010438 -0.026421
C167  C     C_R   0.749310 0.447391 0.490893 -0.019976
C168  C     C_R   0.753741 0.554090 0.472178 -0.036709
C169  C     C_R   0.192016 0.973490 0.055038 -0.026558
C170  C     C_R   0.194245 0.028146 0.052657 0.030432
C171  C     C_R   0.694653 0.471966 0.447664 -0.025333
C172  C     C_R   0.693215 0.526588 0.444812 0.027717
C173  C     C_R   0.133529 0.948854 0.090477 -0.166617
C174  C     C_R   0.143453 0.056229 0.095305 -0.280860
C175  C     C_R   0.643451 0.444108 0.405198 -0.217403
C176  C     C_R   0.635547 0.551519 0.408210 -0.250307
C177  C     C_R   0.080851 0.977071 0.127968 0.516035
C178  C     C_R   0.086829 0.031327 0.132400 0.423410
C179  C     C_R   0.587534 0.468899 0.367959 0.517486
C180  C     C_R   0.582053 0.523198 0.371014 0.427723
O53   O     O_3   0.438703 0.661022 0.098078 -0.751551
H21   H     H_    0.449729 0.634074 0.061294 0.398077
O54   O     O_3   0.324402 0.312823 0.727634 -0.662422
H22   H     H_    0.323063 0.274486 0.722985 0.347128
O55   O     O_3   0.406502 0.360749 0.178275 -0.682985
H23   H     H_    0.401764 0.398746 0.184246 0.388638
O56   O     O_3   0.419696 0.641243 0.836012 -0.698572
H24   H     H_    0.424958 0.603083 0.835036 0.385829
O57   O     O_3   0.811615 0.215602 0.780989 -0.651878
H25   H     H_    0.818538 0.252990 0.770733 0.347331
O58   O     O_3   0.940967 0.836406 0.405422 -0.750301
H26   H     H_    0.933627 0.872821 0.420579 0.400165
O59   O     O_3   0.926267 0.857724 0.652665 -0.701344
H27   H     H_    0.939601 0.894619 0.647295 0.388683
O60   O     O_3   0.900865 0.135950 0.316506 -0.671507
H28   H     H_    0.933971 0.150522 0.353858 0.339067
N1    N     N_R   0.821320 0.124583 0.860545 0.258720
O61   O     O_R   0.770885 0.151556 0.892566 -0.281588
O62   O     O_R   0.813578 0.074681 0.853488 -0.246004
N2    N     N_R   0.048409 0.913680 0.405575 0.192003
O63   O     O_R   0.048875 0.905547 0.475452 -0.314408
O64   O     O_R   0.048342 0.960997 0.381353 -0.335242
N3    N     N_R   0.909223 0.934283 0.765972 0.214826
O65   O     O_R   0.947282 0.972928 0.790862 -0.285274
O66   O     O_R   0.849946 0.943532 0.730130 -0.318890
N4    N     N_R   0.859556 0.086378 0.188840 0.267818
O67   O     O_R   0.880929 0.048262 0.147419 -0.305099
O68   O     O_R   0.808288 0.078187 0.236032 -0.276476
N5    N     N_R   0.532830 0.575960 0.116064 0.213622
O69   O     O_R   0.557161 0.572290 0.049755 -0.360649
O70   O     O_R   0.508853 0.534783 0.148752 -0.322151
N6    N     N_R   0.357887 0.413184 0.688393 0.263904
O71   O     O_R   0.353515 0.435337 0.625049 -0.205832
O72   O     O_R   0.311242 0.424856 0.738918 -0.274637
N7    N     N_R   0.350868 0.411000 0.308284 0.248033
O73   O     O_R   0.361573 0.448498 0.354689 -0.213822
O74   O     O_R   0.296477 0.414013 0.263412 -0.348306
N8    N     N_R   0.373495 0.578499 0.713906 0.230655
O75   O     O_R   0.391015 0.539286 0.672860 -0.310728
O76   O     O_R   0.322621 0.572873 0.762272 -0.290289
N9    N     N_R   0.087795 0.134188 0.834444 0.249746
O77   O     O_R   0.101519 0.097616 0.880984 -0.269236
O78   O     O_R   0.137910 0.146841 0.787961 -0.385318
N10   N     N_R   0.182617 0.816291 0.224360 0.216361
O79   O     O_R   0.200913 0.846045 0.170578 -0.434405
O80   O     O_R   0.230466 0.785585 0.253208 -0.345510
N11   N     N_R   0.969439 0.795037 0.938403 0.256676
O81   O     O_R   0.976763 0.823531 0.996617 -0.270429
O82   O     O_R   0.954527 0.746028 0.945457 -0.382422
N12   N     N_R   0.968821 0.232953 0.054120 0.268221
O83   O     O_R   0.965664 0.211505 0.989943 -0.325103
O84   O     O_R   0.974971 0.283128 0.058665 -0.377313
N13   N     N_R   0.681429 0.682246 0.275057 0.223157
O85   O     O_R   0.704261 0.653389 0.328059 -0.432718
O86   O     O_R   0.725765 0.714417 0.243886 -0.345509
N14   N     N_R   0.614677 0.360981 0.680783 0.234259
O87   O     O_R   0.635054 0.397647 0.636955 -0.279068
O88   O     O_R   0.662774 0.339785 0.723068 -0.398216
N15   N     N_R   0.469866 0.271735 0.448044 0.229000
O89   O     O_R   0.479889 0.296765 0.508882 -0.357497
O90   O     O_R   0.471843 0.221304 0.448203 -0.357187
N16   N     N_R   0.467276 0.718102 0.557128 0.251720
O91   O     O_R   0.471451 0.691887 0.496545 -0.292896
O92   O     O_R   0.459160 0.768162 0.554512 -0.390680
O93   O     O_3   0.038428 0.059040 0.174750 -0.727931
H29   H     H_    0.050286 0.096472 0.172268 0.325946
O94   O     O_3   0.026791 0.949702 0.162802 -0.700955
H30   H     H_    0.993280 0.974086 0.187415 0.415629
O95   O     O_3   0.526203 0.547814 0.334877 -0.707693
H31   H     H_    0.530112 0.585775 0.342657 0.352862
O96   O     O_3   0.540270 0.438416 0.328199 -0.752080
H32   H     H_    0.505187 0.460687 0.302224 0.403700
O97   O     O_3   0.356110 0.079564 0.894566 -0.702129
H33   H     H_    0.402152 0.094034 0.876292 0.367965
O98   O     O_3   0.393719 0.914766 0.084627 -0.703162
H34   H     H_    0.442445 0.898945 0.081598 0.379596
O99   O     O_3   0.898347 0.583666 0.423318 -0.694404
H35   H     H_    0.946008 0.600355 0.430907 0.378588
O100  O     O_3   0.848966 0.419089 0.611041 -0.696612
H36   H     H_    0.893715 0.404913 0.632717 0.369167
N17   N     N_R   0.501280 0.040714 0.919526 0.223346
O101  O     O_R   0.506824 0.038108 0.848983 -0.368958
O102  O     O_R   0.556388 0.055824 0.958215 -0.315669
N18   N     N_R   0.520118 0.961858 0.024433 0.248696
O103  O     O_R   0.562878 0.941438 0.975943 -0.289794
O104  O     O_R   0.542079 0.966410 0.091474 -0.314370
N19   N     N_R   0.021169 0.534558 0.488092 0.243374
O105  O     O_R   0.066800 0.547778 0.538767 -0.280729
O106  O     O_R   0.042837 0.532724 0.420705 -0.310030
N20   N     N_R   0.995816 0.456539 0.593881 0.225202
O107  O     O_R   0.999074 0.459591 0.664537 -0.336423
O108  O     O_R   0.050345 0.437634 0.557678 -0.322062
O109  O     O_3   0.149820 0.444875 0.094966 -0.658626
H37   H     H_    0.109343 0.454707 0.062739 0.435341
O110  O     O_3   0.146933 0.555466 0.908733 -0.645217
H38   H     H_    0.108072 0.547028 0.943631 0.444521
O111  O     O_3   0.131795 0.545026 0.067936 -0.674682
H39   H     H_    0.128796 0.581403 0.085487 0.377675
O112  O     O_3   0.128720 0.455978 0.937643 -0.672450
H40   H     H_    0.125325 0.418238 0.927903 0.366613
O113  O     O_3   0.644608 0.944312 0.588665 -0.643056
H41   H     H_    0.605956 0.952629 0.553484 0.445395
O114  O     O_3   0.650710 0.055432 0.402281 -0.657957
H42   H     H_    0.608696 0.044258 0.431482 0.438257
O115  O     O_3   0.625187 0.043580 0.557083 -0.703624
H43   H     H_    0.621761 0.081897 0.558800 0.362154
O116  O     O_3   0.631649 0.954746 0.429826 -0.688046
H44   H     H_    0.629100 0.918433 0.412010 0.379879
O117  O     O_3   0.368105 0.446954 0.052307 -0.736528
H45   H     H_    0.419728 0.456028 0.044104 0.410307
O118  O     O_3   0.366454 0.552579 0.943928 -0.742693
H46   H     H_    0.418342 0.543623 0.950696 0.400715
O119  O     O_3   0.362257 0.547870 0.067189 -0.699678
H47   H     H_    0.344235 0.527897 0.109297 0.349227
O120  O     O_3   0.359824 0.451846 0.929204 -0.715097
H48   H     H_    0.339529 0.471393 0.887723 0.352743
O121  O     O_3   0.873987 0.943932 0.542180 -0.713645
H49   H     H_    0.853796 0.945746 0.591788 0.359787
O122  O     O_3   0.876052 0.057271 0.464777 -0.713278
H50   H     H_    0.860279 0.055378 0.413439 0.368103
O123  O     O_3   0.846824 0.040229 0.582600 -0.736002
H51   H     H_    0.900185 0.036001 0.586038 0.414440
O124  O     O_3   0.853078 0.960619 0.422849 -0.770564
H52   H     H_    0.906164 0.966632 0.422956 0.420972
O125  O     O_3   0.963856 0.084868 0.891064 -0.611803
H53   H     H_    0.922075 0.080559 0.924155 0.398875
O126  O     O_3   0.170286 0.898688 0.311985 -0.679986
H54   H     H_    0.168919 0.919602 0.357211 0.387507
O127  O     O_3   0.926126 0.897428 0.912895 -0.630072
H55   H     H_    0.892652 0.925184 0.897218 0.400877
O128  O     O_3   0.892219 0.139065 0.053106 -0.649908
H56   H     H_    0.850850 0.115440 0.060854 0.412613
O129  O     O_3   0.658434 0.591892 0.204586 -0.684629
H57   H     H_    0.648534 0.563106 0.170298 0.387257
O130  O     O_3   0.508938 0.437533 0.668903 -0.635388
H58   H     H_    0.472371 0.462538 0.686642 0.392897
O131  O     O_3   0.381723 0.364143 0.440101 -0.583481
H59   H     H_    0.370399 0.335928 0.474504 0.397062
O132  O     O_3   0.396247 0.623672 0.571918 -0.619695
H60   H     H_    0.352339 0.603757 0.584841 0.412931
O133  O     O_3   0.105516 0.362247 0.806903 -0.679602
H61   H     H_    0.070025 0.350719 0.843999 0.330189
O134  O     O_3   0.040898 0.673768 0.076735 -0.748440
H62   H     H_    0.023559 0.704909 0.050712 0.374424
O135  O     O_3   0.179688 0.693406 0.724764 -0.665019
H63   H     H_    0.179431 0.731850 0.722964 0.337527
O136  O     O_3   0.195874 0.263005 0.274936 -0.719640
H64   H     H_    0.238485 0.285775 0.281963 0.372270
O137  O     O_3   0.546062 0.830369 0.418621 -0.749835
H65   H     H_    0.529370 0.800109 0.446915 0.373518
O138  O     O_3   0.587999 0.139639 0.673942 -0.731693
H66   H     H_    0.587713 0.101522 0.680051 0.378410
O139  O     O_3   0.694421 0.232357 0.220012 -0.674165
H67   H     H_    0.682338 0.268139 0.235831 0.324445
O140  O     O_3   0.677876 0.804557 0.773421 -0.697363
H68   H     H_    0.708444 0.826908 0.804826 0.367868
N21   N     N_R   0.159622 0.400943 0.673136 0.305181
O141  O     O_R   0.194804 0.412073 0.613830 -0.214054
O142  O     O_R   0.160313 0.434179 0.726634 -0.188490
N22   N     N_R   0.954378 0.586397 0.090450 0.261951
O143  O     O_R   0.932364 0.540042 0.107221 -0.316742
O144  O     O_R   0.972416 0.595631 0.023246 -0.269658
N23   N     N_R   0.148768 0.590260 0.682619 0.285877
O145  O     O_R   0.135003 0.540848 0.684528 -0.207035
O146  O     O_R   0.212105 0.605480 0.660331 -0.258731
N24   N     N_R   0.201767 0.341178 0.388471 0.219899
O147  O     O_R   0.211808 0.387960 0.413289 -0.231545
O148  O     O_R   0.243987 0.304253 0.411220 -0.383152
N25   N     N_R   0.459830 0.917318 0.403098 0.261984
O149  O     O_R   0.441577 0.964027 0.383738 -0.315831
O150  O     O_R   0.474670 0.908675 0.471275 -0.270939
N26   N     N_R   0.655789 0.092633 0.800808 0.270346
O151  O     O_R   0.663798 0.061935 0.856138 -0.165211
O152  O     O_R   0.699766 0.087728 0.745839 -0.321488
N27   N     N_R   0.697314 0.146368 0.124541 0.247112
O153  O     O_R   0.750182 0.178605 0.113196 -0.323553
O154  O     O_R   0.701544 0.099923 0.096859 -0.292407
N28   N     N_R   0.647717 0.914219 0.800183 0.237528
O155  O     O_R   0.699762 0.914484 0.752429 -0.296325
O156  O     O_R   0.641092 0.953519 0.844251 -0.206230
O157  O     O_3   0.351379 0.841189 0.189301 -0.694780
H69   H     H_    0.326489 0.875153 0.193032 0.398614
O158  O     O_3   0.526242 0.222122 0.945232 -0.703829
H70   H     H_    0.549247 0.201499 0.984387 0.342682
O159  O     O_3   0.434455 0.138230 0.146409 -0.718834
H71   H     H_    0.443792 0.105539 0.119318 0.347267
O160  O     O_3   0.397158 0.860095 0.834494 -0.741693
H72   H     H_    0.394678 0.896473 0.852082 0.339816
O161  O     O_3   0.024627 0.262883 0.551579 -0.717179
H73   H     H_    0.049390 0.278820 0.509311 0.341787
O162  O     O_3   0.854473 0.656994 0.312447 -0.698355
H74   H     H_    0.831387 0.622355 0.309591 0.395080
O163  O     O_3   0.895042 0.641079 0.670818 -0.740808
H75   H     H_    0.891849 0.604408 0.654642 0.340846
O164  O     O_3   0.941481 0.360971 0.358288 -0.710075
H76   H     H_    0.952352 0.392600 0.387215 0.349050

loop_
_geom_bond_atom_site_label_1
_geom_bond_atom_site_label_2
_geom_bond_distance
_ccdc_geom_bond_type
C52   C64   1.399347 A    
O162  H74   0.991549 S    
C161  C165  1.410013 A    
C31   O115  1.405274 S    
N21   O141  1.301529 A    
C157  N17   1.428425 S    
N3    O65   1.301293 A    
C46   C86   1.409510 A    
C172  C176  1.415315 A    
C91   C99   1.421083 A    
O95   H31   0.991719 S    
N7    O74   1.301762 A    
N25   O149  1.302297 A    
C123  O55   1.382871 S    
C18   C165  1.471756 S    
C53   C57   1.383060 A    
O26   C7    1.291626 A    
C90   C98   1.436819 A    
C153  C157  1.419616 A    
C34   O118  1.408776 S    
C14   C118  1.461854 S    
C171  C175  1.419223 A    
O30   C11   1.285344 A    
C67   O159  1.382262 S    
O54   H22   0.992638 S    
C74   C90   1.427387 A    
C112  C152  1.421206 A    
O161  H73   0.991980 S    
C89   C97   1.433511 A    
C9    C113  1.467062 S    
Zn12  O26   1.945537 S    
C144  O132  1.381408 S    
C78   C94   1.434886 A    
C45   O137  1.372822 S    
C124  O56   1.381152 S    
C75   C87   1.395691 A    
N14   O87   1.300814 A    
C68   O160  1.382354 S    
C129  N5    1.433085 S    
C67   C75   1.417776 A    
C56   C60   1.399193 A    
C29   H5    1.107054 S    
C126  C134  1.414620 A    
C63   C71   1.405931 A    
C157  C158  1.406518 A    
C30   O114  1.412548 S    
C35   O124  1.411209 S    
O11   C7    1.282695 A    
C51   N23   1.438234 S    
O34   C15   1.278336 A    
C12   C116  1.466376 S    
N16   O91   1.301454 A    
O164  H76   0.992135 S    
C63   H19   1.082433 S    
C163  C164  1.389302 A    
C33   O117  1.410076 S    
C4    C90   1.478684 S    
Zn1   O44   1.942806 S    
C25   H1    1.112294 S    
Zn2   O43   1.942807 S    
C179  O96   1.381574 S    
C66   O158  1.382194 S    
O93   H29   0.991628 S    
C71   O163  1.382227 S    
Zn5   O48   1.942806 S    
C110  C150  1.421208 A    
Zn6   O47   1.942807 S    
C5    C95   1.455723 S    
C55   C59   1.401211 A    
C122  O54   1.379757 S    
C86   C118  1.416310 A    
Zn7   O46   1.947354 S    
C6    C96   1.466486 S    
O16   C12   1.284587 A    
C43   C83   1.425899 A    
N7    O73   1.301319 A    
C66   C74   1.420929 A    
Zn16  O4    1.959376 S    
C131  C143  1.406848 A    
N18   O103  1.299543 A    
Zn12  O4    1.960826 S    
Zn1   O13   1.947279 S    
N8    O75   1.299416 A    
C47   C87   1.426408 A    
C26   C28   1.552359 S    
Zn4   O16   1.949011 S    
O41   C21   1.280173 A    
H12   C176  1.073930 S    
C19   C168  1.471164 S    
C28   H4    1.114901 S    
C59   H15   1.082939 S    
O119  H47   0.989125 S    
C169  C173  1.413799 A    
O120  H48   0.989271 S    
C80   C84   1.397904 A    
C51   C63   1.400583 A    
N6    O71   1.301114 A    
C95   C103  1.417063 A    
C109  C117  1.426683 A    
C96   C104  1.423391 A    
N28   O156  1.299881 A    
C25   O109  1.412127 S    
C154  C161  1.414397 A    
C88   C120  1.432285 A    
C131  N7    1.439047 S    
C47   C55   1.412484 A    
C139  O127  1.382431 S    
O116  H44   0.991974 S    
C30   C40   1.580110 S    
O125  H53   0.988763 S    
C65   O157  1.378553 S    
C30   H6    1.107517 S    
Zn10  O22   1.945537 S    
N1    O62   1.301280 A    
O131  H59   0.988668 S    
O25   C8    1.281768 A    
Zn13  O29   1.942974 S    
C133  N1    1.433651 S    
Zn6   O4    1.957275 S    
Zn10  O2    1.960826 S    
Zn12  O40   1.945447 S    
O29   C12   1.281451 A    
Zn15  O33   1.942974 S    
N27   O154  1.301632 A    
O94   H30   0.989805 S    
C99   C111  1.395079 A    
C46   C54   1.411499 A    
C111  C151  1.425986 A    
N13   O85   1.298565 A    
C125  O57   1.379781 S    
O37   C17   1.287150 A    
O48   C23   1.275581 A    
O133  H61   0.992085 S    
O111  H39   0.992340 S    
C138  C146  1.394570 A    
C103  C107  1.393028 A    
N2    O64   1.301327 A    
C141  O129  1.385182 S    
O139  H67   0.991715 S    
C130  C142  1.412623 A    
C103  C127  1.414756 A    
C101  C125  1.425340 A    
O138  H66   0.990340 S    
Zn16  O35   1.945895 S    
C94   C102  1.432897 A    
O129  H57   0.988468 S    
N23   O146  1.300681 A    
O163  H75   0.992031 S    
C161  C162  1.390357 A    
Zn7   O10   1.948968 S    
O33   C16   1.287068 A    
N3    O66   1.299892 A    
C10   C114  1.461278 S    
O40   C20   1.287789 A    
C76   C88   1.402367 A    
C35   C36   1.584183 S    
Zn5   O12   1.946766 S    
C69   O161  1.382337 S    
C11   C115  1.476457 S    
N10   O79   1.298708 A    
C64   H20   1.083195 S    
C169  C170  1.411613 A    
N12   O84   1.301817 A    
O136  H64   0.990323 S    
Zn5   O17   1.947279 S    
C175  C179  1.395206 A    
C112  C120  1.428568 A    
C105  C145  1.417909 A    
C25   C27   1.553754 S    
O57   H25   0.992042 S    
N5    O70   1.300706 A    
C123  C131  1.415127 A    
C170  C174  1.418291 A    
C25   C37   1.573810 S    
C121  C129  1.414423 A    
C178  O93   1.381519 S    
C27   H3    1.115414 S    
C20   C167  1.460703 S    
N9    O78   1.301795 A    
C146  N10   1.428301 S    
C32   H8    1.117192 S    
Zn8   O3    1.948234 S    
C158  N18   1.433485 S    
C28   C37   1.577577 S    
C134  C138  1.401253 A    
C142  O130  1.380184 S    
N15   O90   1.301576 A    
C134  N2    1.436082 S    
C76   C92   1.420933 A    
C36   C40   1.586102 S    
O5    C1    1.284072 A    
C102  C126  1.441338 A    
C71   C79   1.418826 A    
O32   C9    1.290874 A    
C29   C39   1.578459 S    
C45   C85   1.442404 A    
C127  O59   1.379458 S    
C107  C147  1.420562 A    
N23   O145  1.300709 A    
O110  H38   0.987231 S    
Zn15  O51   1.945489 S    
C159  N19   1.435905 S    
Zn11  O28   1.943089 S    
C32   C39   1.578894 S    
C121  O53   1.383600 S    
N20   O108  1.299991 A    
C26   H2    1.111342 S    
C33   C37   1.581600 S    
C49   N21   1.440578 S    
N19   O106  1.301220 A    
C99   C123  1.414536 A    
C35   C39   1.588026 S    
C97   C121  1.441590 A    
C160  N20   1.431267 S    
C44   O136  1.380883 S    
N22   O143  1.301743 A    
O8    C4    1.285779 A    
C128  O60   1.381501 S    
C132  C144  1.418271 A    
C73   C85   1.422578 A    
C106  C114  1.429299 A    
C148  N12   1.443788 S    
C136  C140  1.419264 A    
C21   C37   1.489066 S    
C108  C148  1.421989 A    
O50   C18   1.292137 A    
C179  C180  1.405318 A    
C84   C116  1.425633 A    
Zn1   O1    1.957276 S    
C42   C82   1.442165 A    
Zn13  O1    1.960519 S    
Zn2   O14   1.946808 S    
C8    C94   1.465775 S    
C138  O126  1.385067 S    
C24   C40   1.488119 S    
C64   C72   1.404350 A    
O127  H55   0.989581 S    
C26   C38   1.573433 S    
C58   C66   1.409048 A    
C168  C172  1.415200 A    
C23   C39   1.490094 S    
O39   C19   1.278248 A    
O36   C13   1.285169 A    
C50   C62   1.384640 A    
C130  N6    1.431260 S    
C125  C133  1.412928 A    
O158  H70   0.992024 S    
C165  C169  1.414045 A    
O160  H72   0.992084 S    
O13   C9    1.279906 A    
C142  C150  1.406517 A    
Zn1   O8    1.946766 S    
N14   O88   1.301764 A    
O157  H69   0.991299 S    
C27   O111  1.406488 S    
Zn2   O7    1.947236 S    
C34   O119  1.417279 S    
C87   C119  1.425780 A    
Zn3   O6    1.948968 S    
O18   C14   1.279325 A    
O31   C10   1.284383 A    
C15   C119  1.468434 S    
O6    C2    1.282391 A    
C137  C145  1.407500 A    
C162  C166  1.423523 A    
O135  H63   0.992556 S    
C156  C163  1.419730 A    
O38   C18   1.281109 A    
C129  C141  1.401280 A    
O56   H24   0.989310 S    
C47   O139  1.380828 S    
N24   O147  1.301438 A    
O118  H46   0.993463 S    
Zn14  O30   1.943343 S    
C151  N15   1.439836 S    
Zn15  O3    1.960519 S    
Zn11  O3    1.959684 S    
C17   C166  1.464525 S    
C154  C158  1.408427 A    
N16   O92   1.301215 A    
C143  O131  1.380058 S    
C22   C38   1.489125 S    
C57   C65   1.400858 A    
Zn16  O34   1.943343 S    
C48   C56   1.413634 A    
C13   C117  1.460529 S    
N4    O67   1.301360 A    
C98   C110  1.400697 A    
C49   C61   1.403078 A    
C29   O113  1.412176 S    
O114  H42   0.987084 S    
N26   O151  1.299775 A    
C140  C148  1.413246 A    
C147  N11   1.440671 S    
C102  C106  1.419691 A    
C2    C92   1.457616 S    
C81   C113  1.425105 A    
C143  C151  1.422938 A    
C150  N14   1.442754 S    
N8    O76   1.301485 A    
O58   H26   0.987803 S    
C3    C89   1.466516 S    
C33   O120  1.417738 S    
C92   C100  1.415257 A    
C93   C101  1.433980 A    
N11   O81   1.301559 A    
O53   H21   0.988122 S    
C149  N13   1.430312 S    
Zn8   O9    1.948759 S    
N21   O142  1.300936 A    
C36   O122  1.418157 S    
O15   C11   1.285715 A    
N6    O72   1.300156 A    
N25   O150  1.301991 A    
N17   O101  1.300943 A    
O7    C3    1.285370 A    
C50   N22   1.444241 S    
O100  H36   0.988003 S    
O19   C15   1.288106 A    
O44   C21   1.278982 A    
Zn9   O24   1.943089 S    
Zn6   O18   1.946808 S    
C52   N24   1.436669 S    
Zn10  O23   1.942722 S    
C109  C149  1.430783 A    
C173  C177  1.394407 A    
N1    O61   1.300984 A    
C85   C117  1.425129 A    
C48   O140  1.383040 S    
C72   O164  1.382285 S    
C163  C167  1.421226 A    
O96   H32   0.989780 S    
C83   C115  1.432553 A    
C127  C135  1.418896 A    
Zn15  O36   1.945791 S    
C145  N9    1.445396 S    
O42   C22   1.281380 A    
O45   C23   1.284395 A    
Zn4   O1    1.948234 S    
C155  C159  1.413121 A    
C58   H14   1.081561 S    
Zn9   O37   1.946023 S    
H9    C173  1.075228 S    
O12   C8    1.286660 A    
C77   C81   1.396938 A    
Zn11  O39   1.946023 S    
C110  C118  1.413234 A    
O121  H49   0.985245 S    
C62   H18   1.083291 S    
C70   C78   1.435404 A    
C43   C51   1.409832 A    
O51   C19   1.294640 A    
C154  O98   1.381154 S    
C153  C162  1.419226 A    
C41   C49   1.411230 A    
C100  C124  1.411408 A    
O126  H54   0.988536 S    
Zn5   O3    1.957276 S    
C31   H7    1.113357 S    
C104  C128  1.422936 A    
C62   C70   1.400784 A    
N15   O89   1.301024 A    
C70   O162  1.379108 S    
N10   O80   1.300878 A    
C180  O95   1.382322 S    
Zn8   O20   1.949011 S    
O28   C5    1.280111 A    
C26   O110  1.412002 S    
Zn3   O42   1.947354 S    
C156  C160  1.419320 A    
Zn7   O4    1.948235 S    
O21   C4    1.291863 A    
C141  C149  1.394582 A    
O134  H62   0.989895 S    
C60   H16   1.082764 S    
C74   C86   1.397342 A    
C36   O123  1.412112 S    
C68   C76   1.421747 A    
C139  C147  1.409685 A    
C69   C77   1.418406 A    
O128  H56   0.988319 S    
C77   C93   1.424491 A    
C44   C84   1.423684 A    
C135  N3    1.435450 S    
O98   H34   0.989260 S    
C72   C80   1.417876 A    
N28   O155  1.301067 A    
C7    C93   1.471339 S    
C73   C89   1.436085 A    
N5    O69   1.300957 A    
Zn14  O2    1.959376 S    
O130  H58   0.987740 S    
C153  O97   1.383895 S    
C60   C68   1.406570 A    
O137  H65   0.989321 S    
C61   C69   1.406714 A    
O124  H52   0.992595 S    
C32   O116  1.405558 S    
Zn13  O49   1.945489 S    
N9    O77   1.301035 A    
C16   C120  1.476904 S    
C156  O100  1.384313 S    
C59   C67   1.405341 A    
C53   N25   1.442472 S    
C111  C119  1.433481 A    
Zn12  O27   1.942722 S    
C135  C139  1.415182 A    
C144  C152  1.412197 A    
C35   O121  1.413020 S    
N18   O104  1.301083 A    
C101  C105  1.394830 A    
C166  C170  1.434097 A    
C46   O138  1.379190 S    
Zn3   O2    1.948235 S    
C177  O94   1.381876 S    
C31   C40   1.575668 S    
C33   C34   1.595444 S    
N19   O105  1.299915 A    
C54   N26   1.438858 S    
N13   O86   1.300902 A    
O46   C24   1.278094 A    
O47   C24   1.280711 A    
O132  H60   0.989655 S    
Zn16  O52   1.946066 S    
C177  C178  1.406154 A    
O9    C5    1.279056 A    
Zn8   O45   1.947354 S    
C164  C168  1.414579 A    
C65   C73   1.435584 A    
O27   C6    1.279741 A    
C54   C58   1.402419 A    
C41   C81   1.422865 A    
C128  C136  1.408484 A    
C79   C95   1.417125 A    
C80   C96   1.426976 A    
C124  C132  1.415487 A    
O159  H71   0.992105 S    
C122  C130  1.404890 A    
C29   C31   1.552939 S    
C44   C52   1.420418 A    
N22   O144  1.301465 A    
C137  O125  1.380988 S    
C27   C38   1.577547 S    
C167  C171  1.433586 A    
N11   O82   1.301293 A    
C97   C109  1.418877 A    
O24   C1    1.280063 A    
C100  C112  1.391302 A    
O140  H68   0.990426 S    
C133  C137  1.417156 A    
C155  O99   1.381422 S    
O59   H27   0.988744 S    
C104  C108  1.393188 A    
O43   C22   1.277863 A    
C152  N16   1.439136 S    
Zn4   O41   1.947354 S    
Zn3   O15   1.948802 S    
N12   O83   1.300897 A    
O112  H40   0.991120 S    
C42   O134  1.372886 S    
Zn6   O11   1.947236 S    
C106  C146  1.431806 A    
C176  C180  1.404429 A    
C82   C114  1.425548 A    
Zn9   O21   1.945644 S    
O55   H23   0.989712 S    
Zn14  O50   1.946066 S    
O35   C14   1.287784 A    
H11   C175  1.077475 S    
O117  H45   0.993393 S    
C34   C38   1.581081 S    
C41   O133  1.379356 S    
Zn9   O1    1.959684 S    
C136  N4    1.439649 S    
C98   C122  1.422377 A    
O52   C20   1.280698 A    
C79   C83   1.399342 A    
C57   H13   1.083466 S    
C171  C172  1.410681 A    
O60   H28   0.991673 S    
O113  H41   0.986997 S    
C45   C53   1.400287 A    
C140  O128  1.382288 S    
O22   C3    1.284026 A    
C61   H17   1.082952 S    
C155  C164  1.416945 A    
C107  C115  1.431160 A    
Zn7   O19   1.948802 S    
C105  C113  1.417376 A    
Zn2   O2    1.957275 S    
C174  C178  1.405411 A    
Zn13  O32   1.945791 S    
N24   O148  1.301117 A    
C159  C160  1.408592 A    
O49   C17   1.283561 A    
Zn14  O31   1.945895 S    
O109  H37   0.987224 S    
C30   C32   1.557598 S    
N2    O63   1.301367 A    
N27   O153  1.300368 A    
O115  H43   0.990868 S    
N4    O68   1.301541 A    
Zn4   O5    1.948759 S    
O123  H51   0.993379 S    
O20   C16   1.284717 A    
C55   N27   1.438219 S    
O10   C6    1.286495 A    
O23   C2    1.278343 A    
N26   O152  1.301188 A    
C126  O58   1.382300 S    
Zn11  O25   1.945644 S    
C1    C91   1.463809 S    
N20   O107  1.300975 A    
Zn10  O38   1.945447 S    
C28   O112  1.405674 S    
H10   C174  1.077135 S    
C78   C82   1.421462 A    
O14   C10   1.281170 A    
C75   C91   1.422598 A    
C108  C116  1.428433 A    
N17   O102  1.300088 A    
C56   N28   1.437708 S    
C48   C88   1.417680 A    
C132  N8    1.438170 S    
O97   H33   0.988159 S    
C43   O135  1.379914 S    
O99   H35   0.989604 S    
O17   C13   1.280449 A    
C42   C50   1.401875 A    
O122  H50   0.987783 S    
