data_mof_unit_64121.cif
_audit_creation_date              2012-12-10T19:46:42-0500
_audit_creation_method            fapswitch 2.2
_symmetry_space_group_name_H-M    P1
_symmetry_Int_Tables_number       1
_space_group_crystal_system       triclinic
_cell_length_a                    18.484512
_cell_length_b                    18.484544
_cell_length_c                    32.815882
_cell_angle_alpha                 89.99995
_cell_angle_beta                  90.000111
_cell_angle_gamma                 89.99236
_cell_volume                      11212.4574593

loop_
_atom_site_label
_atom_site_type_symbol
_atom_type_description
_atom_site_fract_x
_atom_site_fract_y
_atom_site_fract_z
_atom_type_partial_charge
C1    C     C_R   0.500000 0.000000 0.896024 0.788476
C2    C     C_1   0.500000 1.000000 0.768827 0.042807
C3    C     C_3   0.231748 0.290627 0.423711 0.452489
C4    C     C_3   0.709384 0.768258 0.423712 0.452492
C5    C     C_3   0.766973 0.291901 0.423826 0.452748
C6    C     C_3   0.290626 0.231749 0.423712 0.452488
C7    C     C_3   0.233030 0.708097 0.423826 0.452749
C8    C     C_1   0.500000 1.000000 0.149196 -0.141006
C9    C     C_1   0.000000 0.500000 0.149196 -0.141007
C10   C     C_1   0.000000 0.500000 0.649196 -0.141007
C11   C     C_1   0.500000 0.000000 0.649196 -0.141008
C12   C     C_1   0.500000 1.000000 0.186800 0.010329
C13   C     C_1   0.500000 0.000000 0.268827 0.042809
C14   C     C_1   0.000000 0.500000 0.186800 0.010329
C15   C     C_1   0.000000 0.500000 0.686800 0.010328
C16   C     C_1   0.500000 1.000000 0.686800 0.010328
C17   C     C_1   1.000000 0.500000 0.268827 0.042808
C18   C     C_1   0.000000 0.500000 0.813249 0.038415
C19   C     C_1   0.500000 0.000000 0.813249 0.038412
C20   C     C_1   0.500000 0.000000 0.313248 0.038415
C21   C     C_1   1.000000 0.500000 0.313248 0.038413
C22   C     C_1   0.000000 0.500000 0.850847 -0.098738
C23   C     C_1   0.500000 1.000000 0.850847 -0.098751
C24   C     C_1   0.500000 1.000000 0.350847 -0.098738
C25   C     C_R   0.000000 0.500000 0.896024 0.788481
C26   C     C_1   1.000000 0.500000 0.350847 -0.098745
C27   C     C_R   0.500000 1.000000 0.104003 0.786668
C28   C     C_R   0.000000 0.500000 0.104004 0.786671
C29   C     C_R   0.000000 0.500000 0.604004 0.786666
C30   C     C_R   0.500000 0.000000 0.604004 0.786668
C31   C     C_R   0.640378 0.859319 0.999867 0.810749
C32   C     C_R   0.140681 0.640382 0.999868 0.811458
C33   C     C_R   0.359621 0.140680 0.999867 0.810816
C34   C     C_R   0.859319 0.359617 0.999868 0.811465
C35   C     C_R   0.640382 0.140681 0.999868 0.811466
C36   C     C_R   1.000000 0.500000 0.396024 0.788474
C37   C     C_R   0.140681 0.359622 0.999867 0.810722
C38   C     C_R   0.359617 0.859319 0.999868 0.811460
C39   C     C_R   0.859319 0.640378 0.999867 0.810751
C40   C     C_R   0.140379 0.359319 0.499867 0.810895
C41   C     C_R   0.640682 0.140382 0.499868 0.811307
C42   C     C_R   0.859621 0.640680 0.499867 0.810942
C43   C     C_R   0.359318 0.859618 0.499868 0.811309
C44   C     C_R   0.140382 0.640682 0.499868 0.811310
C45   C     C_R   0.640681 0.859621 0.499867 0.810889
C46   C     C_R   0.859618 0.359319 0.499868 0.811309
C47   C     C_R   0.500000 0.000000 0.396024 0.788476
C48   C     C_R   0.359319 0.140379 0.499867 0.810895
C49   C     C_R   0.253063 0.799871 0.968777 -0.059105
C50   C     C_R   0.201009 0.253964 0.968366 -0.058584
C51   C     C_R   0.746941 0.200125 0.968779 -0.059110
C52   C     C_R   0.798994 0.746040 0.968367 -0.058542
C53   C     C_R   0.253956 0.201003 0.968367 -0.058466
C54   C     C_R   0.200129 0.746937 0.968777 -0.059103
C55   C     C_R   0.746040 0.798994 0.968366 -0.058545
C56   C     C_R   0.799876 0.253058 0.968779 -0.059105
C57   C     C_R   0.753255 0.299682 0.468687 -0.058982
C58   C     C_1   0.500000 1.000000 0.231226 0.034377
C59   C     C_R   0.700820 0.753770 0.468452 -0.058682
C60   C     C_R   0.246746 0.700317 0.468688 -0.058985
C61   C     C_R   0.299181 0.246231 0.468453 -0.058669
C62   C     C_R   0.753767 0.700816 0.468453 -0.058617
C63   C     C_R   0.700318 0.246744 0.468687 -0.058982
C64   C     C_R   0.246231 0.299181 0.468453 -0.058670
C65   C     C_R   0.299684 0.753254 0.468688 -0.058982
C66   C     C_R   0.302341 0.805378 0.000954 -0.018474
C67   C     C_R   0.194672 0.302391 0.000902 -0.018141
C68   C     C_R   0.697659 0.194622 0.000954 -0.018477
C69   C     C_1   0.000000 0.500000 0.231226 0.034377
C70   C     C_R   0.805328 0.697610 0.000903 -0.018118
C71   C     C_R   0.302387 0.194668 0.000904 -0.018073
C72   C     C_R   0.194622 0.697659 0.000954 -0.018473
C73   C     C_R   0.697610 0.805328 0.000902 -0.018120
C74   C     C_R   0.805378 0.302341 0.000954 -0.018474
C75   C     C_R   0.802351 0.305367 0.500943 -0.018410
C76   C     C_R   0.694660 0.802379 0.500915 -0.018188
C77   C     C_R   0.197649 0.694633 0.500943 -0.018412
C78   C     C_R   0.305340 0.197621 0.500914 -0.018181
C79   C     C_R   0.802377 0.694657 0.500915 -0.018150
C80   C     C_1   1.000000 0.500000 0.731226 0.034376
C81   C     C_R   0.694633 0.197649 0.500943 -0.018410
C82   C     C_R   0.197621 0.305339 0.500914 -0.018181
C83   C     C_R   0.305367 0.802351 0.500943 -0.018409
C84   C     C_R   0.293638 0.759930 0.034972 -0.173581
C85   C     C_R   0.239333 0.292906 0.035181 -0.173470
C86   C     C_R   0.706358 0.240074 0.034971 -0.173577
C87   C     C_R   0.760666 0.707092 0.035180 -0.173489
C88   C     C_R   0.292905 0.239331 0.035181 -0.173519
C89   C     C_R   0.240070 0.706362 0.034972 -0.173580
C90   C     C_R   0.707092 0.760665 0.035180 -0.173486
C91   C     C_1   0.500000 1.000000 0.731226 0.034376
C92   C     C_R   0.759926 0.293642 0.034971 -0.173582
C93   C     C_R   0.793481 0.260088 0.535018 -0.173551
C94   C     C_R   0.739487 0.793060 0.535139 -0.173511
C95   C     C_R   0.206518 0.739914 0.535018 -0.173549
C96   C     C_R   0.260511 0.206937 0.535138 -0.173517
C97   C     C_R   0.793060 0.739486 0.535139 -0.173540
C98   C     C_R   0.739913 0.206519 0.535018 -0.173551
C99   C     C_R   0.206937 0.260511 0.535138 -0.173517
C100  C     C_R   0.260087 0.793482 0.535018 -0.173551
C101  C     C_3   0.207615 0.733509 0.923873 0.452848
C102  C     C_1   1.000000 0.500000 0.768827 0.042809
C103  C     C_3   0.268724 0.209841 0.923672 0.452342
C104  C     C_3   0.792397 0.266479 0.923874 0.452849
C105  C     C_3   0.731274 0.790151 0.923672 0.452391
C106  C     C_3   0.209865 0.268736 0.923673 0.452407
C107  C     C_3   0.266491 0.792384 0.923873 0.452848
C108  C     C_3   0.790152 0.731275 0.923672 0.452391
C109  C     C_3   0.733520 0.207605 0.923874 0.452850
C110  C     C_3   0.708099 0.233026 0.423826 0.452750
C111  C     C_3   0.768253 0.709371 0.423712 0.452448
C112  C     C_3   0.291905 0.766970 0.423826 0.452749
H1    H     H_    0.329151 0.764693 0.061088 0.167052
H2    H     H_    0.734208 0.828078 0.561435 0.166616
H3    H     H_    0.171140 0.735012 0.561183 0.166928
H4    H     H_    0.265790 0.171918 0.561433 0.166615
H5    H     H_    0.828079 0.734206 0.561435 0.166615
H6    H     H_    0.735011 0.171142 0.561183 0.166927
H7    H     H_    0.171918 0.265789 0.561433 0.166615
H8    H     H_    0.264988 0.828860 0.561183 0.166927
H9    H     H_    0.195104 0.630105 0.917529 0.328725
H10   H     H_    0.372304 0.197461 0.918224 0.328027
H11   H     H_    0.804912 0.369881 0.917524 0.328732
H12   H     H_    0.233916 0.327791 0.061524 0.166491
H13   H     H_    0.627681 0.802481 0.918255 0.328008
H14   H     H_    0.197568 0.372335 0.918271 0.327992
H15   H     H_    0.369895 0.804895 0.917529 0.328728
H16   H     H_    0.802485 0.627683 0.918254 0.328009
H17   H     H_    0.630117 0.195095 0.917525 0.328733
H18   H     H_    0.695633 0.129579 0.417684 0.328568
H19   H     H_    0.871800 0.696973 0.418077 0.328167
H20   H     H_    0.304374 0.870416 0.417682 0.328572
H21   H     H_    0.128192 0.302997 0.418098 0.328156
H22   H     H_    0.697028 0.871816 0.418103 0.328152
H23   H     H_    0.670841 0.235316 0.061085 0.167054
H24   H     H_    0.870420 0.304369 0.417683 0.328570
H25   H     H_    0.302997 0.128193 0.418098 0.328156
H26   H     H_    0.129582 0.695631 0.417683 0.328571
H27   H     H_    0.766082 0.672206 0.061523 0.166490
H28   H     H_    0.327792 0.233914 0.061524 0.166489
H29   H     H_    0.235308 0.670849 0.061088 0.167052
H30   H     H_    0.672206 0.766082 0.061523 0.166491
H31   H     H_    0.764685 0.329158 0.061085 0.167055
H32   H     H_    0.828859 0.264990 0.561183 0.166927
I1    I     I_    0.108187 0.753941 0.891439 -0.206591
I2    I     I_    0.748634 0.610741 0.390367 -0.207245
I3    I     I_    0.391119 0.746757 0.391144 -0.206751
I4    I     I_    0.251348 0.389260 0.390368 -0.207209
I5    I     I_    0.610752 0.748678 0.390362 -0.207217
I6    I     I_    0.746762 0.391114 0.391141 -0.206754
I7    I     I_    0.389260 0.251350 0.390368 -0.207210
I8    I     I_    0.253240 0.608883 0.391143 -0.206753
I9    I     I_    0.249310 0.111426 0.890088 -0.207427
I10   I     I_    0.891831 0.246038 0.891447 -0.206586
I11   I     I_    0.750650 0.888568 0.890085 -0.207382
I12   I     I_    0.111451 0.249397 0.890076 -0.207380
I13   I     I_    0.246058 0.891812 0.891439 -0.206593
I14   I     I_    0.888570 0.750654 0.890086 -0.207383
I15   I     I_    0.753956 0.108172 0.891445 -0.206588
I16   I     I_    0.608887 0.253236 0.391141 -0.206753
O1    O     O_3   0.500000 0.000000 0.000010 -0.475787
O2    O     O_R   0.500000 0.939250 0.416010 -0.612360
O3    O     O_R   0.060750 0.500000 0.416010 -0.612361
O4    O     O_R   0.500000 0.060750 0.416010 -0.612364
O5    O     O_R   0.500000 0.939250 0.084010 -0.626230
O6    O     O_R   0.060750 0.500000 0.084010 -0.626229
O7    O     O_R   0.500000 0.060750 0.084010 -0.626232
O8    O     O_R   0.939250 0.500000 0.084010 -0.626229
O9    O     O_R   1.000000 0.439250 0.584010 -0.626231
O10   O     O_R   0.560750 1.000000 0.584010 -0.626231
O11   O     O_R   0.000000 0.560750 0.584010 -0.626232
O12   O     O_3   1.000000 0.500000 0.000010 -0.475788
O13   O     O_R   0.439250 1.000000 0.584010 -0.626231
O14   O     O_R   0.646150 0.914530 0.977990 -0.631497
O15   O     O_R   0.085470 0.646150 0.977990 -0.632288
O16   O     O_R   0.353850 0.085470 0.977990 -0.631521
O17   O     O_R   0.914530 0.353850 0.977990 -0.632293
O18   O     O_R   0.646150 0.085470 0.977990 -0.632292
O19   O     O_R   0.085470 0.353850 0.977990 -0.631481
O20   O     O_R   0.353850 0.914530 0.977990 -0.632289
O21   O     O_R   0.914530 0.646150 0.977990 -0.631499
O22   O     O_R   0.146150 0.414530 0.477990 -0.631671
O23   O     O_3   1.000000 0.500000 0.500010 -0.475788
O24   O     O_R   0.585470 0.146150 0.477990 -0.632113
O25   O     O_R   0.853850 0.585470 0.477990 -0.631684
O26   O     O_R   0.414530 0.853850 0.477990 -0.632116
O27   O     O_R   0.146150 0.585470 0.477990 -0.632115
O28   O     O_R   0.585470 0.853850 0.477990 -0.631663
O29   O     O_R   0.853850 0.414530 0.477990 -0.632116
O30   O     O_R   0.414530 0.146150 0.477990 -0.631672
O31   O     O_R   0.414550 0.146120 0.022030 -0.636216
O32   O     O_R   0.853880 0.414550 0.022030 -0.636443
O33   O     O_R   0.585450 0.853880 0.022030 -0.636217
O34   O     O_3   0.500000 1.000000 0.500010 -0.475789
O35   O     O_R   0.146120 0.585450 0.022030 -0.636444
O36   O     O_R   0.414550 0.853880 0.022030 -0.636442
O37   O     O_R   0.853880 0.585450 0.022030 -0.636217
O38   O     O_R   0.585450 0.146120 0.022030 -0.636440
O39   O     O_R   0.146120 0.414550 0.022030 -0.636218
O40   O     O_R   0.914550 0.646120 0.522030 -0.636266
O41   O     O_R   0.353880 0.914550 0.522030 -0.636389
O42   O     O_R   0.085450 0.353880 0.522030 -0.636266
O43   O     O_R   0.646120 0.085450 0.522030 -0.636390
O44   O     O_R   0.914550 0.353880 0.522030 -0.636388
O45   O     O_R   0.439250 1.000000 0.916010 -0.612378
O46   O     O_R   0.353880 0.085450 0.522030 -0.636266
O47   O     O_R   0.085450 0.646120 0.522030 -0.636387
O48   O     O_R   0.646120 0.914550 0.522030 -0.636267
O49   O     O_3   0.236061 0.664554 0.915618 -0.663679
O50   O     O_3   0.337918 0.238490 0.916348 -0.663393
O51   O     O_3   0.763954 0.335433 0.915614 -0.663679
O52   O     O_3   0.662090 0.761478 0.916348 -0.663372
O53   O     O_3   0.238560 0.337913 0.916356 -0.663353
O54   O     O_3   0.335445 0.763938 0.915618 -0.663677
O55   O     O_3   0.761481 0.662090 0.916348 -0.663373
O56   O     O_R   0.000000 0.439250 0.916010 -0.612360
O57   O     O_3   0.664568 0.236051 0.915614 -0.663674
O58   O     O_3   0.736599 0.164019 0.415773 -0.663606
O59   O     O_3   0.837396 0.737984 0.416192 -0.663448
O60   O     O_3   0.263407 0.835977 0.415771 -0.663606
O61   O     O_3   0.162610 0.262002 0.416190 -0.663438
O62   O     O_3   0.738019 0.837393 0.416196 -0.663433
O63   O     O_3   0.835981 0.263403 0.415773 -0.663605
O64   O     O_3   0.262002 0.162611 0.416190 -0.663437
O65   O     O_3   0.164023 0.736596 0.415772 -0.663602
O66   O     O_R   0.560750 1.000000 0.916010 -0.612364
O67   O     O_R   0.000000 0.560750 0.916010 -0.612369
O68   O     O_R   0.939250 0.500000 0.416010 -0.612371
Zn1   Zn    Zn3+2 0.500000 0.913220 0.031480 0.994736
Zn2   Zn    Zn3+2 1.000000 0.586740 0.968550 1.012136
Zn3   Zn    Zn3+2 0.413260 1.000000 0.968550 1.012128
Zn4   Zn    Zn3+2 0.000000 0.413260 0.968550 1.012143
Zn5   Zn    Zn3+2 0.086740 0.500000 0.468550 1.012140
Zn6   Zn    Zn3+2 0.500000 0.086740 0.468550 1.012138
Zn7   Zn    Zn3+2 0.913260 0.500000 0.468550 1.012132
Zn8   Zn    Zn3+2 0.500000 0.913260 0.468550 1.012141
Zn9   Zn    Zn3+2 0.086780 0.500000 0.031480 0.994734
Zn10  Zn    Zn3+2 0.500000 0.086780 0.031480 0.994745
Zn11  Zn    Zn3+2 0.913220 0.500000 0.031480 0.994738
Zn12  Zn    Zn3+2 0.000000 0.413220 0.531480 0.994736
Zn13  Zn    Zn3+2 0.586780 0.000000 0.531480 0.994736
Zn14  Zn    Zn3+2 0.000000 0.586780 0.531480 0.994742
Zn15  Zn    Zn3+2 0.413220 0.000000 0.531480 0.994737
Zn16  Zn    Zn3+2 0.586740 1.000000 0.968550 1.012140

loop_
_geom_bond_atom_site_label_1
_geom_bond_atom_site_label_2
_ccdc_geom_bond_type
C1    O66   A    
C101  C107  S    
C21   C26   T    
C33   C71   S    
O20   Zn3   S    
C17   C69   T    
C84   H1    S    
O34   Zn13  S    
H26   O65   S    
C68   C86   A    
C82   C99   A    
C36   O68   A    
O10   Zn13  S    
O46   Zn15  S    
O33   Zn1   S    
O44   Zn12  S    
C3    C6    S    
C33   O16   A    
O17   Zn4   S    
C94   H2    S    
C32   C72   S    
C3    C64   S    
O6    Zn9   S    
C4    I5    S    
C107  O54   S    
H25   O64   S    
C101  I1    S    
C105  O52   S    
C55   C105  S    
C45   C76   S    
C6    C61   S    
C44   C77   S    
O26   Zn8   S    
C53   C103  S    
C73   C90   A    
C10   C15   T    
O42   Zn12  S    
C104  C109  S    
C4    O62   S    
O14   Zn16  S    
C31   C73   S    
C108  I14   S    
C5    C110  S    
C48   C78   S    
C49   C54   A    
C96   C99   A    
C43   C83   S    
C7    C112  S    
C85   H12   S    
H19   O59   S    
C51   C56   A    
C18   C102  S    
C74   C92   A    
H18   O58   S    
C92   H31   S    
C27   O7    A    
C30   O10   A    
O68   Zn7   S    
H17   O57   S    
C54   C101  S    
O22   Zn5   S    
C76   C94   A    
O1    Zn3   S    
C47   O2    A    
C77   C95   A    
C103  I9    S    
O7    Zn10  S    
C88   H28   S    
C62   C111  S    
C38   C66   S    
C11   C30   S    
C78   C96   A    
H22   O62   S    
O9    Zn12  S    
H11   O51   S    
C43   O41   A    
C36   O3    A    
H21   O61   S    
H10   O50   S    
C41   O24   A    
C98   H6    S    
O30   Zn6   S    
O23   Zn14  S    
H9    O49   S    
C41   O43   A    
O38   Zn10  S    
C50   C67   A    
O21   Zn2   S    
C30   O13   A    
C48   O30   A    
O28   Zn8   S    
C52   C55   A    
C28   O6    A    
C12   C58   S    
O12   Zn9   S    
C35   O18   A    
C46   O44   A    
C39   O37   A    
C42   C79   S    
C3    O61   S    
O15   Zn2   S    
O5    Zn1   S    
C111  O59   S    
O34   Zn6   S    
C32   O35   A    
C110  O58   S    
C70   C87   A    
O39   Zn9   S    
C103  O50   S    
C46   C75   S    
C107  I13   S    
H13   O52   S    
C79   C97   A    
C57   C63   A    
O8    Zn11  S    
C40   O22   A    
O12   Zn4   S    
C37   O19   A    
C32   O15   A    
C60   C77   A    
C67   C85   A    
C50   C53   A    
C38   O20   A    
C49   C66   A    
O4    Zn6   S    
O43   Zn13  S    
C20   C24   T    
C62   C79   A    
C52   C70   A    
O48   Zn13  S    
C56   C104  S    
C49   C107  S    
O34   Zn15  S    
O47   Zn14  S    
O34   Zn8   S    
C31   O33   A    
O12   Zn2   S    
C95   C100  A    
O32   Zn11  S    
O1    Zn10  S    
C7    O65   S    
C94   C97   A    
C101  O49   S    
O16   Zn3   S    
C99   H7    S    
C22   C25   S    
C44   O47   A    
C17   C21   S    
C5    I6    S    
C71   C88   A    
C80   C102  T    
H20   O60   S    
C65   C83   A    
C61   C64   A    
C19   C23   T    
C9    C14   T    
C65   C112  S    
O3    Zn5   S    
H14   O53   S    
C40   C82   S    
O23   Zn12  S    
O27   Zn5   S    
C11   C16   T    
O13   Zn15  S    
O66   Zn16  S    
C15   C80   S    
C61   C78   A    
C8    C12   T    
C41   C81   S    
C112  O60   S    
H15   O54   S    
C6    O64   S    
C90   H30   S    
C105  C108  S    
C29   O11   A    
C64   C82   A    
C39   O21   A    
C93   H32   S    
C27   O5    A    
C100  H8    S    
C47   O4    A    
C93   C98   A    
C42   O25   A    
C26   C36   S    
C5    O63   S    
C4    C111  S    
O23   Zn5   S    
C60   C65   A    
C1    C23   S    
C45   O48   A    
C106  I12   S    
C83   C100  A    
O11   Zn14  S    
C14   C69   S    
O1    Zn1   S    
C111  I2    S    
C84   C89   A    
C6    I7    S    
C46   O29   A    
C53   C71   A    
O40   Zn14  S    
C7    C60   S    
C35   O38   A    
C110  I16   S    
C75   C93   A    
C85   C88   A    
C25   O67   A    
C8    C27   S    
C106  O53   S    
C59   C62   A    
C63   C81   A    
C13   C20   S    
C105  I11   S    
C2    C19   S    
C18   C22   T    
C24   C47   S    
O35   Zn9   S    
C25   O56   A    
C87   H27   S    
O41   Zn15  S    
C45   O28   A    
C13   C58   T    
O1    Zn16  S    
C43   O26   A    
C112  I3    S    
C5    C57   S    
C33   O31   A    
C104  I10   S    
C57   C75   A    
C63   C110  S    
C34   O32   A    
O24   Zn6   S    
O2    Zn8   S    
O45   Zn3   S    
C86   C92   A    
C72   C89   A    
O37   Zn11  S    
C10   C29   S    
H24   O63   S    
C35   C68   S    
O31   Zn10  S    
C89   H29   S    
C37   C67   S    
C4    C59   S    
C42   O40   A    
C1    O45   A    
O56   Zn4   S    
C39   C70   S    
C38   O36   A    
C103  C106  S    
C51   C68   A    
C37   O39   A    
C97   H5    S    
C2    C91   T    
O29   Zn7   S    
C44   O27   A    
C108  O55   S    
C109  O57   S    
O18   Zn16  S    
C28   O8    A    
H16   O55   S    
C66   C84   A    
C7    I8    S    
C55   C73   A    
O12   Zn11  S    
C86   H23   S    
C3    I4    S    
O67   Zn2   S    
C54   C72   A    
O36   Zn1   S    
C52   C108  S    
C16   C91   S    
C51   C109  S    
C81   C98   A    
C87   C90   A    
C48   O46   A    
C50   C106  S    
O25   Zn7   S    
C96   H4    S    
C34   O17   A    
C34   C74   S    
C104  O51   S    
C29   O9    A    
O19   Zn4   S    
C40   O42   A    
C59   C76   A    
C56   C74   A    
C95   H3    S    
C9    C28   S    
O23   Zn7   S    
C31   O14   A    
C109  I15   S    
