data_mof_unit_46944.cif
_audit_creation_date              2012-12-10T17:48:53-0500
_audit_creation_method            fapswitch 2.2
_symmetry_space_group_name_H-M    P1
_symmetry_Int_Tables_number       1
_space_group_crystal_system       triclinic
_cell_length_a                    10.740796
_cell_length_b                    14.736672
_cell_length_c                    14.666468
_cell_angle_alpha                 65.256705
_cell_angle_beta                  104.199477
_cell_angle_gamma                 103.483166
_cell_volume                      2021.34553183

loop_
_atom_site_label
_atom_site_type_symbol
_atom_type_description
_atom_site_fract_x
_atom_site_fract_y
_atom_site_fract_z
_atom_type_partial_charge
C1    C     C_R   0.478624 0.119498 0.312112 0.791161
C2    C     C_3   0.877980 0.999197 0.500177 0.117292
C3    C     C_3   0.892004 0.906999 0.479845 -0.381398
C4    C     C_3   0.959079 0.991880 0.605431 -0.379295
C5    C     C_R   0.476681 0.187471 0.205036 -0.057403
C6    C     C_R   0.515698 0.812350 0.798004 -0.153606
C7    C     C_R   0.500050 0.222689 0.033196 -0.190447
C8    C     C_R   0.484861 0.153364 0.131173 -0.204118
C9    C     C_R   0.479584 0.290546 0.179408 -0.247618
C10   C     C_R   0.502580 0.362320 0.083367 0.099601
C11   C     C_R   0.510161 0.326694 0.009071 0.157283
C12   C     C_R   0.259964 0.999429 0.500546 0.748445
C13   C     C_R   0.517657 0.468189 0.059089 0.038695
C14   C     C_R   0.521564 0.535805 0.957028 0.055882
C15   C     C_R   0.536704 0.498015 0.886889 -0.180945
C16   C     C_R   0.530534 0.395391 0.912256 -0.231805
C17   C     C_R   0.534735 0.508492 0.134079 -0.258442
C18   C     C_R   0.549973 0.612530 0.109790 0.085394
C19   C     C_R   0.541293 0.679492 0.006211 0.104550
C20   C     C_R   0.518483 0.640380 0.928974 0.013021
C21   C     C_R   0.550039 0.784247 0.977655 -0.263622
C22   C     C_R   0.541365 0.850458 0.875834 -0.030179
C23   C     C_R   0.514490 0.880271 0.688388 0.806706
C24   C     C_R   0.487051 0.706291 0.826091 -0.075788
C25   C     C_R   0.725636 0.289293 0.664014 -0.326999
C26   C     C_R   0.687403 0.205897 0.637271 0.190282
C27   C     C_R   0.518652 0.285081 0.509833 -0.011866
C28   C     C_R   0.552448 0.372490 0.535386 -0.018741
C29   C     C_R   0.658754 0.372041 0.613849 0.126620
C30   C     C_R   0.485003 0.458853 0.487309 0.070409
C31   C     C_R   0.526228 0.544486 0.517593 0.024056
C32   C     C_R   0.633880 0.536974 0.600095 -0.036823
C33   C     C_R   0.697496 0.452751 0.644581 -0.231994
C34   C     C_R   0.740111 0.000047 0.499703 0.785006
C35   C     C_R   0.375823 0.460560 0.411020 -0.237744
C36   C     C_R   0.307800 0.541489 0.363839 -0.215909
C37   C     C_R   0.344959 0.627199 0.388352 0.122961
C38   C     C_R   0.455650 0.630609 0.464878 -0.031100
C39   C     C_R   0.273455 0.710202 0.336344 -0.013080
C40   C     C_R   0.308697 0.791693 0.367918 0.058476
C41   C     C_R   0.490613 0.721652 0.482519 0.004435
C42   C     C_3   0.075822 0.096277 0.416285 -0.435998
C43   C     C_3   0.932208 0.097298 0.416475 -0.387348
C44   C     C_3   0.033889 0.908319 0.477097 -0.366236
C45   C     C_3   0.104528 0.996506 0.605595 -0.049769
C46   C     C_3   0.122203 0.998176 0.501704 0.151296
Cu1   Cu    Cu3+1 0.465900 0.918260 0.475680 0.936205
Cu2   Cu    Cu3+1 0.534100 0.081740 0.524320 0.945375
H1    H     H_    0.086270 0.101190 0.340607 0.162694
H2    H     H_    0.920873 0.921905 0.666042 0.180066
H3    H     H_    0.064394 0.834468 0.529175 0.171680
H4    H     H_    0.856815 0.835365 0.540283 0.184062
H5    H     H_    0.541364 0.369811 0.855609 0.156432
H6    H     H_    0.506931 0.195228 0.976886 0.149091
H7    H     H_    0.482842 0.073795 0.149764 0.153168
H8    H     H_    0.462899 0.312897 0.236067 0.141340
H9    H     H_    0.136653 0.164389 0.427382 0.165946
H10   H     H_    0.557762 0.547635 0.812289 0.179694
H11   H     H_    0.544316 0.460522 0.213825 0.141193
H12   H     H_    0.563705 0.816419 0.034116 0.148658
H13   H     H_    0.778783 0.449061 0.706585 0.152491
H14   H     H_    0.579131 0.739814 0.526806 0.166815
H15   H     H_    0.254964 0.854646 0.334547 0.123380
H16   H     H_    0.224225 0.534996 0.307062 0.139205
H17   H     H_    0.806664 0.288894 0.725293 0.140863
H18   H     H_    0.439905 0.278510 0.450425 0.121896
H19   H     H_    0.924905 0.164612 0.430036 0.175409
H20   H     H_    0.338410 0.399178 0.385657 0.127439
H21   H     H_    0.873750 0.104064 0.340493 0.162687
H22   H     H_    0.041498 0.916447 0.399549 0.160576
H23   H     H_    0.831861 0.908427 0.405783 0.175274
H24   H     H_    0.152859 0.071707 0.607171 0.145530
H25   H     H_    0.948926 0.056530 0.621959 0.174361
N1    N     N_R   0.585360 0.204570 0.560800 -0.197465
N2    N     N_R   0.414550 0.795430 0.439160 -0.198202
O1    O     O_R   0.455060 0.022100 0.338110 -0.590311
O2    O     O_R   0.512640 0.160150 0.379180 -0.588710
O3    O     O_R   0.288900 0.930980 0.479450 -0.594147
O4    O     O_R   0.346480 0.069030 0.520520 -0.597100
O5    O     O_R   0.487360 0.839850 0.620820 -0.560099
O6    O     O_R   0.544940 0.977900 0.661890 -0.568052
O7    O     O_R   0.653520 0.930970 0.479480 -0.594454
O8    O     O_R   0.711100 0.069020 0.520550 -0.585954
C47   C     C_1   0.398493 0.665778 0.755025 0.263675
N3    N     N_1   0.327686 0.633462 0.698659 -0.285883
C48   C     C_1   0.544492 0.955816 0.854881 0.267100
N4    N     N_1   0.545790 0.039808 0.839105 -0.309713
C49   C     C_3   0.570093 0.647858 0.196918 -0.408774
C50   C     C_3   0.711952 0.692947 0.221914 -0.343039
C51   C     C_3   0.732404 0.724052 0.312223 -0.846610
H26   H     H_    0.667465 0.779448 0.296419 0.251995
H27   H     H_    0.712358 0.656814 0.381816 0.261371
H28   H     H_    0.834697 0.759446 0.326261 0.236079
H29   H     H_    0.776133 0.636031 0.240871 0.223675
H30   H     H_    0.741020 0.760356 0.155388 0.223432
H31   H     H_    0.503218 0.702434 0.179307 0.191773
H32   H     H_    0.543981 0.583355 0.266811 0.213812
C52   C     C_1   0.755682 0.120659 0.695095 0.308858
N5    N     N_1   0.810736 0.052386 0.743489 -0.332962
C53   C     C_1   0.684597 0.608395 0.648759 0.162714
N6    N     N_1   0.727654 0.664322 0.689224 -0.325257
C54   C     C_3   0.163467 0.711202 0.247166 -0.433580
C55   C     C_3   0.103708 0.809432 0.188802 -0.370323
C56   C     C_3   0.009187 0.805687 0.093369 -0.823339
H33   H     H_    0.062408 0.804476 0.037885 0.251260
H34   H     H_    0.934906 0.737213 0.112905 0.249040
H35   H     H_    0.959534 0.873603 0.057068 0.246623
H36   H     H_    0.050496 0.820534 0.238639 0.212140
H37   H     H_    0.181355 0.874946 0.164655 0.218928
H38   H     H_    0.202684 0.697146 0.191497 0.207091
H39   H     H_    0.084516 0.648397 0.275959 0.203359
C57   C     C_3   0.172165 0.920957 0.706125 -0.420513
C58   C     C_3   0.131824 0.808324 0.724496 -0.329331
C59   C     C_3   0.160847 0.741812 0.837459 -0.831371
H40   H     H_    0.264264 0.759498 0.869016 0.258984
H41   H     H_    0.098706 0.753955 0.880544 0.250356
H42   H     H_    0.140301 0.661073 0.847485 0.251245
H43   H     H_    0.026587 0.791033 0.697604 0.236835
H44   H     H_    0.187606 0.788258 0.682922 0.222547
H45   H     H_    0.279108 0.939683 0.709477 0.191394
H46   H     H_    0.151839 0.934369 0.769983 0.216072

loop_
_geom_bond_atom_site_label_1
_geom_bond_atom_site_label_2
_ccdc_geom_bond_type
C49   H31   S    
C1    O2    A    
C2    C4    S    
C35   C36   A    
C56   H34   S    
C59   H40   S    
C45   C57   S    
C7    C8    A    
C45   C46   S    
C7    C11   A    
C40   H15   S    
C30   C35   A    
C39   C54   S    
C1    C5    S    
C41   H14   S    
Cu2   O4    S    
C36   C37   A    
C19   C21   A    
Cu1   O1    S    
C30   C31   A    
C15   C16   A    
C6    C22   A    
C12   O4    A    
C29   C33   A    
C21   H12   S    
Cu2   O6    S    
C42   H9    S    
C18   C19   A    
C42   C46   S    
Cu1   O7    S    
C50   H29   S    
C20   C24   A    
C16   H5    S    
C56   H33   S    
C58   H44   S    
C19   C20   A    
C12   O3    A    
C44   H22   S    
C55   H36   S    
C13   C14   A    
C23   O5    A    
C27   N1    A    
C9    C10   A    
C49   H32   S    
C2    C34   S    
C43   H21   S    
C21   C22   A    
C45   H24   S    
C54   H39   S    
Cu1   O5    S    
C8    H7    S    
C57   C58   S    
C44   C46   S    
C4    C45   S    
C25   C29   A    
C3    C44   S    
Cu2   N1    S    
C25   H17   S    
C47   N3    T    
C38   C41   A    
C12   C46   S    
C39   C40   A    
C57   H45   S    
C48   N4    T    
C25   C26   A    
C18   C49   S    
C32   C53   S    
C4    H2    S    
Cu2   O2    S    
C50   H30   S    
C3    H23   S    
C40   N2    A    
C5    C9    A    
C37   C38   A    
C14   C20   A    
C41   N2    A    
C11   C16   A    
C51   H27   S    
Cu1   Cu2   S    
C2    C43   S    
C6    C24   A    
C17   C18   A    
C9    H8    S    
C4    H25   S    
C17   H11   S    
C44   H3    S    
C33   H13   S    
C26   C52   S    
C15   H10   S    
C54   H38   S    
C34   O8    A    
C55   C56   S    
C51   H28   S    
C58   C59   S    
C28   C29   A    
C23   O6    A    
C1    O1    A    
C31   C32   A    
C10   C13   A    
C5    C8    A    
C59   H41   S    
C3    H4    S    
C31   C38   A    
Cu1   O3    S    
Cu2   O8    S    
C13   C17   A    
C55   H37   S    
C32   C33   A    
C28   C30   A    
C2    C3    S    
C24   C47   S    
Cu1   N2    S    
C57   H46   S    
C37   C39   A    
C27   H18   S    
C51   H26   S    
C35   H20   S    
C6    C23   S    
C53   N6    T    
C26   N1    A    
C22   C48   S    
C54   C55   S    
C59   H42   S    
C10   C11   A    
C42   H1    S    
C58   H43   S    
C49   C50   S    
C43   H19   S    
C52   N5    T    
C42   C43   S    
C27   C28   A    
C14   C15   A    
C34   O7    A    
C7    H6    S    
C50   C51   S    
C36   H16   S    
C56   H35   S    
