data_mof_unit_50071.cif
_audit_creation_date              2012-12-10T18:11:57-0500
_audit_creation_method            fapswitch 2.2
_symmetry_space_group_name_H-M    P1
_symmetry_Int_Tables_number       1
_space_group_crystal_system       triclinic
_cell_length_a                    18.786973
_cell_length_b                    18.878208
_cell_length_c                    18.62311
_cell_angle_alpha                 109.449796
_cell_angle_beta                  109.330756
_cell_angle_gamma                 109.81312
_cell_volume                      5073.09565977

loop_
_atom_site_label
_atom_site_type_symbol
_atom_type_description
_atom_site_fract_x
_atom_site_fract_y
_atom_site_fract_z
_atom_type_partial_charge
Br1   Br    Br    0.230776 0.657843 0.421703 -0.443108
Br2   Br    Br    0.721347 0.727474 0.310366 -0.533081
Br3   Br    Br    0.579194 0.498653 0.770856 -0.530354
Br4   Br    Br    0.217323 0.407317 0.467853 -0.497213
Br5   Br    Br    0.004328 0.579655 0.275007 -0.468791
Br6   Br    Br    0.353628 0.370457 0.151769 -0.521305
Br7   Br    Br    0.806054 0.231459 0.725478 -0.556309
Br8   Br    Br    0.437956 0.689014 0.409932 -0.483889
C1    C     C_R   0.622726 0.620066 0.502894 0.900542
C2    C     C_R   0.288456 0.790493 0.256233 0.069842
C3    C     C_R   0.933743 0.256352 0.452782 -0.109835
C4    C     C_R   0.992121 0.269524 0.532243 -0.109035
C5    C     C_R   0.069426 0.269403 0.543650 -0.104909
C6    C     C_R   0.282943 0.123078 0.525654 0.148221
C7    C     C_R   0.350582 0.147029 0.606375 -0.135332
C8    C     C_R   0.361578 0.083071 0.622276 -0.136103
C9    C     C_R   0.304659 0.995192 0.558164 -0.118776
C10   C     C_R   0.238156 0.971446 0.477287 -0.118646
C11   C     C_R   0.228669 0.035077 0.460175 -0.115800
C12   C     C_R   0.002942 0.734001 0.403803 0.157879
C13   C     C_R   0.275048 0.829460 0.325379 -0.202727
C14   C     C_R   0.081219 0.754927 0.472204 -0.040066
C15   C     C_R   0.083050 0.748722 0.545475 -0.112891
C16   C     C_R   0.006959 0.722001 0.551054 -0.130285
C17   C     C_R   0.929087 0.701886 0.483570 -0.121590
C18   C     C_R   0.926867 0.707462 0.409916 -0.116422
C19   C     C_R   0.165270 0.264266 0.783089 0.130854
C20   C     C_R   0.222864 0.326246 0.773762 -0.194712
C21   C     C_R   0.304205 0.334322 0.789912 -0.100826
C22   C     C_R   0.329591 0.282414 0.817972 -0.093125
C23   C     C_R   0.274181 0.223273 0.831147 -0.125528
C24   C     C_R   0.380284 0.499700 0.379017 0.954414
C25   C     C_R   0.192673 0.214830 0.814668 -0.058974
C26   C     C_R   0.834230 0.114701 0.588672 0.196277
C27   C     C_R   0.792258 0.140029 0.532746 -0.095355
C28   C     C_R   0.713865 0.077856 0.453743 -0.154032
C29   C     C_R   0.676841 0.990007 0.429833 -0.092532
C30   C     C_R   0.718349 0.964224 0.484766 -0.078358
C31   C     C_R   0.796793 0.026291 0.563729 -0.104245
C32   C     C_R   0.085325 0.139023 0.216091 0.128249
C33   C     C_R   0.103447 0.098255 0.264777 -0.183099
C34   C     C_R   0.036993 0.042946 0.270779 -0.117188
C35   C     C_R   0.258972 0.789165 0.373467 -0.192647
C36   C     C_R   0.952008 0.027153 0.227845 -0.077946
C37   C     C_R   0.933281 0.066968 0.178679 -0.177021
C38   C     C_R   0.999692 0.122959 0.172915 -0.177781
C39   C     C_R   0.303160 0.831903 0.203301 0.110348
C40   C     C_R   0.263075 0.780871 0.111367 -0.141839
C41   C     C_R   0.275694 0.819848 0.061250 -0.152859
C42   C     C_R   0.328385 0.909962 0.102161 -0.103303
C43   C     C_R   0.368438 0.961371 0.193284 -0.130147
C44   C     C_R   0.356000 0.922728 0.243760 -0.163407
C45   C     C_R   0.253101 0.708661 0.352044 0.346960
C46   C     C_R   0.265738 0.668304 0.282590 0.044871
C47   C     C_R   0.764072 0.758155 0.587478 -0.052036
C48   C     C_R   0.827167 0.823504 0.586737 -0.090365
C49   C     C_R   0.815010 0.816271 0.504545 -0.180119
C50   C     C_R   0.741705 0.744494 0.424787 0.228015
C51   C     C_R   0.205106 0.168042 0.180327 -0.256163
C52   C     C_R   0.681017 0.680198 0.426558 -0.204109
C53   C     C_R   0.691270 0.686948 0.506360 -0.135688
C54   C     C_R   0.679714 0.502912 0.759996 0.213846
C55   C     C_R   0.378402 0.380406 0.498464 0.939953
C56   C     C_R   0.743948 0.503206 0.824355 -0.087903
C57   C     C_R   0.814819 0.501953 0.814687 -0.157189
C58   C     C_R   0.822643 0.500814 0.741562 -0.064517
C59   C     C_R   0.754582 0.492914 0.673473 -0.093375
C60   C     C_R   0.686098 0.499396 0.685849 -0.147562
C61   C     C_R   0.234282 0.317388 0.485561 0.195262
C62   C     C_R   0.180172 0.424919 0.176374 -0.208081
C63   C     C_R   0.170413 0.253604 0.486904 -0.068361
C64   C     C_R   0.186098 0.189437 0.501014 -0.153478
C65   C     C_R   0.264345 0.189278 0.512605 -0.016623
C66   C     C_R   0.326012 0.252581 0.510511 -0.271869
C67   C     C_R   0.619664 0.499642 0.620194 0.913532
C68   C     C_R   0.311124 0.315542 0.497490 -0.085602
C69   C     C_R   0.001542 0.619814 0.121879 0.912837
C70   C     C_R   0.120351 0.503083 0.122924 0.912327
C71   C     C_R   0.998696 0.379955 0.878778 0.923223
C72   C     C_R   0.880213 0.500797 0.880555 0.901369
C73   C     C_R   0.187932 0.504613 0.189234 -0.094084
C74   C     C_R   0.998122 0.878046 0.379493 0.883581
C75   C     C_R   0.879995 0.881113 0.501601 0.918319
C76   C     C_R   0.000398 0.120323 0.620576 0.871284
C77   C     C_R   0.120234 0.121654 0.501116 0.865465
C78   C     C_R   0.998682 0.753436 0.179321 -0.245735
C79   C     C_R   0.267271 0.220371 0.167246 -0.027944
C80   C     C_R   0.992966 0.813941 0.239853 -0.230046
C81   C     C_R   0.995544 0.808768 0.313556 -0.102153
C82   C     C_R   0.000922 0.740457 0.326005 -0.083106
C83   C     C_R   0.002412 0.676781 0.262277 0.221328
C84   C     C_R   0.262093 0.583798 0.261221 -0.012593
C85   C     C_R   0.002279 0.684783 0.189771 -0.086067
C86   C     C_R   0.076284 0.319569 0.824511 -0.277066
C87   C     C_R   0.078386 0.254668 0.764478 -0.013519
C88   C     C_R   0.998928 0.185381 0.687369 -0.162550
C89   C     C_R   0.917989 0.181349 0.672560 -0.084825
C90   C     C_R   0.917065 0.243625 0.737931 0.189422
C91   C     C_R   0.279400 0.303249 0.183151 0.279720
C92   C     C_R   0.996880 0.313458 0.811959 -0.120357
C93   C     C_R   0.233212 0.334960 0.217866 0.036019
C94   C     C_R   0.170376 0.281131 0.229095 -0.250334
C95   C     C_R   0.328940 0.581456 0.320035 0.256727
C96   C     C_R   0.155156 0.197242 0.209188 0.065021
C97   C     C_R   0.776957 0.763337 0.672906 0.120903
C98   C     C_R   0.838437 0.745269 0.718151 -0.189976
C99   C     C_R   0.850587 0.749934 0.798174 -0.135684
C100  C     C_R   0.803334 0.775083 0.834853 -0.081599
C101  C     C_R   0.744879 0.796900 0.792213 -0.123340
C102  C     C_R   0.732371 0.792006 0.712011 -0.086744
C103  C     C_R   0.902921 0.899763 0.672584 0.143465
C104  C     C_R   0.983933 0.903800 0.706857 -0.076031
C105  C     C_R   0.053165 0.972570 0.789919 -0.160412
C106  C     C_R   0.317326 0.500710 0.310462 -0.106851
C107  C     C_R   0.041479 0.036708 0.840207 -0.132338
C108  C     C_R   0.960472 0.031902 0.807747 -0.110645
C109  C     C_R   0.891108 0.963079 0.724877 -0.175175
C110  C     C_R   0.738662 0.509220 0.903743 0.177725
C111  C     C_R   0.688041 0.433832 0.902340 -0.057506
C112  C     C_R   0.682867 0.439733 0.977132 -0.148650
C113  C     C_R   0.727507 0.520817 0.053289 -0.059423
C114  C     C_R   0.777322 0.596113 0.054743 -0.107522
C115  C     C_R   0.783447 0.590462 0.980398 -0.157434
C116  C     C_R   0.902451 0.510440 0.735939 0.162428
C117  C     C_R   0.244591 0.421822 0.236048 0.037754
C118  C     C_R   0.957353 0.586398 0.740893 -0.130521
C119  C     C_R   0.031539 0.595563 0.734183 -0.150288
C120  C     C_R   0.051427 0.529064 0.722539 -0.089825
C121  C     C_R   0.996835 0.453174 0.717040 -0.117266
C122  C     C_R   0.922256 0.443572 0.723065 -0.142384
C123  C     C_R   0.318027 0.186607 0.136130 0.146276
C124  C     C_R   0.275048 0.109267 0.055617 -0.153130
C125  C     C_R   0.323060 0.076810 0.026766 -0.155765
C126  C     C_R   0.414033 0.120667 0.078509 -0.122436
C127  C     C_R   0.457164 0.197114 0.159187 -0.145972
C128  C     C_R   0.286319 0.710929 0.237109 -0.158096
C129  C     C_R   0.409430 0.230048 0.188080 -0.091249
C130  C     C_R   0.752932 0.469807 0.587637 0.162577
C131  C     C_R   0.745810 0.389777 0.539895 -0.122232
C132  C     C_R   0.744779 0.367074 0.459898 -0.161100
C133  C     C_R   0.749818 0.423509 0.426286 -0.107180
C134  C     C_R   0.756130 0.502747 0.472781 -0.103806
C135  C     C_R   0.758383 0.526133 0.553393 -0.120426
C136  C     C_R   0.089105 0.256013 0.475575 0.176847
C137  C     C_R   0.030018 0.242837 0.395863 -0.063025
C138  C     C_R   0.952725 0.243036 0.384573 -0.135799
H1    H     H_    0.194275 0.103547 0.166133 0.150296
H2    H     H_    0.124021 0.364764 0.118899 0.155504
H3    H     H_    0.300354 0.681801 0.186625 0.158481
H4    H     H_    0.876835 0.727505 0.691349 0.113984
H5    H     H_    0.896898 0.734461 0.831995 0.128517
H6    H     H_    0.812757 0.778623 0.896787 0.129684
H7    H     H_    0.709348 0.817743 0.821377 0.130259
H8    H     H_    0.687587 0.809949 0.680034 0.144921
H9    H     H_    0.993188 0.853516 0.669396 0.121934
H10   H     H_    0.115661 0.975780 0.815604 0.115482
H11   H     H_    0.094983 0.089821 0.904577 0.129982
H12   H     H_    0.276413 0.890728 0.341821 0.149851
H13   H     H_    0.951086 0.080892 0.847275 0.143652
H14   H     H_    0.827703 0.958157 0.702185 0.132316
H15   H     H_    0.653001 0.370780 0.843519 0.135517
H16   H     H_    0.644050 0.381491 0.975969 0.130134
H17   H     H_    0.723271 0.525366 0.111076 0.151070
H18   H     H_    0.811097 0.658811 0.113530 0.162702
H19   H     H_    0.822472 0.649152 0.982257 0.119253
H20   H     H_    0.942517 0.638267 0.749740 0.109205
H21   H     H_    0.073600 0.654218 0.738057 0.124870
H22   H     H_    0.109030 0.536267 0.717662 0.139585
H23   H     H_    0.251190 0.820119 0.428036 0.142092
H24   H     H_    0.012533 0.402002 0.708481 0.127857
H25   H     H_    0.879802 0.384340 0.717532 0.147209
H26   H     H_    0.204572 0.074449 0.015146 0.123410
H27   H     H_    0.289696 0.017429 0.964473 0.120452
H28   H     H_    0.451053 0.095211 0.056251 0.125558
H29   H     H_    0.527566 0.230770 0.199431 0.128390
H30   H     H_    0.443510 0.288997 0.251035 0.140912
H31   H     H_    0.740971 0.344969 0.564714 0.135351
H32   H     H_    0.739572 0.305509 0.423758 0.122308
H33   H     H_    0.748188 0.405575 0.363938 0.136330
H34   H     H_    0.624370 0.625039 0.365043 0.203644
H35   H     H_    0.758131 0.545518 0.445778 0.133122
H36   H     H_    0.761385 0.586464 0.587531 0.101046
H37   H     H_    0.044211 0.232954 0.342845 0.155982
H38   H     H_    0.907565 0.232791 0.322924 0.133791
H39   H     H_    0.873786 0.256237 0.444016 0.118024
H40   H     H_    0.977074 0.278822 0.584660 0.117416
H41   H     H_    0.113136 0.277917 0.604604 0.100683
H42   H     H_    0.392877 0.214741 0.657679 0.137579
H43   H     H_    0.412956 0.101509 0.684964 0.133955
H44   H     H_    0.311732 0.945673 0.571526 0.130133
H45   H     H_    0.386437 0.253227 0.519625 0.164858
H46   H     H_    0.192225 0.903835 0.428058 0.127975
H47   H     H_    0.176487 0.015540 0.397543 0.089065
H48   H     H_    0.140553 0.776011 0.468714 0.130282
H49   H     H_    0.143464 0.764717 0.597950 0.135243
H50   H     H_    0.008392 0.717239 0.607810 0.115360
H51   H     H_    0.870612 0.682368 0.488582 0.128881
H52   H     H_    0.866142 0.690929 0.357594 0.158153
H53   H     H_    0.204804 0.368231 0.754049 0.134917
H54   H     H_    0.347719 0.381104 0.781079 0.164347
H55   H     H_    0.392536 0.288682 0.830394 0.130211
H56   H     H_    0.997218 0.758403 0.122564 0.159563
H57   H     H_    0.294323 0.183926 0.854056 0.127455
H58   H     H_    0.150341 0.168967 0.825146 0.134398
H59   H     H_    0.820151 0.207907 0.550551 0.115588
H60   H     H_    0.681827 0.097814 0.411096 0.125998
H61   H     H_    0.616171 0.941915 0.368642 0.145934
H62   H     H_    0.690093 0.896106 0.465926 0.161630
H63   H     H_    0.829302 0.005556 0.604521 0.100407
H64   H     H_    0.169110 0.110247 0.299062 0.139427
H65   H     H_    0.051691 0.013044 0.309553 0.128130
H66   H     H_    0.900854 0.984394 0.233008 0.139813
H67   H     H_    0.988053 0.865571 0.229720 0.155171
H68   H     H_    0.867478 0.054860 0.145470 0.137930
H69   H     H_    0.984327 0.153376 0.134530 0.138151
H70   H     H_    0.220984 0.711044 0.078112 0.143768
H71   H     H_    0.244363 0.780129 0.990573 0.127644
H72   H     H_    0.338208 0.939880 0.063214 0.129788
H73   H     H_    0.409296 0.031216 0.224852 0.136415
H74   H     H_    0.388407 0.963696 0.314396 0.133841
H75   H     H_    0.136835 0.373943 0.883098 0.176028
H76   H     H_    0.132687 0.304415 0.252673 0.181885
O1    O     O_R   0.591640 0.539900 0.448310 -0.627627
O2    O     O_R   0.948270 0.908330 0.356580 -0.616186
O3    O     O_R   0.960090 0.908280 0.551610 -0.627606
O4    O     O_R   0.591610 0.643330 0.551710 -0.609521
O5    O     O_R   0.856650 0.908310 0.448190 -0.576646
O6    O     O_R   0.051730 0.091500 0.643240 -0.618344
O7    O     O_R   0.948290 0.091530 0.539820 -0.618249
O8    O     O_R   0.143350 0.091510 0.551630 -0.599961
O9    O     O_R   0.039910 0.091550 0.448210 -0.627109
O10   O     O_R   0.408400 0.448280 0.356670 -0.619632
O11   O     O_R   0.408370 0.551710 0.460080 -0.554781
O12   O     O_R   0.051750 0.643320 0.091550 -0.639954
O13   O     O_R   0.408390 0.356670 0.448290 -0.644902
O14   O     O_R   0.408360 0.460100 0.551690 -0.565177
O15   O     O_R   0.591630 0.448290 0.539920 -0.631852
O16   O     O_R   0.591600 0.551720 0.643330 -0.582120
O17   O     O_R   0.948300 0.539910 0.091570 -0.581787
O18   O     O_R   0.039910 0.448280 0.091610 -0.601095
O19   O     O_R   0.143370 0.551700 0.091590 -0.650275
O20   O     O_R   0.948300 0.356650 0.908390 -0.581034
O21   O     O_R   0.051750 0.460070 0.908380 -0.630377
O22   O     O_R   0.856690 0.448280 0.908350 -0.602946
O23   O     O_R   0.960140 0.551690 0.908340 -0.625921
O24   O     O_R   0.051710 0.908290 0.460000 -0.622784
Zn1   Zn    Zn3+2 0.500020 0.430940 0.430950 0.969490
Zn2   Zn    Zn3+2 0.499980 0.569060 0.569050 1.077719
Zn3   Zn    Zn3+2 0.930950 0.430940 0.999980 1.033308
Zn4   Zn    Zn3+2 0.069100 0.569040 0.999960 0.935876
Zn5   Zn    Zn3+2 0.069070 0.999890 0.568970 0.964133
Zn6   Zn    Zn3+2 0.930930 0.999930 0.430860 0.985617

loop_
_geom_bond_atom_site_label_1
_geom_bond_atom_site_label_2
_ccdc_geom_bond_type
C47   C48   A    
C24   O10   A    
C33   C34   A    
C118  C119  A    
C5    H41   S    
Br7   C90   S    
O17   Zn3   S    
C13   H12   S    
O14   Zn2   S    
C97   C98   A    
C19   C87   S    
C87   C88   A    
C77   O9    A    
C64   C77   S    
C97   C102  A    
C120  C121  A    
O12   Zn4   S    
C11   H47   S    
C40   H70   S    
C137  C138  A    
C35   H23   S    
C56   C110  S    
C75   O5    A    
C45   C46   A    
C19   C25   A    
C60   C67   S    
C32   C38   A    
C4    C5    A    
C10   H46   S    
C93   C94   A    
C74   C81   S    
C30   H62   S    
C107  H11   S    
C98   H4    S    
C51   C96   A    
C116  C118  A    
C20   C21   A    
C63   C136  S    
C2    C128  A    
C10   C11   A    
C130  C135  A    
C76   C88   S    
C22   C23   A    
C78   C80   A    
C71   O20   A    
C74   O2    A    
C98   C99   A    
C16   H50   S    
C50   C52   A    
C7    C8    A    
C113  H17   S    
C120  H22   S    
C26   C89   S    
C114  H18   S    
C100  C101  A    
C31   H63   S    
C61   C68   A    
C61   C63   A    
C26   C27   A    
C65   C66   A    
C5    C136  A    
C79   C123  S    
C59   C130  S    
C62   C73   A    
Br1   C45   S    
C110  C111  A    
C104  C105  A    
C54   C56   A    
C84   C95   A    
C55   O14   A    
C13   C35   A    
C73   C84   A    
C27   H59   S    
C103  C104  A    
C8    C9    A    
C104  H9    S    
C86   H75   S    
C132  H32   S    
C15   C16   A    
C49   C75   S    
C1    O4    A    
C71   O21   A    
C102  H8    S    
C21   C22   A    
C101  H7    S    
C78   H56   S    
C48   C103  S    
C23   H57   S    
C3    C138  A    
C112  H16   S    
O24   Zn5   S    
O6    Zn5   S    
C99   H5    S    
C58   C59   A    
C4    H40   S    
O18   Zn3   S    
O3    Zn5   S    
O21   Zn4   S    
C100  H6    S    
C109  H14   S    
C29   H61   S    
C111  H15   S    
C86   C87   A    
C34   C36   A    
C1    O1    A    
O9    Zn6   S    
O13   Zn1   S    
Br4   C61   S    
C35   C45   A    
C89   C90   A    
C79   C91   A    
C24   O11   A    
C2    C13   A    
C32   C96   S    
C44   H74   S    
C20   H53   S    
C80   H67   S    
C74   O24   A    
C26   C31   A    
C70   O19   A    
C135  H36   S    
C71   C92   S    
C95   C106  A    
C16   C17   A    
C129  H30   S    
O22   Zn3   S    
C106  C117  A    
C64   C65   A    
O1    Zn1   S    
C17   C18   A    
C37   C38   A    
C12   C82   S    
C42   H72   S    
C43   C44   A    
C41   H71   S    
C52   C53   A    
C36   H66   S    
C27   C28   A    
C127  H29   S    
O23   Zn4   S    
C59   C60   A    
C6    C65   S    
C46   C84   S    
C29   C30   A    
C131  H31   S    
C78   C85   A    
C83   C85   A    
C123  C129  A    
C121  H24   S    
C93   C117  S    
C39   C40   A    
C6    C7    A    
C86   C92   A    
C122  H25   S    
C111  C112  A    
C21   H54   S    
C46   C128  A    
C88   C89   A    
C23   C25   A    
C9    C10   A    
C116  C122  A    
C42   C43   A    
C28   H60   S    
C132  C133  A    
C94   C96   A    
C76   O7    A    
C113  C114  A    
Br5   C83   S    
C66   C68   A    
C108  H13   S    
C33   H64   S    
C62   C117  A    
C119  H21   S    
C40   C41   A    
C91   C93   A    
C47   C97   S    
C57   C58   A    
C90   C92   A    
C125  C126  A    
C58   C116  S    
C1    C53   S    
C67   O15   A    
C25   H58   S    
C62   H2    S    
C48   C49   A    
C99   C100  A    
C82   C83   A    
C119  C120  A    
C76   O6    A    
C2    C39   S    
C112  C113  A    
C94   H76   S    
C69   O17   A    
C121  C122  A    
C75   O3    A    
Br3   C54   S    
C127  C129  A    
C22   H55   S    
C128  H3    S    
C32   C33   A    
C70   O18   A    
C126  H28   S    
C36   C37   A    
C133  H33   S    
O20   Zn3   S    
C6    C11   A    
O19   Zn4   S    
C12   C14   A    
C136  C137  A    
C118  H20   S    
C77   O8    A    
C131  C132  A    
Br2   C50   S    
O11   Zn2   S    
O4    Zn2   S    
C39   C44   A    
C138  H38   S    
C9    H44   S    
C52   H34   S    
C124  H26   S    
C7    H42   S    
C72   O23   A    
C126  C127  A    
C38   H69   S    
C107  C108  A    
C54   C60   A    
C103  C109  A    
O10   Zn1   S    
C43   H73   S    
Br6   C91   S    
C137  H37   S    
C81   C82   A    
C63   C64   A    
C101  C102  A    
C56   C57   A    
C70   C73   S    
C49   C50   A    
C30   C31   A    
C12   C18   A    
C47   C53   A    
C69   C85   S    
C69   O12   A    
C3    H39   S    
C108  C109  A    
C124  C125  A    
C37   H68   S    
C110  C115  A    
C123  C124  A    
C18   H52   S    
Br8   C95   S    
C51   C79   A    
O7    Zn6   S    
C17   H51   S    
C130  C131  A    
O2    Zn6   S    
C55   O13   A    
C66   H45   S    
C115  H19   S    
C72   O22   A    
C134  H35   S    
C80   C81   A    
C28   C29   A    
C41   C42   A    
C55   C68   S    
C15   H49   S    
C19   C20   A    
C134  C135  A    
C14   C15   A    
C14   H48   S    
C67   O16   A    
C105  H10   S    
C24   C106  S    
C114  C115  A    
C133  C134  A    
C125  H27   S    
C8    H43   S    
C57   C72   S    
C34   H65   S    
O8    Zn5   S    
C3    C4    A    
C51   H1    S    
O5    Zn6   S    
C105  C107  A    
O15   Zn1   S    
O16   Zn2   S    
