data_mof_unit_42734.cif
_audit_creation_date              2013-03-05T16:33:41-0500
_audit_creation_method            fapswitch 2.2
_symmetry_space_group_name_H-M    P1
_symmetry_Int_Tables_number       1
_space_group_crystal_system       triclinic
_cell_length_a                    9.103254
_cell_length_b                    10.891715
_cell_length_c                    9.601374
_cell_angle_alpha                 91.151869
_cell_angle_beta                  91.125907
_cell_angle_gamma                 91.759599
_cell_volume                      951.13985752

loop_
_atom_site_label
_atom_site_type_symbol
_atom_site_description
_atom_site_fract_x
_atom_site_fract_y
_atom_site_fract_z
_atom_type_partial_charge
O1    O     O_R   0.500000 0.319640 0.618810 -0.543694
O2    O     O_R   0.500020 0.319680 0.381230 -0.543674
C1    C     C_R   0.500650 0.262577 0.498823 0.825483
O3    O     O_R   0.288380 0.499980 0.618770 -0.584689
O4    O     O_R   0.288400 0.500020 0.381190 -0.526030
C2    C     C_R   0.220779 0.499665 0.499159 0.852094
Cu1   Cu    Cu3+1 0.499990 0.499980 0.640670 1.008681
Cu2   Cu    Cu3+1 0.500010 0.500020 0.359330 1.019062
O5    O     O_R   0.499980 0.680320 0.618770 -0.592257
O6    O     O_R   0.500000 0.680360 0.381190 -0.599449
O7    O     O_R   0.711600 0.499980 0.618810 -0.536566
O8    O     O_R   0.711620 0.500020 0.381230 -0.587648
C3    C     C_R   0.506749 0.737769 0.501127 0.775304
C4    C     C_R   0.779214 0.500146 0.500828 0.828293
C5    C     C_1   0.065495 0.499721 0.498825 -0.098332
C6    C     C_1   0.934493 0.499909 0.501039 -0.105992
C7    C     C_R   0.551177 0.068693 0.617430 0.053864
C8    C     C_R   0.513408 0.130027 0.496309 -0.119106
C9    C     C_R   0.495042 0.061160 0.371854 -0.168517
H1    H     H_    0.469615 0.105146 0.274528 0.219192
C10   C     C_R   0.496620 0.933008 0.374470 -0.244223
H2    H     H_    0.468124 0.882030 0.279528 0.165064
C11   C     C_R   0.523886 0.871586 0.499958 -0.092287
C12   C     C_R   0.566887 0.942904 0.618173 -0.038936
C13   C     C_3   0.527900 0.935454 0.769774 -0.305949
C14   C     C_3   0.488239 0.072558 0.761536 0.277182
H3    H     H_    0.433288 0.871126 0.788162 0.154430
C15   C     C_R   0.628558 0.503148 0.076019 0.181494
N1    N     N_R   0.500920 0.500930 0.147930 -0.245570
C16   C     C_R   0.374177 0.474696 0.069528 0.406120
C17   C     C_R   0.373877 0.481548 0.922070 -0.148728
H4    H     H_    0.271881 0.464430 0.864778 0.210762
N2    N     N_R   0.500930 0.500890 0.852020 -0.245489
C18   C     C_R   0.628975 0.501251 0.929162 0.302528
C19   C     C_3   0.749904 0.597252 0.929669 0.112103
C20   C     C_3   0.748359 0.598153 0.088277 -0.524909
H5    H     H_    0.714464 0.681808 0.879596 0.105263
H6    H     H_    0.848959 0.562226 0.138194 0.264184
H7    H     H_    0.708574 0.683451 0.136761 0.179135
C21   C     C_R   0.660853 0.914827 0.865288 0.173984
C22   C     C_R   0.640408 0.912845 0.009810 -0.092721
C23   C     C_R   0.761280 0.914422 0.102276 -0.144557
C24   C     C_R   0.903509 0.909306 0.051616 -0.078086
C25   C     C_R   0.925455 0.904541 0.908392 -0.060737
C26   C     C_R   0.805592 0.908262 0.815380 -0.130059
H8    H     H_    0.530589 0.916467 0.050312 0.133814
H9    H     H_    0.744971 0.917188 0.213467 0.145141
H10   H     H_    0.996634 0.908143 0.123366 0.136970
H11   H     H_    0.035830 0.899173 0.869385 0.160907
H12   H     H_    0.827173 0.906898 0.705106 0.125144
C27   C     C_R   0.321711 0.094698 0.756754 0.039897
C28   C     C_R   0.257380 0.181348 0.845811 -0.106791
C29   C     C_R   0.109226 0.208418 0.830914 -0.086475
C30   C     C_R   0.023498 0.153283 0.723813 -0.074217
C31   C     C_R   0.083102 0.064879 0.637033 -0.177634
C32   C     C_R   0.229304 0.033301 0.655558 -0.187572
H13   H     H_    0.319849 0.230414 0.926292 0.198367
H14   H     H_    0.062012 0.273352 0.902206 0.230914
H15   H     H_    0.910538 0.177433 0.708581 0.202863
H16   H     H_    0.015734 0.020150 0.555626 0.140461
H17   H     H_    0.270360 0.963340 0.586944 0.152654
N3    N     N_R   0.573672 0.155755 0.858727 0.126610
O9    O     O_R   0.677909 0.228184 0.814212 -0.350701
O10   O     O_R   0.549533 0.155122 0.991869 -0.406349
N4    N     N_R   0.244665 0.425482 0.131598 0.123106
O11   O     O_R   0.248379 0.318486 0.189217 -0.369710
O12   O     O_R   0.118004 0.471884 0.102835 -0.363839
N5    N     N_R   0.888307 0.552994 0.875878 0.173011
O13   O     O_R   0.001666 0.628140 0.869835 -0.377673
O14   O     O_R   0.900081 0.439724 0.833333 -0.344912

loop_
_geom_bond_atom_site_label_1
_geom_bond_atom_site_label_2
_geom_bond_distance
_ccdc_geom_bond_type
C25   H11   1.082019 S    
C5    C6    1.193216 T    
O4    Cu2   1.941835 S    
C11   C12   1.404743 A    
C17   N2    1.362262 A    
N1    C16   1.384361 A    
C32   H17   1.077640 S    
C13   H3    1.112539 S    
C22   C23   1.399666 A    
C9    H1    1.082876 S    
Cu2   O8    1.933671 S    
C29   H14   1.078997 S    
C31   H16   1.082530 S    
C31   C32   1.393746 A    
C20   H6    1.110757 S    
O2    C1    1.299928 A    
C14   N3    1.480198 S    
C15   C18   1.409846 A    
Cu1   Cu2   2.701262 S    
N4    O11   1.301111 A    
O1    Cu1   1.971197 S    
C29   C30   1.393531 A    
C28   C29   1.394581 A    
Cu1   O7    1.941836 S    
Cu1   N2    2.028925 S    
C15   C20   1.481457 S    
C28   H13   1.074040 S    
N3    O9    1.299590 A    
C22   H8    1.081333 S    
C26   H12   1.080541 S    
C24   C25   1.393626 A    
O3    Cu1   1.933670 S    
O4    C2    1.299736 A    
Cu2   N1    2.030133 S    
C19   N5    1.462655 S    
C10   H2    1.080772 S    
C21   C22   1.404164 A    
C19   H5    1.101516 S    
O8    C4    1.292032 A    
C7    C8    1.395169 A    
C30   H15   1.077137 S    
C10   C11   1.411266 A    
C13   C21   1.528949 S    
C16   C17   1.419220 A    
C18   C19   1.494690 S    
O7    C4    1.299801 A    
C4    C6    1.413590 S    
C2    C5    1.413542 S    
C7    C12   1.382017 A    
N4    O12   1.300025 A    
C23   C24   1.394330 A    
C7    C14   1.508216 S    
O3    C2    1.292107 A    
C27   C28   1.409241 A    
C16   N4    1.426227 S    
C23   H9    1.080691 S    
N2    C18   1.368569 A    
C12   C13   1.508164 S    
C3    C11   1.461341 S    
C1    C8    1.451663 S    
Cu2   O6    1.971197 S    
C8    C9    1.402455 A    
C24   H10   1.082337 S    
Cu1   O5    1.979637 S    
N5    O14   1.299977 A    
O5    C3    1.303819 A    
C30   C31   1.390450 A    
C15   N1    1.363022 A    
N3    O10   1.301457 A    
C21   C26   1.414217 A    
C9    C10   1.397037 A    
C13   C14   1.550256 S    
C14   C27   1.542240 S    
C20   H7    1.104942 S    
C17   H4    1.079179 S    
O2    Cu2   1.979635 S    
C25   C26   1.398442 A    
C19   C20   1.523028 S    
N5    O13   1.300211 A    
O1    C1    1.298163 A    
O6    C3    1.298759 A    
C27   C32   1.416363 A    
