data_mof_unit_37890.cif
_audit_creation_date              2012-12-10T17:02:14-0500
_audit_creation_method            fapswitch 2.2
_symmetry_space_group_name_H-M    P1
_symmetry_Int_Tables_number       1
_space_group_crystal_system       triclinic
_cell_length_a                    10.625359
_cell_length_b                    10.682566
_cell_length_c                    10.022172
_cell_angle_alpha                 89.052749
_cell_angle_beta                  89.865684
_cell_angle_gamma                 90.179743
_cell_volume                      1137.41331946

loop_
_atom_site_label
_atom_site_type_symbol
_atom_type_description
_atom_site_fract_x
_atom_site_fract_y
_atom_site_fract_z
_atom_type_partial_charge
C1    C     C_R   0.493037 0.262605 0.501104 0.929953
C2    C     C_R   0.065386 0.387819 0.565673 0.090712
C3    C     C_R   0.128214 0.487895 0.500107 -0.094895
C4    C     C_R   0.064634 0.582211 0.431054 -0.211987
C5    C     C_R   0.936101 0.582047 0.430712 -0.198417
C6    C     C_R   0.871615 0.487608 0.499470 -0.094137
C7    C     C_2   0.439350 0.933666 0.395945 0.516478
C8    C     C_2   0.499420 0.870196 0.493466 -0.445102
C9    C     C_2   0.447440 0.069539 0.393015 -0.243430
C10   C     C_2   0.469132 0.131598 0.505115 -0.416240
C11   C     C_2   0.594380 0.538370 0.924543 -0.268516
C12   C     C_R   0.260510 0.496491 0.500180 0.870129
C13   C     C_2   0.587266 0.555477 0.074823 0.494284
C14   C     C_R   0.498031 0.737558 0.498604 0.974883
C15   C     C_R   0.739429 0.496413 0.499910 0.860967
C16   C     C_R   0.130113 0.286961 0.627662 -0.179731
C17   C     C_R   0.063926 0.188980 0.689431 -0.125632
C18   C     C_R   0.932980 0.188885 0.689188 -0.136161
C19   C     C_R   0.867759 0.286742 0.627094 -0.183265
C20   C     C_R   0.933474 0.387690 0.565361 0.091283
H1    H     H_    0.114867 0.657466 0.379808 0.172136
H2    H     H_    0.415667 0.488593 0.898174 0.158624
H3    H     H_    0.437448 0.444066 0.102003 0.109494
H4    H     H_    0.231663 0.281683 0.627402 0.148617
H5    H     H_    0.114379 0.112289 0.736433 0.134825
H6    H     H_    0.881771 0.112123 0.736032 0.137734
H7    H     H_    0.766166 0.281255 0.626255 0.151174
H8    H     H_    0.557645 0.914796 0.567748 0.112557
N1    N     N_2   0.501340 0.501330 0.852150 -0.208824
N2    N     N_2   0.501380 0.501360 0.147810 -0.220594
O1    O     O_R   0.499980 0.319060 0.613040 -0.626835
O2    O     O_R   0.500020 0.319100 0.386900 -0.613628
O3    O     O_R   0.316750 0.499980 0.613090 -0.622492
O4    O     O_R   0.316790 0.500020 0.386950 -0.613363
O5    O     O_R   0.499980 0.680900 0.613100 -0.616034
O6    O     O_R   0.500020 0.680940 0.386960 -0.571278
O7    O     O_R   0.683210 0.499980 0.613050 -0.626956
O8    O     O_R   0.683250 0.500020 0.386910 -0.555920
Zn1   Zn    Zn3+2 0.499970 0.499970 0.650990 0.931129
Zn2   Zn    Zn3+2 0.500030 0.500030 0.349010 0.984759
H9    H     H_    0.465344 0.086852 0.603101 0.160701
H10   H     H_    0.681579 0.562888 0.874236 0.189007
O9    O     O_3   0.683628 0.617213 0.140470 -0.599908
C21   C     C_3   0.709916 0.736251 0.082370 0.038179
H11   H     H_    0.698313 0.806887 0.161557 0.155590
H12   H     H_    0.645330 0.764973 0.999728 0.115804
C22   C     C_3   0.846713 0.740659 0.034272 -0.320945
H13   H     H_    0.910315 0.720224 0.119771 0.227542
H14   H     H_    0.862100 0.668169 0.957835 0.219011
C23   C     C_3   0.880306 0.868786 0.974330 -0.974139
H15   H     H_    0.819823 0.889955 0.886591 0.261841
H16   H     H_    0.980175 0.869142 0.941355 0.267027
H17   H     H_    0.867699 0.942774 0.049757 0.265688
H18   H     H_    0.886559 0.657225 0.379365 0.161886
O10   O     O_3   0.363051 0.872549 0.305046 -0.629959
C24   C     C_3   0.412968 0.883587 0.174100 0.103931
H19   H     H_    0.435465 0.787872 0.139830 0.167818
H20   H     H_    0.501668 0.939665 0.165758 0.095524
C25   C     C_3   0.313811 0.939947 0.080778 -0.350501
H21   H     H_    0.226771 0.881988 0.085793 0.233735
H22   H     H_    0.290361 0.036046 0.113363 0.220681
C26   C     C_3   0.360879 0.945732 0.936698 -0.977411
H23   H     H_    0.446453 0.005433 0.928689 0.263209
H24   H     H_    0.286798 0.986498 0.871406 0.264556
H25   H     H_    0.383272 0.850261 0.901409 0.270311
H26   H     H_    0.437763 0.118277 0.297624 0.174521

loop_
_geom_bond_atom_site_label_1
_geom_bond_atom_site_label_2
_ccdc_geom_bond_type
C23   H16   S    
O10   C24   S    
C21   C22   S    
C15   O8    A    
C26   H23   S    
H2    N1    S    
C2    C16   A    
O7    Zn1   S    
C6    C20   A    
C9    C10   D    
C5    H18   S    
O5    Zn1   S    
C19   C20   A    
C18   H6    S    
C24   C25   S    
C7    O10   S    
O9    C21   S    
C17   H5    S    
N1    Zn1   S    
C13   O9    S    
C26   H24   S    
C17   C18   A    
C6    C15   S    
N2    Zn2   S    
C25   H21   S    
C22   H14   S    
C21   H11   S    
C10   H9    S    
O8    Zn2   S    
C4    H1    S    
C11   C13   S    
O3    Zn1   S    
O4    Zn2   S    
O1    Zn1   S    
C2    C3    A    
C22   C23   S    
O2    Zn2   S    
C14   O6    A    
C5    C6    A    
C8    H8    S    
C25   H22   S    
C23   H17   S    
C7    C8    D    
C12   O4    A    
C3    C4    A    
H3    N2    S    
C13   N2    D    
C1    O1    A    
C19   H7    S    
C24   H19   S    
C11   N1    D    
C11   H10   S    
C16   H4    S    
C18   C19   A    
C14   O5    A    
C7    C9    S    
C9    H26   S    
C15   O7    A    
O6    Zn2   S    
C8    C14   S    
C3    C12   S    
C26   H25   S    
C23   H15   S    
C12   O3    A    
C24   H20   S    
C2    C20   A    
C1    O2    A    
C1    C10   S    
C22   H13   S    
C16   C17   A    
C21   H12   S    
C4    C5    A    
C25   C26   S    
