data_mof_unit_18614.cif
_audit_creation_date              2013-03-05T15:54:20-0500
_audit_creation_method            fapswitch 2.2
_symmetry_space_group_name_H-M    P1
_symmetry_Int_Tables_number       1
_space_group_crystal_system       triclinic
_cell_length_a                    15.191224
_cell_length_b                    14.963947
_cell_length_c                    14.947448
_cell_angle_alpha                 109.532929
_cell_angle_beta                  109.019354
_cell_angle_gamma                 110.275345
_cell_volume                      2601.99098722

loop_
_atom_site_label
_atom_site_type_symbol
_atom_site_description
_atom_site_fract_x
_atom_site_fract_y
_atom_site_fract_z
_atom_type_partial_charge
C1    C     C_R   0.955309 0.771103 0.049168 0.546768
N1    N     N_R   0.995640 0.706130 0.053910 -0.094779
C2    C     C_R   0.793770 0.195269 0.701777 -0.171064
H1    H     H_    0.829386 0.166814 0.655174 0.104791
N2    N     N_R   0.848310 0.293860 0.791110 -0.045543
C3    C     C_R   0.035218 0.591375 0.776676 -0.130728
H2    H     H_    0.072563 0.675504 0.797787 0.103515
N3    N     N_R   0.054010 0.556790 0.847890 -0.039210
C4    C     C_R   0.698573 0.407813 0.999590 0.336703
N4    N     N_R   0.789940 0.443190 0.997130 -0.093405
C5    C     C_R   0.940586 0.407190 0.684425 -0.122571
H3    H     H_    0.887604 0.321500 0.620957 0.094858
N5    N     N_R   0.997630 0.443170 0.791110 -0.043988
C6    C     C_R   0.791515 0.591207 0.093963 -0.190081
H4    H     H_    0.822655 0.675472 0.152556 0.165851
N6    N     N_R   0.846320 0.556810 0.053910 -0.062430
C7    C     C_R   0.701512 0.194371 0.790516 -0.101778
H5    H     H_    0.652513 0.163574 0.823154 0.167362
N7    N     N_R   0.791080 0.293860 0.847890 -0.053241
C8    C     C_R   0.049714 0.776725 0.961703 -0.225417
H6    H     H_    0.098357 0.807369 0.928679 0.129873
N8    N     N_R   0.052880 0.706130 0.997130 -0.063180
C9    C     C_R   0.980948 0.810909 0.984321 -0.081750
C10   C     C_R   0.701259 0.130876 0.698688 0.099680
C11   C     C_R   0.961300 0.499885 0.673526 0.067935
C12   C     C_R   0.697318 0.499641 0.059765 -0.080283
C13   C     C_R   0.996370 0.590910 0.299536 -0.201851
H7    H     H_    0.014533 0.673397 0.347307 0.114690
N9    N     N_R   0.002370 0.556830 0.208890 -0.044540
C14   C     C_R   0.221460 0.406765 0.958965 0.039874
H8    H     H_    0.197557 0.321110 0.923843 0.122007
N10   N     N_R   0.153680 0.443190 0.946090 -0.064005
C15   C     C_R   0.313381 0.758496 0.224668 -0.130513
H9    H     H_    0.375871 0.773577 0.204503 0.106614
N11   N     N_R   0.208920 0.706140 0.152110 -0.040360
C16   C     C_R   0.899489 0.193135 0.988598 -0.142061
H10   H     H_    0.832299 0.164401 0.002231 0.116097
N12   N     N_R   0.947120 0.293870 0.002870 -0.041693
C17   C     C_R   0.994087 0.195156 0.902006 -0.070763
H11   H     H_    0.017345 0.168733 0.841477 0.070108
N13   N     N_R   0.004360 0.293870 0.946090 -0.044284
C18   C     C_R   0.222277 0.757100 0.315838 -0.132776
H12   H     H_    0.199483 0.768921 0.378097 0.170101
N14   N     N_R   0.151690 0.706140 0.208890 -0.057994
C19   C     C_R   0.910920 0.407869 0.211541 -0.070203
H13   H     H_    0.856126 0.322497 0.181960 0.127802
N15   N     N_R   0.945990 0.443210 0.152110 -0.043519
C20   C     C_R   0.313527 0.591240 0.039736 -0.182257
H14   H     H_    0.373679 0.673731 0.067794 0.100795
N16   N     N_R   0.210060 0.556810 0.002870 -0.039790
Ni1   Ni    Ni4+2 0.999010 0.630300 0.130220 0.203259
Ni2   Ni    Ni4+2 0.000990 0.369700 0.869780 0.212967
Ni3   Ni    Ni4+2 0.130280 0.630280 0.000000 0.211475
Ni4   Ni    Ni4+2 0.869720 0.369720 0.000000 0.253494
C21   C     C_R   0.939114 0.499738 0.303712 0.078659
C22   C     C_R   0.323674 0.498988 0.019325 0.072339
C23   C     C_R   0.325175 0.788486 0.328002 0.118078
C24   C     C_R   0.926956 0.129029 0.925392 0.085086
C25   C     C_3   0.517292 0.445953 0.931659 -0.553311
H15   H     H_    0.504335 0.365054 0.879863 0.205772
H16   H     H_    0.550783 0.497904 0.898948 0.152551
C26   C     C_3   0.410640 0.438218 0.918975 0.426724
H17   H     H_    0.401275 0.491357 0.883549 0.096256
H18   H     H_    0.533998 0.352251 0.067255 0.247395
C27   C     C_3   0.555378 0.438845 0.109633 -0.478249
C28   C     C_3   0.624577 0.620581 0.115105 -0.401136
C29   C     C_3   0.600491 0.500650 0.055209 0.302430
H19   H     H_    0.681040 0.661344 0.204580 0.166066
H20   H     H_    0.662609 0.670849 0.083352 0.179367
C30   C     C_3   0.422814 0.497004 0.034975 0.053145
C31   C     C_3   0.457687 0.449496 0.111031 0.193780
C32   C     C_3   0.519335 0.618750 0.096159 -0.546308
H21   H     H_    0.505662 0.659240 0.046796 0.176329
H22   H     H_    0.528784 0.669327 0.176560 0.185885
H23   H     H_    0.619809 0.475598 0.195343 0.166190
H24   H     H_    0.489460 0.513487 0.196620 0.106004
C33   C     C_R   0.622655 0.966667 0.519918 0.163353
C34   C     C_R   0.623941 0.014302 0.618422 -0.019995
C35   C     C_R   0.535631 0.954514 0.627193 -0.363911
H25   H     H_    0.536609 0.982907 0.704408 0.170036
C36   C     C_R   0.437607 0.866985 0.532196 0.560827
C37   C     C_R   0.429183 0.843471 0.428656 -0.131107
C38   C     C_R   0.526333 0.883033 0.426032 0.092272
C39   C     C_3   0.557868 0.926742 0.357558 -0.477233
C40   C     C_3   0.662957 0.017549 0.460160 -0.497084
H26   H     H_    0.568977 0.869872 0.297952 0.182946
H27   H     H_    0.507428 0.958641 0.323312 0.201862
H28   H     H_    0.734173 0.012403 0.459944 0.185043
H29   H     H_    0.671160 0.099911 0.482560 0.199542
C41   C     C_R   0.947576 0.601822 0.477882 0.148542
C42   C     C_R   0.902986 0.502049 0.382891 0.032858
C43   C     C_R   0.837856 0.403591 0.375808 -0.169852
H30   H     H_    0.793589 0.324960 0.300978 0.154908
C44   C     C_R   0.844454 0.404006 0.471376 -0.202020
H31   H     H_    0.804353 0.325681 0.466517 0.132414
C45   C     C_R   0.916805 0.502654 0.572888 0.031809
C46   C     C_R   0.955773 0.602191 0.572432 0.165824
C47   C     C_3   0.064377 0.706556 0.642222 -0.524004
C48   C     C_3   0.054459 0.706778 0.539031 -0.505888
H32   H     H_    0.062753 0.776601 0.697634 0.190713
H33   H     H_    0.132230 0.694695 0.681201 0.197386
H34   H     H_    0.045619 0.776040 0.534306 0.194513
H35   H     H_    0.117064 0.696199 0.521709 0.212944
C49   C     C_R   0.849275 0.878455 0.942557 0.156122
C50   C     C_R   0.932770 0.862824 0.933364 0.060458
C51   C     C_R   0.965734 0.894173 0.865520 -0.169258
H36   H     H_    0.018331 0.872459 0.841283 0.124297
C52   C     C_R   0.942689 0.967641 0.839911 -0.201150
H37   H     H_    0.981892 0.001226 0.800731 0.126982
C53   C     C_R   0.889550 0.012175 0.885219 0.028241
C54   C     C_R   0.826579 0.951207 0.917146 0.155200
C55   C     C_3   0.789523 0.977623 0.998698 -0.590512
C56   C     C_3   0.813852 0.897693 0.026150 -0.400438
H38   H     H_    0.843543 0.062168 0.071080 0.205249
H39   H     H_    0.701737 0.949463 0.959135 0.210397
H40   H     H_    0.879873 0.944003 0.112008 0.224038
H41   H     H_    0.740396 0.823258 0.003130 0.191137
O1    O     O_3   0.931632 0.819393 0.126848 -0.710392
C57   C     C_3   0.029064 0.902112 0.227413 0.170306
H42   H     H_    0.027726 0.980072 0.255618 0.119775
H43   H     H_    0.104826 0.921667 0.222430 0.102851
C58   C     C_3   0.034781 0.867738 0.313244 -0.320211
H44   H     H_    0.962921 0.854958 0.323494 0.197385
H45   H     H_    0.033725 0.788953 0.283788 0.198253
C59   C     C_3   0.137370 0.953712 0.423601 -1.003226
H46   H     H_    0.210486 0.965890 0.416104 0.278396
H47   H     H_    0.137618 0.924442 0.482648 0.269284
H48   H     H_    0.139763 0.033563 0.455145 0.268563
O2    O     O_3   0.314831 0.333049 0.837988 -0.688276
C60   C     C_3   0.313819 0.240369 0.844454 0.231813
H49   H     H_    0.248383 0.202665 0.860863 0.134504
H50   H     H_    0.389486 0.259352 0.909193 0.164382
C61   C     C_3   0.288749 0.153910 0.734797 -0.305984
H51   H     H_    0.212644 0.134056 0.667862 0.201876
H52   H     H_    0.355456 0.187517 0.718253 0.225978
C62   C     C_3   0.275726 0.048108 0.735433 -0.892281
H53   H     H_    0.346210 0.066634 0.807789 0.306594
H54   H     H_    0.270393 0.991686 0.660714 0.273970
H55   H     H_    0.200765 0.005656 0.737414 0.241964
N17   N     N_R   0.369610 0.349311 0.091041 0.219837
O3    O     O_R   0.374411 0.259871 0.069445 -0.421111
O4    O     O_R   0.304300 0.359812 0.126883 -0.416789
O5    O     O_3   0.347302 0.821906 0.541699 -0.679475
C63   C     C_3   0.348655 0.743890 0.574668 0.143896
H56   H     H_    0.308830 0.745453 0.625243 0.141839
H57   H     H_    0.431878 0.763269 0.627476 0.091274
C64   C     C_3   0.284290 0.628056 0.473987 -0.308791
H58   H     H_    0.203152 0.611314 0.420287 0.216338
H59   H     H_    0.327429 0.623176 0.426682 0.205647
C65   C     C_3   0.269614 0.539957 0.506741 -0.962713
H60   H     H_    0.349673 0.554352 0.560201 0.264462
H61   H     H_    0.223856 0.457336 0.432102 0.279107
H62   H     H_    0.223297 0.541077 0.550931 0.260340
N18   N     N_R   0.637885 0.299738 0.980939 0.202689
O6    O     O_R   0.665956 0.278621 0.059866 -0.454501
O7    O     O_R   0.547572 0.225952 0.889551 -0.488649

loop_
_geom_bond_atom_site_label_1
_geom_bond_atom_site_label_2
_geom_bond_distance
_ccdc_geom_bond_type
C28   H19   1.113853 S    
N3    N5    1.377181 A    
N11   Ni3   1.857190 S    
C48   H35   1.110870 S    
C64   H58   1.110391 S    
C39   H27   1.112752 S    
C55   H38   1.109517 S    
C36   C37   1.418088 A    
C17   N13   1.327732 A    
C33   C34   1.395044 A    
N9    N15   1.377183 A    
C12   C29   1.455771 S    
C16   H10   1.076204 S    
C64   H59   1.111504 S    
C39   H26   1.112200 S    
C16   C24   1.383913 A    
C62   H55   1.111012 S    
C31   H24   1.115624 S    
C15   N11   1.325399 A    
C13   C21   1.375361 A    
C57   C58   1.522416 S    
C3    C11   1.380958 A    
C13   N9    1.324707 A    
C51   H36   1.079434 S    
C33   C38   1.376500 A    
C23   C37   1.469303 S    
O5    C63   1.414523 S    
C47   C48   1.501379 S    
C52   H37   1.080248 S    
C26   C30   1.572499 S    
C1    N1    1.325253 A    
C53   C54   1.399650 A    
C55   C56   1.507065 S    
C21   C42   1.453383 S    
C25   C29   1.558458 S    
O1    C57   1.420699 S    
N10   Ni2   1.886688 S    
C54   C55   1.496107 S    
C27   C29   1.553697 S    
C65   H62   1.111452 S    
N1    N8    1.399084 A    
C61   C62   1.529724 S    
N6    Ni1   1.886690 S    
N2    Ni2   1.885728 S    
C30   C31   1.577136 S    
C4    N4    1.321025 A    
C41   C46   1.375686 A    
N18   O7    1.299023 A    
C56   H40   1.103545 S    
C19   N15   1.334168 A    
C28   C29   1.553430 S    
C33   C40   1.496860 S    
C25   H15   1.101103 S    
C26   O2    1.432018 S    
C2    C10   1.376604 A    
C18   N14   1.337057 A    
C63   C64   1.532085 S    
C18   C23   1.394971 A    
C49   C50   1.407168 A    
C4    C12   1.378563 A    
C46   C47   1.500742 S    
N8    Ni3   1.896634 S    
C57   H43   1.119292 S    
C28   C32   1.518655 S    
C25   H16   1.115553 S    
C7    C10   1.381571 A    
N16   Ni3   1.897490 S    
C64   C65   1.525258 S    
C15   H9    1.061351 S    
C39   C40   1.501434 S    
N12   N13   1.399086 A    
C62   H54   1.108982 S    
C17   H11   1.079666 S    
C35   C36   1.405586 A    
C40   H29   1.112219 S    
C34   C35   1.406616 A    
C32   H21   1.113973 S    
C3    N3    1.324809 A    
C19   H13   1.079714 S    
C17   C24   1.380437 A    
C14   C22   1.377932 A    
C6    C12   1.372007 A    
C49   C56   1.496258 S    
C60   H50   1.096947 S    
C26   H17   1.115266 S    
C59   H48   1.110568 S    
N5    Ni2   1.859659 S    
C38   C39   1.501643 S    
N12   Ni4   1.896633 S    
C8    C9    1.397202 A    
C14   H8    1.074026 S    
C57   H42   1.110051 S    
C45   C46   1.402613 A    
C43   C44   1.396789 A    
C7    H5    1.074116 S    
N17   O3    1.301874 A    
C44   C45   1.407195 A    
N11   N14   1.398960 A    
N10   N16   1.377181 A    
N18   O6    1.299339 A    
C3    H2    1.062526 S    
N15   Ni4   1.857216 S    
C56   H41   1.111876 S    
N7    Ni4   1.857192 S    
C32   H22   1.114338 S    
C20   H14   1.075584 S    
C8    N8    1.338409 A    
C4    N18   1.428545 S    
C1    C9    1.384697 A    
C47   H32   1.111728 S    
C61   H51   1.111375 S    
C6    N6    1.316177 A    
C60   C61   1.529421 S    
C18   H12   1.076856 S    
C58   H45   1.104157 S    
C2    H1    1.079941 S    
C41   C48   1.497937 S    
C42   C43   1.406375 A    
N14   Ni1   1.885728 S    
C61   H52   1.110963 S    
O2    C60   1.417321 S    
N9    Ni1   1.859659 S    
C40   H28   1.111839 S    
C10   C34   1.457389 S    
C20   C22   1.385265 A    
C25   C26   1.526252 S    
C15   C23   1.385489 A    
N13   Ni2   1.859827 S    
C24   C53   1.458729 S    
C6    H4    1.076513 S    
N17   O4    1.301637 A    
C63   H56   1.110902 S    
C2    N2    1.326826 A    
C63   H57   1.117105 S    
N3    Ni3   1.857217 S    
C49   C54   1.378256 A    
C30   C32   1.570289 S    
C5    H3    1.079629 S    
C31   N17   1.475359 S    
N2    N7    1.398961 A    
C47   H33   1.112653 S    
C50   C51   1.409072 A    
C22   C30   1.459398 S    
C27   H23   1.113684 S    
H18   C27   1.100532 S    
C58   C59   1.523392 S    
C16   N12   1.330305 A    
C60   H49   1.108757 S    
C27   C31   1.552457 S    
C14   N10   1.313124 A    
C5    N5    1.336269 A    
C41   C42   1.399492 A    
C59   H46   1.110844 S    
C51   C52   1.392290 A    
C20   N16   1.313020 A    
C43   H30   1.081228 S    
C7    N7    1.336033 A    
C52   C53   1.407752 A    
C65   H61   1.110390 S    
C1    O1    1.375139 S    
C44   H31   1.081426 S    
N4    Ni4   1.897490 S    
N1    Ni1   1.859829 S    
C35   H25   1.081378 S    
C28   H20   1.114078 S    
C36   O5    1.380916 S    
C48   H34   1.111958 S    
C8    H6    1.074346 S    
C19   C21   1.382844 A    
C11   C45   1.455976 S    
C37   C38   1.406346 A    
C13   H7    1.075062 S    
C59   H47   1.108292 S    
C5    C11   1.389809 A    
C65   H60   1.110850 S    
C62   H53   1.109977 S    
N4    N6    1.377181 A    
C58   H44   1.111600 S    
C55   H39   1.111579 S    
C9    C50   1.464830 S    
