data_mof_unit_48013.cif
_audit_creation_date              2012-12-10T19:00:14-0500
_audit_creation_method            fapswitch 2.2
_symmetry_space_group_name_H-M    P1
_symmetry_Int_Tables_number       1
_space_group_crystal_system       triclinic
_cell_length_a                    9.551454
_cell_length_b                    10.810827
_cell_length_c                    13.44158
_cell_angle_alpha                 90.595014
_cell_angle_beta                  72.750474
_cell_angle_gamma                 89.809079
_cell_volume                      1325.43695909

loop_
_atom_site_label
_atom_site_type_symbol
_atom_type_description
_atom_site_fract_x
_atom_site_fract_y
_atom_site_fract_z
_atom_type_partial_charge
C1    C     C_R   0.500138 0.737492 0.498945 0.785998
C2    C     C_R   0.431084 0.527873 0.980412 0.068733
C3    C     C_R   0.469597 0.552216 0.872322 0.089996
C4    C     C_R   0.539569 0.541622 0.032803 0.068644
C5    C     C_R   0.677969 0.592779 0.979871 0.175672
C6    C     C_R   0.705160 0.633233 0.877906 -0.241730
C7    C     C_R   0.601551 0.615024 0.825492 -0.198471
C8    C     C_R   0.515789 0.503241 0.135647 -0.227768
C9    C     C_R   0.758237 0.569929 0.133847 -0.196165
C10   C     C_R   0.373355 0.515195 0.814895 -0.104475
C11   C     C_R   0.369501 0.936510 0.524647 0.173594
C12   C     C_R   0.421557 0.507030 0.700071 0.772313
C13   C     C_R   0.501125 0.870451 0.491937 -0.107593
C14   C     C_R   0.632596 0.934181 0.449055 -0.201853
C15   C     C_R   0.632332 0.063134 0.449686 -0.203003
C16   C     C_R   0.501115 0.128773 0.494022 -0.089556
C17   C     C_R   0.369405 0.064067 0.526204 0.196847
C18   C     C_3   0.252915 0.069753 0.629080 -0.502787
C19   C     C_3   0.252133 0.929581 0.626436 -0.489637
C20   C     C_R   0.953912 0.423286 0.434217 0.193867
C21   C     C_R   0.901603 0.583959 0.557267 -0.055367
C22   C     C_R   0.049956 0.583223 0.558121 -0.077928
C23   C     C_R   0.500042 0.262301 0.500038 0.849904
C24   C     C_R   0.102350 0.424312 0.432361 0.205318
C25   C     C_3   0.108427 0.285569 0.428290 0.262473
C26   C     C_3   0.948124 0.286065 0.432201 -0.552563
C27   C     C_R   0.578228 0.502751 0.300105 0.847240
C28   C     C_R   0.786582 0.605187 0.030350 -0.196106
C29   C     C_R   0.621374 0.521109 0.187343 -0.058848
C30   C     C_R   0.231118 0.476122 0.868389 -0.206597
C31   C     C_R   0.186475 0.468450 0.976175 -0.132341
C32   C     C_R   0.285235 0.492190 0.031852 -0.133228
Cu1   Cu    Cu3+1 0.359330 0.500020 0.500010 0.977941
Cu2   Cu    Cu3+1 0.640670 0.499980 0.499990 0.949901
H1    H     H_    0.841115 0.584829 0.172877 0.160630
H2    H     H_    0.734640 0.110813 0.417991 0.166584
H3    H     H_    0.293258 0.108903 0.692293 0.197975
H4    H     H_    0.148563 0.110666 0.624103 0.199496
H5    H     H_    0.290846 0.886954 0.688601 0.192639
H6    H     H_    0.148892 0.890568 0.617576 0.201476
H7    H     H_    0.826456 0.651379 0.604300 0.126239
H8    H     H_    0.085071 0.648770 0.607051 0.134261
H9    H     H_    0.127754 0.244312 0.498128 0.090017
H10   H     H_    0.925729 0.251371 0.360378 0.235348
H11   H     H_    0.807254 0.678530 0.838200 0.136752
H12   H     H_    0.876202 0.247680 0.506064 0.181141
H13   H     H_    0.892371 0.644381 0.990348 0.140821
H14   H     H_    0.415136 0.459113 0.177744 0.198690
H15   H     H_    0.154292 0.449864 0.826776 0.160808
H16   H     H_    0.242892 0.485728 0.115289 0.166479
H17   H     H_    0.075598 0.440609 0.016751 0.160174
H18   H     H_    0.624275 0.654436 0.749099 0.156868
H19   H     H_    0.735457 0.884778 0.417930 0.174539
N1    N     N_R   0.852320 0.499070 0.499340 -0.179908
N2    N     N_R   0.148230 0.499110 0.499340 -0.216588
O1    O     O_R   0.381190 0.680360 0.500000 -0.577814
O2    O     O_R   0.618780 0.680320 0.499990 -0.595700
O3    O     O_R   0.323230 0.500000 0.650990 -0.591489
O4    O     O_R   0.560820 0.499960 0.650980 -0.579966
O5    O     O_R   0.381220 0.319680 0.500010 -0.553183
O6    O     O_R   0.618810 0.319640 0.500000 -0.589682
O7    O     O_R   0.439180 0.500040 0.349020 -0.543918
O8    O     O_R   0.676770 0.500000 0.349010 -0.583875
S1    S     S_3+6 0.223335 0.221964 0.307634 -0.011328
O9    O     O_2   0.197640 0.084956 0.306509 -0.281871
O10   O     O_2   0.185482 0.279500 0.217544 -0.335606
O11   O     O_3   0.400974 0.246811 0.295629 -0.546727
H20   H     H_    0.455186 0.209627 0.227338 0.364295

loop_
_geom_bond_atom_site_label_1
_geom_bond_atom_site_label_2
_ccdc_geom_bond_type
C17   C18   S    
Cu1   N2    S    
Cu2   O2    S    
C2    C4    A    
C8    H14   S    
C28   H13   S    
Cu1   O3    S    
C27   O7    A    
C1    O2    A    
C27   C29   S    
C5    C28   A    
C10   C30   A    
C31   C32   A    
C9    C29   A    
C30   C31   A    
C4    C8    A    
C12   O3    A    
S1    O9    D    
C25   H9    S    
Cu1   O1    S    
C2    C3    A    
C18   H4    S    
C26   H10   S    
C3    C10   A    
C22   H8    S    
C13   C14   A    
C24   N2    A    
C23   O5    A    
C11   C13   A    
C32   H16   S    
C22   N2    A    
C27   O8    A    
Cu1   O5    S    
C21   H7    S    
C5    C6    A    
C19   H5    S    
C2    C32   A    
Cu2   O8    S    
C6    H11   S    
C18   H3    S    
Cu1   Cu2   S    
C7    H18   S    
Cu2   N1    S    
C16   C23   S    
C3    C7    A    
C21   N1    A    
C10   C12   S    
C16   C17   A    
C1    O1    A    
Cu2   O4    S    
C1    C13   S    
C19   H6    S    
C8    C29   A    
C15   C16   A    
S1    O11   S    
C20   C24   A    
C15   H2    S    
C23   O6    A    
C14   H19   S    
C24   C25   S    
C20   N1    A    
C18   C19   S    
C9    H1    S    
C26   H12   S    
C14   C15   A    
C11   C19   S    
C25   C26   S    
C21   C22   A    
C12   O4    A    
Cu1   O7    S    
C30   H15   S    
Cu2   O6    S    
C11   C17   A    
C6    C7    A    
O11   H20   S    
C9    C28   A    
C31   H17   S    
C4    C5    A    
C20   C26   S    
C25   S1    S    
S1    O10   D    
