data_mof_unit_41327.cif
_audit_creation_date              2012-10-26T19:52:24-0400
_audit_creation_method            fapswitch 2.2
_symmetry_space_group_name_H-M    P1
_symmetry_Int_Tables_number       1
_space_group_crystal_system       triclinic
_cell_length_a                    9.565884
_cell_length_b                    10.92698
_cell_length_c                    13.54074
_cell_angle_alpha                 91.353063
_cell_angle_beta                  74.185033
_cell_angle_gamma                 90.829397
_cell_volume                      1361.35919792

loop_
_atom_site_label
_atom_site_type_symbol
_atom_type_description
_atom_site_fract_x
_atom_site_fract_y
_atom_site_fract_z
_atom_type_partial_charge
C1    C     C_R   0.500240 0.736894 0.501676 0.567477
C2    C     C_R   0.380216 0.485723 0.811536 0.006775
C3    C     C_R   0.371404 0.932054 0.518199 -0.059200
C4    C     C_R   0.423815 0.493419 0.698978 0.586961
C5    C     C_R   0.498282 0.868663 0.511176 -0.031209
C6    C     C_R   0.622032 0.934517 0.517124 -0.112726
C7    C     C_R   0.622056 0.062201 0.520092 0.205273
C8    C     C_R   0.496511 0.127644 0.513001 -0.021299
C9    C     C_R   0.369430 0.058301 0.518533 -0.080552
C10   C     C_3   0.254690 0.053306 0.458739 0.562536
C11   C     C_3   0.256998 0.912981 0.463514 0.183680
C12   C     C_R   0.430369 0.462540 0.978108 -0.015985
C13   C     C_R   0.958700 0.463570 0.414441 0.127409
C14   C     C_R   0.898017 0.552582 0.579205 0.321476
C15   C     C_R   0.045674 0.549050 0.579791 0.028040
C16   C     C_R   0.498606 0.261795 0.502930 0.557186
C17   C     C_R   0.105963 0.463898 0.414669 0.121087
C18   C     C_3   0.127367 0.340449 0.366649 -0.224200
C19   C     C_3   0.971172 0.341743 0.361716 -0.245226
C20   C     C_R   0.576519 0.504392 0.300780 0.541449
C21   C     C_R   0.795269 0.452826 0.028030 -0.118660
C22   C     C_R   0.617599 0.499921 0.188015 -0.022157
C23   C     C_R   0.474729 0.445788 0.869724 0.042056
C24   C     C_R   0.243108 0.532122 0.862699 -0.214649
C25   C     C_R   0.193930 0.530077 0.968303 -0.087886
C26   C     C_R   0.280808 0.485064 0.025617 0.234164
C27   C     C_3   0.877063 0.660210 0.176742 0.027015
C28   C     C_3   0.995824 0.705602 0.225012 -0.249816
C29   C     C_3   0.998714 0.845277 0.232588 -0.483492
C30   C     C_3   0.088356 0.145271 0.609477 -0.006641
C31   C     C_3   0.047124 0.047509 0.692075 -0.282169
C32   C     C_3   0.995314 0.105151 0.799371 -0.475396
C33   C     C_3   0.433623 0.067275 0.291992 0.031307
C34   C     C_R   0.537906 0.461879 0.033216 -0.010901
C35   C     C_3   0.514354 0.178262 0.236447 -0.281366
C36   C     C_3   0.661214 0.141887 0.164665 -0.480367
C37   C     C_R   0.683762 0.435645 0.980019 -0.034376
C38   C     C_R   0.717467 0.393884 0.878776 -0.108398
C39   C     C_R   0.611432 0.390492 0.825118 0.285169
C40   C     C_R   0.507790 0.495053 0.137713 -0.184275
C41   C     C_R   0.763713 0.493878 0.129996 0.247172
Cu1   Cu    Cu3+1 0.359330 0.500020 0.500010 0.925324
Cu2   Cu    Cu3+1 0.640670 0.499980 0.499990 0.989406
H1    H     H_    0.156566 0.871423 0.514567 0.106806
H2    H     H_    0.171231 0.567592 0.820865 0.129249
H3    H     H_    0.085115 0.559142 0.005546 0.163786
H4    H     H_    0.720958 0.887430 0.517229 0.161939
H5    H     H_    0.898532 0.698731 0.098449 0.109780
H6    H     H_    0.771377 0.696279 0.224870 0.138976
H7    H     H_    0.975268 0.668833 0.303332 0.179685
H8    H     H_    0.103394 0.673093 0.178137 0.205724
H9    H     H_    0.020052 0.885011 0.155071 0.145431
H10   H     H_    0.086255 0.875925 0.267172 0.192768
H11   H     H_    0.893362 0.879829 0.281771 0.161647
H12   H     H_    0.077750 0.588608 0.644340 0.137439
H13   H     H_    0.724040 0.176519 0.583005 0.355118
H14   H     H_    0.995741 0.209186 0.621016 0.156320
H15   H     H_    0.180816 0.202549 0.618474 0.151130
H16   H     H_    0.958936 0.988170 0.677837 0.191280
H17   H     H_    0.142247 0.989214 0.688954 0.146717
H18   H     H_    0.078536 0.169893 0.813829 0.155024
H19   H     H_    0.975552 0.032363 0.857550 0.152287
H20   H     H_    0.891999 0.154359 0.807691 0.144705
H21   H     H_    0.505743 0.020581 0.330570 0.152984
H22   H     H_    0.412082 0.002901 0.232976 0.190433
H23   H     H_    0.210514 0.338484 0.292317 0.156429
H24   H     H_    0.447753 0.221063 0.191180 0.162596
H25   H     H_    0.532307 0.246658 0.293541 0.185164
H26   H     H_    0.730812 0.101537 0.208902 0.155337
H27   H     H_    0.717283 0.223906 0.125292 0.167794
H28   H     H_    0.646237 0.074453 0.105642 0.146614
H29   H     H_    0.241814 0.781420 0.368145 0.327900
H30   H     H_    0.736487 0.658171 0.631840 0.357542
H31   H     H_    0.259661 0.370585 0.131682 0.308876
H32   H     H_    0.738659 0.297741 0.713191 0.301414
H33   H     H_    0.145839 0.276440 0.422540 0.236383
H34   H     H_    0.960929 0.347484 0.282176 0.196847
H35   H     H_    0.826825 0.363628 0.841220 0.085132
H36   H     H_    0.902721 0.270508 0.408874 0.211167
H37   H     H_    0.906711 0.436730 0.985254 0.119382
H38   H     H_    0.400218 0.520381 0.181631 0.189121
N1    N     N_R   0.852320 0.499070 0.499340 -0.244119
N2    N     N_R   0.148230 0.499110 0.499340 -0.283291
O1    O     O_R   0.381190 0.680360 0.500000 -0.485667
O2    O     O_3   0.749477 0.118170 0.524437 -0.693965
O3    O     O_3   0.110183 0.091478 0.510177 -0.561833
O4    O     O_3   0.298023 0.104756 0.358354 -0.548090
O5    O     O_3   0.308490 0.851746 0.368435 -0.730831
O6    O     O_3   0.804390 0.612572 0.660144 -0.710060
O7    O     O_3   0.211428 0.447504 0.122655 -0.721439
O8    O     O_3   0.636280 0.325218 0.733761 -0.689330
O9    O     O_R   0.618780 0.680320 0.499990 -0.553921
O10   O     O_R   0.323230 0.500000 0.650990 -0.541248
O11   O     O_R   0.560820 0.499960 0.650980 -0.429136
O12   O     O_R   0.381220 0.319680 0.500010 -0.509671
O13   O     O_R   0.618810 0.319640 0.500000 -0.475516
O14   O     O_R   0.439180 0.500040 0.349020 -0.513267
O15   O     O_R   0.676770 0.500000 0.349010 -0.464887
O16   O     O_3   0.875705 0.530348 0.171083 -0.540673

loop_
_geom_bond_atom_site_label_1
_geom_bond_atom_site_label_2
_ccdc_geom_bond_type
C27   H5    S    
C34   C37   A    
C35   C36   S    
Cu2   O15   S    
C33   H22   S    
C7    C8    A    
C7    O2    S    
C1    O1    A    
C12   C23   A    
C27   O16   S    
C1    C5    S    
C24   H2    S    
C28   C29   S    
C32   H18   S    
C30   C31   S    
C28   H8    S    
C22   C41   A    
C29   H11   S    
Cu1   O10   S    
C30   H14   S    
Cu2   O11   S    
C18   C19   S    
C31   H16   S    
C19   H34   S    
C28   H7    S    
C20   O14   A    
C8    C9    A    
C41   O16   S    
C30   O3    S    
C9    C10   S    
C36   H28   S    
H32   O8    S    
C8    C16   S    
C39   O8    S    
H29   O5    S    
C36   H27   S    
Cu2   O13   S    
C38   C39   A    
C10   O4    S    
C16   O13   A    
C6    H4    S    
C13   C19   S    
Cu1   O12   S    
Cu1   O1    S    
C24   C25   A    
Cu1   O14   S    
C15   N2    A    
C38   H35   S    
C25   C26   A    
C13   N1    A    
C12   C26   A    
C17   N2    A    
C15   H12   S    
C31   H17   S    
C2    C4    S    
C14   O6    S    
C37   C38   A    
C3    C9    A    
C31   C32   S    
C35   H24   S    
C11   O5    S    
C22   C40   A    
C17   C18   S    
C21   C37   A    
C11   H1    S    
C19   H36   S    
C21   C41   A    
C20   C22   S    
C1    O9    A    
C2    C24   A    
C4    O11   A    
C18   H23   S    
Cu1   Cu2   S    
C14   N1    A    
C12   C34   A    
C27   C28   S    
C36   H26   S    
C10   O3    S    
C16   O12   A    
C18   H33   S    
C40   H38   S    
Cu1   N2    S    
C32   H20   S    
C3    C5    A    
C6    C7    A    
C26   O7    S    
Cu2   O9    S    
C13   C17   A    
H31   O7    S    
C33   O4    S    
H30   O6    S    
H13   O2    S    
C5    C6    A    
C29   H10   S    
C35   H25   S    
C33   H21   S    
C23   C39   A    
C30   H15   S    
C21   H37   S    
C33   C35   S    
C3    C11   S    
C10   C11   S    
C32   H19   S    
C4    O10   A    
C20   O15   A    
C2    C23   A    
Cu2   N1    S    
C14   C15   A    
C34   C40   A    
C25   H3    S    
C27   H6    S    
C29   H9    S    
