data_mof_unit_50567.cif
_audit_creation_date              2012-12-10T17:02:19-0500
_audit_creation_method            fapswitch 2.2
_symmetry_space_group_name_H-M    P1
_symmetry_Int_Tables_number       1
_space_group_crystal_system       triclinic
_cell_length_a                    10.617746
_cell_length_b                    10.732576
_cell_length_c                    10.062159
_cell_angle_alpha                 89.675945
_cell_angle_beta                  89.610139
_cell_angle_gamma                 90.466074
_cell_volume                      1146.55785403

loop_
_atom_site_label
_atom_site_type_symbol
_atom_type_description
_atom_site_fract_x
_atom_site_fract_y
_atom_site_fract_z
_atom_type_partial_charge
C1    C     C_R   0.496099 0.262771 0.500187 0.885443
C2    C     C_2   0.480925 0.131240 0.500950 -0.342136
C3    C     C_2   0.562256 0.580401 0.924928 -0.104846
C4    C     C_R   0.260660 0.497650 0.500331 0.855377
C5    C     C_2   0.578068 0.568321 0.075524 0.522222
C6    C     C_R   0.501870 0.737230 0.499605 0.918929
C7    C     C_R   0.739297 0.497781 0.499690 0.855563
C8    C     C_R   0.128706 0.274051 0.586723 -0.197967
C9    C     C_R   0.061805 0.168834 0.629855 -0.138518
C10   C     C_R   0.930665 0.169244 0.630920 -0.129756
C11   C     C_R   0.866047 0.274757 0.588487 -0.160834
C12   C     C_R   0.064620 0.382344 0.545295 0.093432
C13   C     C_R   0.932635 0.382440 0.545335 0.088768
C14   C     C_3   0.356656 0.353224 0.885204 0.216112
C15   C     C_3   0.324543 0.237921 0.967729 -0.920772
C16   C     C_3   0.690278 0.752385 0.100458 0.076745
C17   C     C_3   0.768015 0.822139 0.202796 -0.795967
C18   C     C_R   0.128286 0.490554 0.500565 -0.083376
C19   C     C_R   0.065547 0.594695 0.453109 -0.214590
C20   C     C_R   0.936770 0.594575 0.452719 -0.189714
C21   C     C_R   0.871519 0.490292 0.499275 -0.084706
C22   C     C_2   0.482381 0.933219 0.389068 -0.170783
C23   C     C_2   0.510651 0.869090 0.498704 -0.347361
C24   C     C_2   0.489874 0.067291 0.387899 -0.146139
H1    H     H_    0.116601 0.676681 0.418310 0.144139
H2    H     H_    0.456273 0.887132 0.297265 0.170059
H3    H     H_    0.543675 0.912164 0.589341 0.147521
H4    H     H_    0.503115 0.113178 0.292207 0.181234
H5    H     H_    0.341659 0.329702 0.780026 0.189753
H6    H     H_    0.290673 0.428959 0.913650 0.108954
H7    H     H_    0.336138 0.257816 0.075173 0.260753
H8    H     H_    0.225389 0.209343 0.949629 0.222552
H9    H     H_    0.387495 0.160105 0.939536 0.259110
H10   H     H_    0.596922 0.798862 0.093232 0.111186
H11   H     H_    0.741269 0.759596 0.003859 0.137357
H12   H     H_    0.458812 0.088162 0.596098 0.150727
H13   H     H_    0.865047 0.784420 0.205258 0.244664
H14   H     H_    0.773139 0.922601 0.176095 0.207873
H15   H     H_    0.724234 0.812255 0.302793 0.258547
H16   H     H_    0.604538 0.659500 0.873936 0.086687
H17   H     H_    0.417076 0.476558 0.106037 0.155952
H18   H     H_    0.230272 0.269208 0.584427 0.122441
H19   H     H_    0.111859 0.086499 0.661574 0.136296
H20   H     H_    0.878838 0.087247 0.663619 0.134020
H21   H     H_    0.764265 0.270748 0.588684 0.144800
H22   H     H_    0.887626 0.676715 0.418820 0.148835
N1    N     N_2   0.501340 0.501330 0.852150 0.049704
N2    N     N_2   0.501380 0.501360 0.147810 -0.198763
O1    O     O_R   0.499980 0.319060 0.613040 -0.618151
O2    O     O_3   0.678087 0.626217 0.139723 -0.569402
O3    O     O_R   0.500020 0.319100 0.386900 -0.608942
O4    O     O_R   0.316750 0.499980 0.613090 -0.650141
O5    O     O_R   0.316790 0.500020 0.386950 -0.622348
O6    O     O_R   0.499980 0.680900 0.613100 -0.632953
O7    O     O_R   0.500020 0.680940 0.386960 -0.600938
O8    O     O_R   0.683210 0.499980 0.613050 -0.612010
O9    O     O_R   0.683250 0.500020 0.386910 -0.549969
O10   O     O_3   0.482881 0.388162 0.908283 -0.543294
Zn1   Zn    Zn3+2 0.499970 0.499970 0.650990 0.964954
Zn2   Zn    Zn3+2 0.500030 0.500030 0.349010 0.983665

loop_
_geom_bond_atom_site_label_1
_geom_bond_atom_site_label_2
_ccdc_geom_bond_type
C16   O2    S    
C15   H7    S    
O4    Zn1   S    
C23   H3    S    
C4    O5    A    
C11   C13   A    
C9    C10   A    
C19   C20   A    
O1    Zn1   S    
O8    Zn1   S    
C6    O7    A    
C8    C12   A    
C4    C18   S    
O5    Zn2   S    
C7    O9    A    
C13   C21   A    
C15   H8    S    
C17   H13   S    
O7    Zn2   S    
C20   C21   A    
N1    O10   S    
C7    C21   S    
C1    O3    A    
C7    O8    A    
C14   H6    S    
C19   H1    S    
C6    C23   S    
C1    C2    S    
C3    N1    D    
C10   H20   S    
H17   N2    S    
C6    O6    A    
C3    H16   S    
N2    Zn2   S    
O6    Zn1   S    
C16   H11   S    
C2    C24   D    
C14   O10   S    
C5    N2    D    
C22   C24   S    
C5    O2    S    
C9    H19   S    
C11   H21   S    
C10   C11   A    
C14   H5    S    
N1    Zn1   S    
C2    H12   S    
C12   C13   A    
C18   C19   A    
C17   H15   S    
C12   C18   A    
C22   C23   D    
C8    C9    A    
O9    Zn2   S    
C22   H2    S    
O3    Zn2   S    
C16   H10   S    
C14   C15   S    
C1    O1    A    
C4    O4    A    
C15   H9    S    
C20   H22   S    
C17   H14   S    
C24   H4    S    
C8    H18   S    
C16   C17   S    
C3    C5    S    
