data_mof_unit_30912.cif
_audit_creation_date              2013-03-05T15:51:13-0500
_audit_creation_method            fapswitch 2.2
_symmetry_space_group_name_H-M    P1
_symmetry_Int_Tables_number       1
_space_group_crystal_system       triclinic
_cell_length_a                    23.037608
_cell_length_b                    6.949465
_cell_length_c                    20.738914
_cell_angle_alpha                 89.990125
_cell_angle_beta                  93.221755
_cell_angle_gamma                 89.983386
_cell_volume                      3315.0325276

loop_
_atom_site_label
_atom_site_type_symbol
_atom_site_description
_atom_site_fract_x
_atom_site_fract_y
_atom_site_fract_z
_atom_type_partial_charge
O1    O     O_R   0.188030 0.379840 0.189340 -0.563721
O2    O     O_R   0.811970 0.620160 0.810660 -0.563550
O3    O     O_R   0.311970 0.879840 0.310660 -0.575222
O4    O     O_R   0.688030 0.120160 0.689340 -0.566603
O5    O     O_R   0.307090 0.708420 0.185790 -0.598122
O6    O     O_R   0.692910 0.291580 0.814210 -0.597514
O7    O     O_R   0.192910 0.208420 0.314210 -0.597031
O8    O     O_R   0.807090 0.791580 0.685790 -0.597290
C1    C     C_R   0.326697 0.540786 0.170758 0.998470
C2    C     C_R   0.673306 0.459214 0.829246 1.000104
C3    C     C_R   0.173306 0.040801 0.329246 1.006501
C4    C     C_R   0.826692 0.959199 0.670752 1.002150
O9    O     O_R   0.188180 0.709480 0.181650 -0.545533
O10   O     O_R   0.811820 0.290520 0.818350 -0.545614
O11   O     O_R   0.311820 0.209480 0.318350 -0.548679
O12   O     O_R   0.688180 0.790520 0.681650 -0.549446
O13   O     O_R   0.192210 0.880960 0.306500 -0.583441
O14   O     O_R   0.807790 0.119040 0.693500 -0.584575
O15   O     O_R   0.307790 0.380960 0.193500 -0.584163
O16   O     O_R   0.692210 0.619040 0.806500 -0.584461
C5    C     C_R   0.167886 0.540523 0.165196 1.099808
C6    C     C_R   0.832113 0.459478 0.834804 1.099559
C7    C     C_R   0.332177 0.040499 0.334599 1.114283
C8    C     C_R   0.667837 0.959500 0.665247 1.104859
O17   O     O_3   0.251460 0.546730 0.290970 -0.256592
O18   O     O_3   0.748540 0.453270 0.709030 -0.254211
O19   O     O_3   0.248540 0.046730 0.209030 -0.251426
O20   O     O_3   0.751460 0.953270 0.790970 -0.251234
V1    V     V_3+5 0.249730 0.821120 0.242400 1.331525
V2    V     V_3+5 0.750270 0.178880 0.757600 1.332741
V3    V     V_3+5 0.250270 0.321120 0.257600 1.332965
V4    V     V_3+5 0.749730 0.678880 0.742400 1.331688
C9    C     C_R   0.575664 0.827568 0.612302 0.725644
C10   C     C_R   0.426901 0.163620 0.383646 0.748391
C11   C     C_R   0.922713 0.322594 0.889875 0.733459
C12   C     C_R   0.077284 0.677400 0.110130 0.733354
C13   C     C_R   0.619071 0.969780 0.615084 -0.576440
C14   C     C_R   0.381450 0.029281 0.383876 -0.573726
C15   C     C_R   0.880867 0.469859 0.884944 -0.583343
C16   C     C_R   0.119132 0.530141 0.115057 -0.583432
C17   C     C_R   0.615321 0.123522 0.570687 0.737621
C18   C     C_R   0.383398 0.881795 0.430479 0.745139
C19   C     C_R   0.886332 0.629033 0.927026 0.743415
C20   C     C_R   0.113669 0.370970 0.072974 0.743406
C21   C     C_R   0.569673 0.132484 0.521926 -0.221357
C22   C     C_R   0.431688 0.862515 0.475591 -0.218031
C23   C     C_R   0.932264 0.639358 0.975314 -0.218679
C24   C     C_R   0.067735 0.360641 0.024688 -0.218643
C25   C     C_R   0.525069 0.991139 0.521235 0.006567
C26   C     C_R   0.477033 0.001283 0.475287 -0.014966
C27   C     C_R   0.975700 0.494010 0.977496 0.008863
C28   C     C_R   0.024298 0.505986 0.022507 0.008874
C29   C     C_R   0.528201 0.839987 0.566794 -0.050823
C30   C     C_R   0.474051 0.152233 0.429598 -0.063502
C31   C     C_R   0.970545 0.335937 0.934800 -0.052042
C32   C     C_R   0.029453 0.664057 0.065205 -0.051955
C33   C     C_R   0.566355 0.280542 0.474647 0.370900
C34   C     C_R   0.435636 0.712383 0.522162 0.380181
C35   C     C_R   0.936976 0.792562 0.020646 0.375568
C36   C     C_R   0.063021 0.207435 0.979357 0.375504
C37   C     C_R   0.518499 0.289734 0.430048 -0.196642
C38   C     C_R   0.483607 0.703107 0.566599 -0.207575
C39   C     C_R   0.986061 0.805475 0.063423 -0.204899
C40   C     C_R   0.013936 0.194518 0.936582 -0.204705
H1    H     H_    0.516887 0.404229 0.394500 0.215136
H2    H     H_    0.485869 0.586135 0.601228 0.209524
H3    H     H_    0.989026 0.924248 0.097305 0.212991
H4    H     H_    0.010971 0.075743 0.902700 0.213014
C41   C     C_3   0.040688 0.117301 0.523761 0.207720
C42   C     C_3   0.959287 0.882698 0.476210 0.207687
C43   C     C_3   0.459302 0.617399 0.976246 0.207007
C44   C     C_3   0.540714 0.382596 0.023777 0.207254
C45   C     C_3   0.021995 0.930952 0.557778 -0.455368
C46   C     C_3   0.977980 0.069047 0.442193 -0.455423
C47   C     C_3   0.478003 0.431084 0.942214 -0.453611
C48   C     C_3   0.522013 0.568911 0.057809 -0.453746
H5    H     H_    0.040808 0.875198 0.604570 0.245334
H6    H     H_    0.959167 0.124801 0.395402 0.245324
H7    H     H_    0.459191 0.375443 0.895417 0.246025
H8    H     H_    0.540825 0.624552 0.104606 0.245623
C49   C     C_1   0.872069 0.968464 0.625147 -0.230360
C50   C     C_1   0.127920 0.031537 0.374841 -0.229626
C51   C     C_1   0.627927 0.468501 0.874849 -0.228390
C52   C     C_1   0.372081 0.531498 0.125163 -0.225846
C53   C     C_3   0.976918 0.173264 0.508529 0.841912
C54   C     C_3   0.023057 0.826734 0.491443 0.841858
C55   C     C_3   0.523070 0.673247 0.991483 0.841444
C56   C     C_3   0.476946 0.326748 0.008540 0.841728
C57   C     C_3   0.957415 0.986889 0.541534 -0.296420
C58   C     C_3   0.042561 0.013110 0.458438 -0.296495
C59   C     C_3   0.542581 0.486903 0.958462 -0.297050
C60   C     C_3   0.457435 0.513092 0.041561 -0.296965
C61   C     C_1   0.910393 0.976539 0.587352 0.318638
C62   C     C_1   0.089590 0.023461 0.412627 0.318566
C63   C     C_1   0.589603 0.476573 0.912643 0.319377
C64   C     C_1   0.410410 0.523424 0.087375 0.319333
F1    F     F_    0.578336 0.680936 0.655835 -0.675256
F2    F     F_    0.425318 0.305420 0.338349 -0.677444
F3    F     F_    0.918371 0.170020 0.848798 -0.670599
F4    F     F_    0.081625 0.829970 0.151208 -0.670800
F5    F     F_    0.656075 0.264594 0.576121 -0.621403
F6    F     F_    0.336475 0.764461 0.433015 -0.618431
F7    F     F_    0.847415 0.775212 0.919379 -0.616812
F8    F     F_    0.152589 0.224801 0.080616 -0.616815
N1    N     N_R   0.612210 0.417869 0.468639 0.278465
O21   O     O_R   0.599664 0.599463 0.461518 -0.382024
O22   O     O_R   0.663674 0.358302 0.455073 -0.251055
N2    N     N_R   0.391789 0.566857 0.525634 0.274365
O23   O     O_R   0.371229 0.525016 0.581100 -0.308907
O24   O     O_R   0.381697 0.450032 0.477353 -0.332868
N3    N     N_R   0.890863 0.928849 0.027530 0.278018
O25   O     O_R   0.903138 0.109483 0.037545 -0.387062
O26   O     O_R   0.839262 0.867206 0.039649 -0.255116
N4    N     N_R   0.109136 0.071152 0.972472 0.278059
O27   O     O_R   0.096862 0.890511 0.962469 -0.386889
O28   O     O_R   0.160733 0.132797 0.960342 -0.254662
N5    N     N_R   0.084201 0.250341 0.551286 0.304548
O29   O     O_R   0.076529 0.331526 0.606646 -0.290239
O30   O     O_R   0.130599 0.289400 0.520850 -0.292226
N6    N     N_R   0.915772 0.749660 0.448687 0.304625
O31   O     O_R   0.923443 0.668471 0.393328 -0.290266
O32   O     O_R   0.869371 0.710618 0.479122 -0.292499
N7    N     N_R   0.415782 0.750548 0.948733 0.304739
O33   O     O_R   0.423449 0.831807 0.893377 -0.287845
O34   O     O_R   0.369384 0.789629 0.979174 -0.293575
N8    N     N_R   0.584234 0.249448 0.051291 0.304537
O35   O     O_R   0.576568 0.168195 0.106647 -0.288860
O36   O     O_R   0.630632 0.210366 0.020849 -0.293916
F9    F     F_    0.045925 0.645781 0.481756 -0.602700
F10   F     F_    0.954049 0.354216 0.518216 -0.602693
F11   F     F_    0.454086 0.145813 0.018215 -0.602395
F12   F     F_    0.545930 0.854182 0.981808 -0.602543

loop_
_geom_bond_atom_site_label_1
_geom_bond_atom_site_label_2
_geom_bond_distance
_ccdc_geom_bond_type
C34   C38   1.400098 A    
C33   N1    1.434433 S    
O1    C5    1.298605 A    
N8    O35   1.300247 A    
C50   C62   1.214418 T    
C55   C59   1.543554 S    
O19   V1    1.713293 S    
O13   V1    1.973315 S    
O3    C7    1.297788 A    
N3    O25   1.301007 A    
O1    V3    1.999454 S    
C44   C48   1.547385 S    
O15   V3    1.973380 S    
N4    O27   1.301004 A    
C20   F8    1.358076 S    
N7    O33   1.300248 A    
O7    C3    1.293876 A    
N1    O22   1.301335 A    
C21   C33   1.420261 A    
C26   C30   1.412549 A    
C40   H4    1.083780 S    
C43   N7    1.456694 S    
C14   C18   1.407624 A    
N5    O30   1.300243 A    
C18   C22   1.419063 A    
O4    C8    1.298854 A    
N7    O34   1.300242 A    
C2    C51   1.450049 S    
C60   C64   1.482316 S    
N2    O23   1.301262 A    
O2    V4    1.999454 S    
C52   C64   1.214395 T    
C33   C37   1.400125 A    
O3    V1    1.999725 S    
C42   C46   1.547386 S    
C28   C32   1.411917 A    
C36   N4    1.436148 S    
C1    O15   1.291908 A    
C43   C60   1.538937 S    
C56   C60   1.543551 S    
C2    O16   1.291912 A    
O2    C6    1.298605 A    
C35   N3    1.436152 S    
C24   C36   1.420612 A    
O14   V2    1.973315 S    
C21   C25   1.421229 A    
C16   C20   1.410390 A    
C34   N2    1.434242 S    
C47   C59   1.556075 S    
O11   C7    1.301659 A    
O12   C8    1.302315 A    
C22   C34   1.421046 A    
O17   V1    2.155722 S    
O10   V2    2.000010 S    
C11   F3    1.360427 S    
C18   F6    1.357606 S    
C44   C56   1.535192 S    
N6    O32   1.300247 A    
C58   C62   1.482343 S    
O5    V1    1.977890 S    
C3    C50   1.450065 S    
C9    C29   1.406307 A    
C39   H3    1.083779 S    
C23   C35   1.420615 A    
O7    V3    1.978033 S    
C38   H2    1.083904 S    
C11   C31   1.405549 A    
C27   C28   1.419303 A    
O8    V4    1.978035 S    
O20   V4    2.156049 S    
N3    O26   1.301402 A    
C54   C58   1.543561 S    
C42   N6    1.456691 S    
C44   C59   1.538941 S    
C53   C57   1.543556 S    
O18   V4    1.713526 S    
C23   C27   1.420546 A    
C27   C31   1.411919 A    
O19   V3    2.156049 S    
C57   C61   1.482335 S    
C9    C13   1.405049 A    
C44   N8    1.456694 S    
C55   F12   1.382333 S    
C11   C15   1.405530 A    
O5    C1    1.293837 A    
C12   C32   1.405551 A    
C53   F10   1.382342 S    
C49   C61   1.214412 T    
C29   C38   1.400137 A    
N4    O28   1.301403 A    
C12   C16   1.405526 A    
O8    C4    1.293874 A    
C51   C63   1.214402 T    
C31   C40   1.400641 A    
C8    C13   1.489305 S    
C32   C39   1.400640 A    
O9    C5    1.302380 A    
C12   F4    1.360426 S    
C41   C45   1.547378 S    
C48   C55   1.556238 S    
C48   C60   1.556074 S    
C43   C55   1.535192 S    
O6    V2    1.977889 S    
C10   C30   1.406381 A    
C42   C57   1.538939 S    
C41   C58   1.538939 S    
C42   C54   1.535194 S    
C41   C53   1.535187 S    
N6    O31   1.300250 A    
O16   V4    1.973380 S    
O9    V1    2.000008 S    
C3    O13   1.291926 A    
N8    O36   1.300243 A    
C10   C14   1.403260 A    
O17   V3    1.713526 S    
C48   H8    1.110034 S    
O6    C2    1.293836 A    
C15   C19   1.410394 A    
N2    O24   1.300013 A    
C54   F9    1.382341 S    
O11   V3    1.999522 S    
C30   C37   1.400427 A    
O12   V4    1.999526 S    
C7    C14   1.486118 S    
N1    O21   1.301106 A    
C22   C26   1.422204 A    
C35   C39   1.400387 A    
C36   C40   1.400381 A    
O10   C6    1.302380 A    
O20   V2    1.713293 S    
C45   C57   1.556073 S    
C17   C21   1.418742 A    
N5    O29   1.300251 A    
C43   C47   1.547381 S    
C46   C58   1.556081 S    
C5    C16   1.488885 S    
C47   H7    1.110035 S    
C25   C29   1.411841 A    
C6    C15   1.488890 S    
C41   N5    1.456687 S    
C10   F2    1.360409 S    
C17   F5    1.357936 S    
C4    C49   1.450056 S    
C9    F1    1.360402 S    
C46   C53   1.556237 S    
C13   C17   1.409763 A    
C19   F7    1.358078 S    
C45   C54   1.556234 S    
C1    C52   1.450035 S    
C59   C63   1.482324 S    
C37   H1    1.083835 S    
C47   C56   1.556237 S    
C24   C28   1.420545 A    
C25   C26   1.420923 A    
C46   H6    1.110026 S    
C4    O14   1.291925 A    
C45   H5    1.110025 S    
C56   F11   1.382334 S    
C19   C23   1.417279 A    
O4    V2    1.999724 S    
C20   C24   1.417280 A    
O18   V2    2.155721 S    
