data_mof_unit_7971.cif
_audit_creation_date              2012-12-10T17:23:41-0500
_audit_creation_method            fapswitch 2.2
_symmetry_space_group_name_H-M    P1
_symmetry_Int_Tables_number       1
_space_group_crystal_system       triclinic
_cell_length_a                    9.750769
_cell_length_b                    10.911262
_cell_length_c                    17.106609
_cell_angle_alpha                 95.262454
_cell_angle_beta                  85.978186
_cell_angle_gamma                 90.745653
_cell_volume                      1807.85265854

loop_
_atom_site_label
_atom_site_type_symbol
_atom_type_description
_atom_site_fract_x
_atom_site_fract_y
_atom_site_fract_z
_atom_type_partial_charge
C1    C     C_R   0.500684 0.738471 0.501402 0.812809
C2    C     C_R   0.379072 0.550034 0.785933 -0.172163
C3    C     C_R   0.384996 0.625859 0.167446 0.426253
C4    C     C_R   0.393813 0.592930 0.243839 -0.289288
C5    C     C_R   0.640011 0.569180 0.221574 0.213022
C6    C     C_R   0.629172 0.589116 0.142484 -0.256891
C7    C     C_R   0.501451 0.612845 0.114635 0.018142
C8    C     C_2   0.526507 0.514554 0.981667 -0.232040
C9    C     C_2   0.488689 0.613884 0.029747 -0.105289
C10   C     C_R   0.519151 0.555902 0.270619 -0.130315
C11   C     C_R   0.245858 0.889731 0.517559 0.392701
C12   C     C_R   0.482505 0.497126 0.649718 0.739882
C13   C     C_R   0.147607 0.931943 0.576874 -0.309624
C14   C     C_R   0.165094 0.047939 0.618345 0.474438
C15   C     C_R   0.276066 0.121958 0.594881 -0.172905
C16   C     C_R   0.381460 0.069661 0.542441 0.029930
C17   C     C_R   0.376462 0.943186 0.518974 -0.039709
C18   C     C_R   0.501467 0.875550 0.506023 -0.195142
C19   C     C_R   0.625757 0.944885 0.508332 0.393280
C20   C     C_R   0.621186 0.071374 0.505869 -0.262370
C21   C     C_R   0.498557 0.134536 0.518859 -0.098721
C22   C     C_R   0.878973 0.383325 0.366717 0.289244
C23   C     C_R   0.498596 0.265465 0.507969 0.870681
C24   C     C_R   0.959970 0.384250 0.295761 -0.300619
C25   C     C_R   0.102804 0.392832 0.296777 0.149927
C26   C     C_R   0.156115 0.381397 0.369574 0.394598
C27   C     C_R   0.081625 0.438841 0.437488 0.023148
C28   C     C_R   0.933473 0.439205 0.436993 0.130784
C29   C     C_R   0.918502 0.553595 0.560665 0.034446
C30   C     C_R   0.066130 0.556375 0.561215 0.402234
C31   C     C_R   0.517362 0.514867 0.351426 0.838464
C32   C     C_R   0.479212 0.489086 0.734699 -0.008145
C33   C     C_R   0.587055 0.428782 0.765395 -0.170120
C34   C     C_R   0.598748 0.434892 0.846099 -0.138608
C35   C     C_R   0.504387 0.503155 0.897242 0.168533
C36   C     C_R   0.391682 0.557723 0.867027 -0.108914
Cu1   Cu    Cu3+1 0.359340 0.500010 0.500010 1.042703
Cu2   Cu    Cu3+1 0.640660 0.499990 0.499990 1.026605
H1    H     H_    0.664554 0.379397 0.726717 0.153433
H2    H     H_    0.720956 0.589433 0.102879 0.177005
H3    H     H_    0.056075 0.877782 0.586821 0.250330
H4    H     H_    0.284774 0.215450 0.621539 0.172375
H5    H     H_    0.715144 0.123363 0.500129 0.213215
H6    H     H_    0.855145 0.597198 0.609182 0.169057
H7    H     H_    0.913099 0.354689 0.241752 0.170844
H8    H     H_    0.301594 0.596998 0.282835 0.229578
H9    H     H_    0.437715 0.690313 0.007911 0.199675
H10   H     H_    0.314220 0.606953 0.905674 0.171699
H11   H     H_    0.295279 0.596025 0.763198 0.164801
H12   H     H_    0.578370 0.439536 0.004993 0.163047
H13   H     H_    0.684590 0.390167 0.868442 0.145314
N1    N     N_R   0.852190 0.498790 0.499250 -0.199414
N2    N     N_R   0.148060 0.498710 0.499220 -0.201479
O1    O     O_R   0.381190 0.680360 0.500010 -0.575616
O2    O     O_R   0.618760 0.680340 0.500000 -0.513966
O3    O     O_R   0.367440 0.500030 0.613600 -0.583193
O4    O     O_R   0.605010 0.500010 0.613590 -0.593502
O5    O     O_R   0.381240 0.319660 0.500000 -0.509085
O6    O     O_R   0.618810 0.319640 0.499990 -0.569881
O7    O     O_R   0.394990 0.499990 0.386410 -0.574945
O8    O     O_R   0.632560 0.499970 0.386400 -0.565558
S1    S     S_3+6 0.785327 0.889825 0.530858 0.010555
O9    O     O_2   0.767300 0.821637 0.603309 -0.286372
O10   O     O_2   0.848878 0.806756 0.463717 -0.280434
O11   O     O_3   0.887597 0.012189 0.549557 -0.493886
H14   H     H_    0.930910 0.030453 0.497978 0.378084
S2    S     S_3+6 0.191825 0.833645 0.424161 0.064414
O12   O     O_2   0.119896 0.712106 0.427469 -0.291315
O13   O     O_2   0.094305 0.923812 0.397215 -0.238570
O14   O     O_3   0.329476 0.818781 0.359038 -0.552104
H15   H     H_    0.299230 0.847795 0.309876 0.391043
S3    S     S_3+6 0.045764 0.105594 0.694416 0.045279
O15   O     O_2   0.947280 0.006061 0.717760 -0.236255
O16   O     O_2   0.121905 0.154279 0.764269 -0.296791
O17   O     O_3   0.958488 0.221369 0.662865 -0.502861
H16   H     H_    0.895894 0.251579 0.708465 0.361001
N3    N     N_2   0.769701 0.295571 0.367759 -0.374651
H17   H     H_    0.700979 0.307933 0.326038 0.262939
C37   C     C_3   0.816212 0.169166 0.355730 -0.593699
H18   H     H_    0.726820 0.105713 0.360031 0.221214
H19   H     H_    0.889361 0.151221 0.399997 0.265684
H20   H     H_    0.867434 0.149370 0.295881 0.251511
N4    N     N_2   0.191652 0.376291 0.226213 -0.428135
H21   H     H_    0.291397 0.351069 0.232983 0.282042
C38   C     C_3   0.137802 0.328202 0.152729 -0.540514
H22   H     H_    0.221898 0.323108 0.105291 0.234896
H23   H     H_    0.057849 0.390275 0.135799 0.231479
H24   H     H_    0.094854 0.234296 0.157943 0.247421
S4    S     S_3+6 0.214246 0.228514 0.371860 0.010215
O18   O     O_2   0.367699 0.223493 0.355675 -0.340145
O19   O     O_2   0.171920 0.182354 0.449913 -0.274671
O20   O     O_3   0.143028 0.135610 0.301407 -0.526034
H25   H     H_    0.210881 0.069503 0.285975 0.398803
N5    N     N_2   0.130245 0.622605 0.625079 -0.425119
H26   H     H_    0.209675 0.679519 0.608568 0.274064
C39   C     C_3   0.048576 0.670562 0.695052 -0.710433
H27   H     H_    0.976420 0.741612 0.680803 0.274969
H28   H     H_    0.116494 0.715518 0.738649 0.239865
H29   H     H_    0.991430 0.594650 0.722173 0.242839
N6    N     N_2   0.771764 0.571686 0.251673 -0.463519
H30   H     H_    0.849280 0.547769 0.209100 0.247338
C40   C     C_3   0.803340 0.686448 0.296324 -0.445460
H31   H     H_    0.898232 0.675333 0.327039 0.271204
H32   H     H_    0.718782 0.713617 0.341193 0.234211
H33   H     H_    0.819874 0.760910 0.256400 0.234405
S5    S     S_3+6 0.227849 0.681387 0.139035 -0.008222
O21   O     O_2   0.252735 0.804290 0.107337 -0.261005
O22   O     O_2   0.173094 0.593673 0.075521 -0.320331
O23   O     O_3   0.111024 0.699033 0.216028 -0.506705
H34   H     H_    0.081615 0.614357 0.225543 0.347060

loop_
_geom_bond_atom_site_label_1
_geom_bond_atom_site_label_2
_ccdc_geom_bond_type
C23   O5    A    
C16   C21   A    
C28   N1    A    
C31   O8    A    
C35   C36   A    
C1    O1    A    
C13   H3    S    
C4    H8    S    
N3    H17   S    
C26   S4    S    
C23   O6    A    
C34   H13   S    
S1    O9    D    
C24   H7    S    
Cu1   Cu2   S    
C18   C19   A    
C3    C7    A    
C5    C6    A    
Cu2   N1    S    
S5    O21   D    
C19   S1    S    
C15   C16   A    
C39   H29   S    
C40   H33   S    
C2    C32   A    
C34   C35   A    
O20   H25   S    
S1    O10   D    
Cu1   O3    S    
C10   C31   S    
Cu2   O2    S    
C19   C20   A    
C16   C17   A    
C39   H28   S    
O14   H15   S    
S4    O19   D    
Cu1   O5    S    
Cu2   O8    S    
Cu1   N2    S    
C38   H23   S    
C22   C28   A    
C13   C14   A    
C12   C32   S    
N5    H26   S    
S3    O17   S    
C11   S2    S    
C33   C34   A    
N3    C37   S    
C3    S5    S    
C30   N2    A    
S2    O12   D    
C24   C25   A    
C22   N3    S    
S3    O16   D    
C37   H19   S    
C8    C9    D    
C25   C26   A    
C38   H22   S    
C37   H18   S    
S2    O13   D    
C8    C35   S    
C31   O7    A    
N5    C39   S    
O17   H16   S    
C29   C30   A    
C2    H11   S    
Cu2   O4    S    
N4    H21   S    
C5    N6    S    
C39   H27   S    
N6    C40   S    
C17   C18   A    
C1    C18   S    
C33   H1    S    
S4    O20   S    
C40   H32   S    
C12   O3    A    
Cu1   O1    S    
N4    C38   S    
C9    H9    S    
C21   C23   S    
C29   H6    S    
C26   C27   A    
C22   C24   A    
C12   O4    A    
C4    C10   A    
C3    C4    A    
C8    H12   S    
C20   H5    S    
C38   H24   S    
C2    C36   A    
C7    C9    S    
C11   C17   A    
S1    O11   S    
C14   S3    S    
C15   H4    S    
S3    O15   D    
C37   H20   S    
C27   N2    A    
C6    C7    A    
S2    O14   S    
C32   C33   A    
C1    O2    A    
C5    C10   A    
C30   N5    S    
O23   H34   S    
C11   C13   A    
S5    O22   D    
N6    H30   S    
C36   H10   S    
C6    H2    S    
C40   H31   S    
Cu1   O7    S    
Cu2   O6    S    
C20   C21   A    
O11   H14   S    
C27   C28   A    
C25   N4    S    
C14   C15   A    
S4    O18   D    
S5    O23   S    
C29   N1    A    
