data_mof_unit_62802.cif
_audit_creation_date              2012-10-26T18:18:28-0400
_audit_creation_method            fapswitch 2.2
_symmetry_space_group_name_H-M    P1
_symmetry_Int_Tables_number       1
_space_group_crystal_system       triclinic
_cell_length_a                    18.796393
_cell_length_b                    18.812165
_cell_length_c                    18.899595
_cell_angle_alpha                 109.60327
_cell_angle_beta                  109.160405
_cell_angle_gamma                 109.387934
_cell_volume                      5161.0215028

loop_
_atom_site_label
_atom_site_type_symbol
_atom_type_description
_atom_site_fract_x
_atom_site_fract_y
_atom_site_fract_z
_atom_type_partial_charge
C1    C     C_R   0.880719 0.381328 0.999257 0.527236
C2    C     C_R   0.182850 0.498072 0.183316 0.014405
C3    C     C_R   0.187866 0.421423 0.167719 -0.151140
C4    C     C_R   0.883631 0.501599 0.881620 0.542930
C5    C     C_R   0.252020 0.421333 0.232507 -0.151621
C6    C     C_R   0.313081 0.498460 0.312236 0.027259
C7    C     C_R   0.306607 0.572297 0.324303 0.010004
C8    C     C_3   0.344260 0.665199 0.388057 -0.267707
C9    C     C_3   0.272683 0.664989 0.318317 -0.250397
C10   C     C_R   0.256532 0.755201 0.073937 0.016496
C11   C     C_R   0.183708 0.684336 0.998314 0.020302
C12   C     C_R   0.812447 0.313620 0.996161 -0.001481
C13   C     C_R   0.176115 0.678359 0.919456 -0.148532
C14   C     C_R   0.240589 0.743668 0.919445 -0.148699
C15   C     C_R   0.314496 0.813781 0.998192 0.018486
C16   C     C_R   0.118616 0.618547 0.999927 0.549578
C17   C     C_R   0.319731 0.815955 0.073812 0.016028
C18   C     C_3   0.373884 0.866521 0.169722 -0.263366
C19   C     C_3   0.302194 0.796441 0.169804 -0.269364
C20   C     C_R   0.498206 0.380936 0.379235 0.568828
C21   C     C_R   0.614678 0.501495 0.616783 0.562572
C22   C     C_R   0.496408 0.618552 0.615258 0.545360
C23   C     C_R   0.728059 0.259944 0.922950 -0.008961
C24   C     C_R   0.378981 0.499994 0.379123 0.543944
C25   C     C_R   0.501105 0.881754 0.882108 0.549805
C26   C     C_R   0.618934 0.118449 0.999454 0.559382
C27   C     C_R   0.499275 0.118674 0.117726 0.548606
C28   C     C_R   0.117685 0.499624 0.117887 0.548930
C29   C     C_R   0.381290 0.881147 0.999761 0.539543
C30   C     C_R   0.524779 0.330353 0.255912 -0.004232
C31   C     C_R   0.496540 0.313222 0.311277 0.048528
C32   C     C_R   0.460188 0.227166 0.295700 -0.136998
C33   C     C_R   0.461338 0.162932 0.232256 -0.138518
C34   C     C_R   0.665018 0.194132 0.923718 -0.081594
C35   C     C_R   0.496604 0.183744 0.182436 0.029500
C36   C     C_R   0.522290 0.265903 0.190788 -0.054262
C37   C     C_3   0.604388 0.327385 0.200888 -0.088645
C38   C     C_3   0.607903 0.398848 0.273319 0.108848
C39   C     C_R   0.515996 0.764969 0.690662 -0.022029
C40   C     C_2   0.754995 0.574528 0.748709 -0.149568
C41   C     C_R   0.497926 0.684446 0.683722 0.014850
C42   C     C_R   0.481147 0.669323 0.746465 -0.144688
C43   C     C_R   0.483821 0.734864 0.813289 -0.153427
C44   C     C_R   0.500710 0.814938 0.816310 0.023364
C45   C     C_R   0.685685 0.181369 0.995442 0.011111
C46   C     C_R   0.515478 0.826484 0.752792 0.046307
C47   C     C_3   0.537848 0.889785 0.722213 0.112964
C48   C     C_3   0.537565 0.819112 0.650617 -0.221676
C49   C     C_2   0.678635 0.502837 0.687235 -0.100594
C50   C     C_2   0.815782 0.574577 0.822021 -0.151658
C51   C     C_2   0.820740 0.502785 0.812595 -0.107886
C52   C     C_R   0.833985 0.293024 0.061556 -0.002942
C53   C     C_2   0.588881 0.337548 0.122565 0.213606
C54   C     C_2   0.703775 0.274833 0.848210 0.246504
C55   C     C_R   0.771920 0.227994 0.061182 0.018828
C56   C     C_3   0.809852 0.278180 0.156848 -0.240565
C57   C     C_3   0.878175 0.349911 0.157156 -0.258483
C58   C     C_R   0.243504 0.571761 0.263477 0.014405
Cl1   Cl    Cl    0.698045 0.440963 0.376452 -0.572069
Cl2   Cl    Cl    0.451617 0.910894 0.681982 -0.561840
Cu1   Cu    Cu3+1 0.999590 0.561790 0.061400 0.952571
Cu2   Cu    Cu3+1 0.000410 0.438210 0.938600 0.955491
Cu3   Cu    Cu3+1 0.558560 0.561730 0.496790 0.997529
Cu4   Cu    Cu3+1 0.434970 0.438120 0.496790 0.958612
Cu5   Cu    Cu3+1 0.438600 0.999980 0.938570 1.038346
Cu6   Cu    Cu3+1 0.561400 0.999920 0.061330 0.945377
H1    H     H_    0.771173 0.635302 0.748106 0.149613
H2    H     H_    0.233395 0.738713 0.858445 0.138645
H3    H     H_    0.436391 0.866445 0.192577 0.152587
H4    H     H_    0.658264 0.444759 0.692909 0.120991
H5    H     H_    0.378966 0.931438 0.197514 0.133395
H6    H     H_    0.323242 0.755439 0.191819 0.131313
H7    H     H_    0.266422 0.821009 0.198410 0.150687
H8    H     H_    0.434364 0.210315 0.334804 0.139956
H9    H     H_    0.436402 0.097852 0.223219 0.110328
H10   H     H_    0.657285 0.312059 0.222220 0.178988
H11   H     H_    0.600055 0.449747 0.259793 0.125285
H12   H     H_    0.944452 0.359713 0.190249 0.137795
H13   H     H_    0.467274 0.607860 0.744625 0.139304
H14   H     H_    0.860266 0.635500 0.882684 0.149023
H15   H     H_    0.471391 0.722592 0.861258 0.127086
H16   H     H_    0.602686 0.948678 0.769500 0.121040
H17   H     H_    0.484110 0.790980 0.584340 0.167436
H18   H     H_    0.602768 0.836845 0.656817 0.118728
H19   H     H_    0.783108 0.444469 0.749480 0.121755
H20   H     H_    0.599266 0.154804 0.869768 0.202063
H21   H     H_    0.765930 0.296996 0.175644 0.175361
H22   H     H_    0.836776 0.246626 0.189740 0.144150
H23   H     H_    0.141896 0.361786 0.106501 0.137299
H24   H     H_    0.873783 0.410367 0.175957 0.175861
H25   H     H_    0.537303 0.350301 0.094659 0.115098
H26   H     H_    0.749932 0.328565 0.848938 0.118931
H27   H     H_    0.254547 0.361912 0.220113 0.122911
H28   H     H_    0.336353 0.673091 0.445513 0.152792
H29   H     H_    0.410825 0.706394 0.402189 0.145691
H30   H     H_    0.224005 0.673496 0.335948 0.161535
H31   H     H_    0.297910 0.705784 0.291916 0.132490
H32   H     H_    0.120291 0.624375 0.858508 0.136154
O1    O     O_R   0.909480 0.462010 0.051860 -0.500804
O2    O     O_R   0.552410 0.909770 0.962140 -0.522706
O3    O     O_R   0.538310 0.090150 0.948110 -0.488133
O4    O     O_R   0.910180 0.357650 0.948150 -0.516452
O5    O     O_R   0.642020 0.090090 0.051780 -0.516370
O6    O     O_R   0.447590 0.090130 0.037760 -0.503405
O7    O     O_R   0.551300 0.090080 0.141420 -0.510632
O8    O     O_R   0.357980 0.909810 0.948120 -0.514036
O9    O     O_R   0.461690 0.909750 0.051790 -0.514802
O10   O     O_R   0.910060 0.552180 0.962250 -0.500963
O11   O     O_R   0.910760 0.447820 0.858550 -0.510029
O12   O     O_R   0.445180 0.357580 0.407200 -0.527682
O13   O     O_R   0.089820 0.642350 0.051850 -0.511328
O14   O     O_R   0.090520 0.537990 0.948140 -0.508043
O15   O     O_R   0.089240 0.552180 0.141450 -0.511077
O16   O     O_R   0.089940 0.447820 0.037750 -0.511285
O17   O     O_R   0.549550 0.461960 0.407200 -0.462836
O18   O     O_2   0.634172 0.331404 0.089677 -0.504334
O19   O     O_2   0.631485 0.227129 0.784578 -0.482648
O20   O     O_R   0.638540 0.552110 0.586390 -0.484002
O21   O     O_R   0.534170 0.447730 0.586390 -0.507624
O22   O     O_R   0.548350 0.642270 0.586380 -0.519226
O23   O     O_R   0.443970 0.537890 0.586380 -0.512367
O24   O     O_R   0.459360 0.552110 0.407190 -0.516010
O25   O     O_R   0.354990 0.447740 0.407190 -0.510256
O26   O     O_R   0.448700 0.909820 0.858480 -0.460737

loop_
_geom_bond_atom_site_label_1
_geom_bond_atom_site_label_2
_ccdc_geom_bond_type
C4    O11   A    
C53   O18   D    
C41   C42   A    
C35   C36   A    
Cu5   O3    S    
Cu6   O9    S    
C55   C56   S    
C51   H19   S    
C21   C49   S    
C7    C8    S    
C39   C41   A    
C22   O22   A    
C4    O10   A    
C12   C23   A    
C21   O20   A    
Cu4   O21   S    
C23   C54   S    
C36   C37   S    
Cu2   O16   S    
C28   O15   A    
C26   O3    A    
C32   H8    S    
C30   C31   A    
C56   H22   S    
C22   C41   S    
C27   O7    A    
C10   C17   A    
Cu4   O23   S    
C27   O6    A    
C56   C57   S    
C30   C38   S    
C9    C58   S    
C34   H20   S    
C47   H16   S    
Cu6   O2    S    
C13   H32   S    
Cu1   O10   S    
C26   C45   S    
C47   Cl2   S    
C33   H9    S    
C1    C12   S    
C31   C32   A    
C8    C9    S    
C40   H1    S    
C53   H25   S    
C7    C58   A    
C52   C55   A    
C37   C53   S    
C38   Cl1   S    
C18   H3    S    
C42   H13   S    
C13   C14   A    
C1    O1    A    
C19   H6    S    
Cu1   O1    S    
C8    H29   S    
Cu6   O5    S    
C25   C44   S    
C12   C52   A    
C44   C46   A    
C15   C29   S    
C57   H24   S    
C4    C51   S    
C19   H7    S    
C8    H28   S    
C10   C11   A    
Cu3   O20   S    
C18   C19   S    
C56   H21   S    
C50   C51   D    
C24   O25   A    
C48   H18   S    
C43   C44   A    
C54   H26   S    
C37   C38   S    
C26   O5    A    
C11   C16   S    
C25   O2    A    
Cu4   O12   S    
C47   C48   S    
C10   C19   S    
C23   C34   A    
C6    C24   S    
C24   O24   A    
C17   C18   S    
C34   C45   A    
C9    H30   S    
C28   O16   A    
C39   C46   A    
C20   O12   A    
C37   H10   S    
C49   H4    S    
Cu1   O15   S    
C43   H15   S    
C29   O8    A    
C42   C43   A    
Cu6   O7    S    
Cu1   O13   S    
Cu5   O8    S    
Cu3   O24   S    
C16   O14   A    
C22   O23   A    
C18   H5    S    
C15   C17   A    
C46   C47   S    
C9    H31   S    
C57   H12   S    
C3    C5    A    
C50   H14   S    
C20   O17   A    
C5    H27   S    
C2    C58   A    
C6    C7    A    
C38   H11   S    
Cu4   O25   S    
C48   H17   S    
C30   C36   A    
C3    H23   S    
C27   C35   S    
C32   C33   A    
C2    C3    A    
Cu3   O17   S    
C21   O21   A    
Cu3   O22   S    
C11   C13   A    
C5    C6    A    
Cu2   O11   S    
C40   C50   S    
C33   C35   A    
Cu1   Cu2   S    
C25   O26   A    
C52   C57   S    
Cu3   Cu4   S    
Cu5   O26   S    
Cu2   O14   S    
C45   C55   A    
Cu5   Cu6   S    
C54   O19   D    
C14   H2    S    
C14   C15   A    
C29   O9    A    
C2    C28   S    
Cu5   O6    S    
C1    O4    A    
C40   C49   D    
C16   O13   A    
C39   C48   S    
Cu2   O4    S    
C20   C31   S    
