data_mof_unit_5507.cif
_audit_creation_date              2013-03-05T16:18:23-0500
_audit_creation_method            fapswitch 2.2
_symmetry_space_group_name_H-M    P1
_symmetry_Int_Tables_number       1
_space_group_crystal_system       triclinic
_cell_length_a                    10.777468
_cell_length_b                    9.992064
_cell_length_c                    10.529939
_cell_angle_alpha                 89.993719
_cell_angle_beta                  87.656435
_cell_angle_gamma                 89.286815
_cell_volume                      1132.9238643

loop_
_atom_site_label
_atom_site_type_symbol
_atom_site_description
_atom_site_fract_x
_atom_site_fract_y
_atom_site_fract_z
_atom_type_partial_charge
O1    O     O_R   0.314910 0.616040 0.499970 -0.580874
O2    O     O_R   0.314910 0.383960 0.499970 -0.594433
C1    C     C_R   0.259527 0.500585 0.512742 0.861661
O3    O     O_R   0.500080 0.616020 0.313900 -0.580217
O4    O     O_R   0.500080 0.383980 0.313900 -0.589212
C2    C     C_R   0.499932 0.499770 0.257885 0.912619
Zn1   Zn    Zn3+2 0.500150 0.654960 0.499940 1.025961
Zn2   Zn    Zn3+2 0.500150 0.345040 0.499940 1.018394
O5    O     O_R   0.685320 0.616040 0.499930 -0.602958
O6    O     O_R   0.685320 0.383960 0.499930 -0.618364
O7    O     O_R   0.500150 0.616060 0.686000 -0.554739
O8    O     O_R   0.500150 0.383940 0.686000 -0.543209
C3    C     C_R   0.741854 0.499520 0.505161 0.896061
C4    C     C_R   0.496371 0.500067 0.741713 0.858002
C5    C     C_3   0.394381 0.564819 0.047761 -0.187149
C6    C     C_3   0.494925 0.371890 0.040252 -0.042095
C7    C     C_3   0.391744 0.438199 0.963263 -0.144100
H1    H     H_    0.307088 0.388141 0.931759 0.189560
H2    H     H_    0.311848 0.617947 0.090669 0.212561
H3    H     H_    0.496591 0.266771 0.073443 0.220896
C8    C     C_3   0.493228 0.500073 0.876829 -0.039745
C9    C     C_3   0.495408 0.626859 0.958137 -0.057907
C10   C     C_3   0.595909 0.433300 0.950857 -0.153640
C11   C     C_3   0.597200 0.559280 0.033632 0.103011
C12   C     C_3   0.497800 0.498750 0.122157 -0.041960
H4    H     H_    0.496892 0.732284 0.925910 0.253198
H5    H     H_    0.679107 0.379695 0.910676 0.179148
C13   C     C_3   0.066160 0.629194 0.593160 -0.004767
C14   C     C_3   0.073017 0.369858 0.589337 0.004029
H6    H     H_    0.088989 0.714069 0.527739 0.202075
H7    H     H_    0.111912 0.282623 0.534156 0.185820
C15   C     C_3   0.920881 0.620884 0.600938 -0.003537
C16   C     C_3   0.929264 0.363916 0.576683 -0.039903
H8    H     H_    0.886105 0.715196 0.558123 0.218205
H9    H     H_    0.913396 0.285727 0.503855 0.193058
H10   H     H_    0.131095 0.579523 0.328892 0.241697
H11   H     H_    0.114746 0.403963 0.339013 0.228592
C17   C     C_3   0.082767 0.499526 0.384969 -0.508034
C18   C     C_3   0.122931 0.500701 0.524157 -0.049173
C19   C     C_3   0.879346 0.499374 0.517396 -0.073674
C20   C     C_3   0.941360 0.515843 0.379333 0.567983
C21   C     C_3   0.390056 0.080824 0.432896 0.217670
C22   C     C_3   0.386713 0.921980 0.439083 0.217664
H12   H     H_    0.303530 0.117554 0.482566 0.145729
H13   H     H_    0.303499 0.896977 0.499532 0.142004
C23   C     C_3   0.616793 0.078604 0.435951 -0.049740
C24   C     C_3   0.614020 0.919128 0.430463 -0.038780
C25   C     C_3   0.492703 0.080548 0.630867 0.545698
C26   C     C_3   0.498573 0.917883 0.630671 0.538479
N1    N     N_3   0.499750 0.138610 0.497240 -0.171603
N2    N     N_3   0.499750 0.861390 0.497240 -0.168960
H14   H     H_    0.695056 0.103288 0.497092 0.194512
H15   H     H_    0.696974 0.884648 0.481034 0.212774
Cl1   Cl    Cl    0.911494 0.678056 0.312199 -0.685145
Cl2   Cl    Cl    0.887411 0.394899 0.268529 -0.684904
Cl3   Cl    Cl    0.365938 0.146872 0.277803 -0.537160
Cl4   Cl    Cl    0.343693 0.843179 0.294575 -0.516953
C27   C     C_3   0.661518 0.144331 0.309588 -0.629693
H16   H     H_    0.603468 0.120347 0.228863 0.265113
H17   H     H_    0.670999 0.252237 0.318078 0.298504
H18   H     H_    0.757908 0.110766 0.284318 0.221571
C28   C     C_3   0.644052 0.860496 0.297674 -0.652907
H19   H     H_    0.573224 0.883958 0.227965 0.284309
H20   H     H_    0.734020 0.897570 0.258342 0.230346
H21   H     H_    0.661982 0.753091 0.304852 0.290359
Cl5   Cl    Cl    0.612029 0.143671 0.727201 -0.566935
Cl6   Cl    Cl    0.631148 0.853139 0.712637 -0.588545
Cl7   Cl    Cl    0.356659 0.144923 0.716198 -0.572005
Cl8   Cl    Cl    0.371064 0.852633 0.726024 -0.583622
C29   C     C_3   0.715837 0.626405 0.068696 -0.746891
H22   H     H_    0.741259 0.587794 0.161944 0.294605
H23   H     H_    0.791560 0.602258 0.997940 0.253807
H24   H     H_    0.702113 0.736385 0.071956 0.253311
C30   C     C_3   0.126180 0.669926 0.718870 -0.756080
H25   H     H_    0.084256 0.626681 0.806298 0.236683
H26   H     H_    0.225065 0.640013 0.719316 0.263417
H27   H     H_    0.117957 0.780198 0.730642 0.278440
C31   C     C_3   0.121006 0.349014 0.724516 -0.757310
H28   H     H_    0.221114 0.370549 0.727057 0.252173
H29   H     H_    0.075438 0.414444 0.796549 0.229656
H30   H     H_    0.106178 0.243768 0.754889 0.282104
C32   C     C_3   0.859433 0.624718 0.736200 -0.801987
H31   H     H_    0.872358 0.724770 0.779409 0.280660
H32   H     H_    0.758369 0.606881 0.734615 0.261230
H33   H     H_    0.898545 0.549788 0.800019 0.231623
C33   C     C_3   0.857571 0.310025 0.696554 -0.752743
H34   H     H_    0.761413 0.348018 0.703058 0.268489
H35   H     H_    0.858673 0.198887 0.693264 0.274643
H36   H     H_    0.894139 0.336060 0.789128 0.233548

loop_
_geom_bond_atom_site_label_1
_geom_bond_atom_site_label_2
_geom_bond_distance
_ccdc_geom_bond_type
C23   H14   1.111932 S    
C13   C30   1.553383 S    
C24   C28   1.536742 S    
C11   C29   1.510306 S    
C5    H2    1.110215 S    
H11   C17   1.114895 S    
C30   H26   1.103460 S    
C4    C8    1.421780 S    
O1    Zn1   2.038675 S    
C17   C18   1.545194 S    
O7    C4    1.299308 A    
C31   H29   1.097996 S    
C5    C12   1.531275 S    
C2    C12   1.430369 S    
C27   H17   1.088333 S    
C14   C16   1.562295 S    
Zn1   O5    2.028440 S    
O5    C3    1.309535 A    
C20   Cl2   1.798087 S    
C3    C19   1.492625 S    
C28   H20   1.106796 S    
C21   Cl3   1.788972 S    
C5    C9    1.546961 S    
C14   C31   1.547411 S    
C6    C7    1.545344 S    
C26   N2    1.513743 S    
C30   H27   1.110846 S    
C10   C11   1.531715 S    
C29   H22   1.098779 S    
C10   H5    1.107692 S    
C6    H3    1.107107 S    
C24   H15   1.110314 S    
C27   H18   1.109607 S    
C25   N1    1.521316 S    
C1    C18   1.472140 S    
C26   Cl8   1.797507 S    
C8    C9    1.530076 S    
C23   C27   1.545767 S    
C21   H12   1.108827 S    
O3    Zn1   1.997330 S    
C16   C19   1.587549 S    
C30   H25   1.099616 S    
C13   C15   1.567772 S    
C11   C12   1.522079 S    
C17   C20   1.534249 S    
O3    C2    1.302858 A    
C33   H34   1.098737 S    
C24   N2    1.513517 S    
C13   C18   1.579552 S    
C27   H16   1.103933 S    
C33   H36   1.098756 S    
C7    C8    1.530412 S    
O1    C1    1.309874 A    
C15   H8    1.112083 S    
Zn1   O7    1.997344 S    
C16   C33   1.552633 S    
C28   H19   1.103539 S    
Zn2   O8    1.997428 S    
C14   C18   1.567435 S    
C29   H24   1.107359 S    
C7    H1    1.108513 S    
C25   Cl7   1.799936 S    
C22   H13   1.109393 S    
C21   N1    1.507542 S    
C25   C26   1.625800 S    
O8    C4    1.299712 A    
C6    C10   1.542669 S    
C32   H32   1.106689 S    
C8    C10   1.526272 S    
C9    C11   1.531080 S    
C21   C22   1.589305 S    
Zn2   N1    2.062922 S    
C6    C12   1.534597 S    
C5    C7    1.548041 S    
C23   C24   1.595242 S    
C19   C20   1.584467 S    
C26   Cl6   1.811829 S    
C28   H21   1.091254 S    
C31   H28   1.104176 S    
O2    Zn2   2.029173 S    
O6    C3    1.314472 A    
O4    Zn2   1.997243 S    
C32   H33   1.097748 S    
C15   C32   1.546253 S    
C23   N1    1.510591 S    
H10   C17   1.115355 S    
O2    C1    1.307101 A    
Zn1   N2    2.062809 S    
C14   H7    1.115453 S    
C31   H30   1.110699 S    
C22   N2    1.506075 S    
O4    C2    1.298615 A    
C13   H6    1.116034 S    
C16   H9    1.114412 S    
C33   H35   1.110940 S    
C15   C19   1.579342 S    
C20   Cl1   1.798843 S    
C22   Cl4   1.793721 S    
Zn2   O6    2.037942 S    
C32   H31   1.111128 S    
C9    H4    1.106789 S    
C29   H23   1.106693 S    
C25   Cl5   1.791009 S    
