data_mof_unit_55316.cif
_audit_creation_date              2012-12-10T16:43:24-0500
_audit_creation_method            fapswitch 2.2
_symmetry_space_group_name_H-M    P1
_symmetry_Int_Tables_number       1
_space_group_crystal_system       triclinic
_cell_length_a                    10.843704
_cell_length_b                    8.829478
_cell_length_c                    7.482905
_cell_angle_alpha                 102.368468
_cell_angle_beta                  93.814662
_cell_angle_gamma                 93.701077
_cell_volume                      695.980065971

loop_
_atom_site_label
_atom_site_type_symbol
_atom_type_description
_atom_site_fract_x
_atom_site_fract_y
_atom_site_fract_z
_atom_type_partial_charge
C1    C     C_R   0.493581 0.200357 0.454969 0.860711
C2    C     C_R   0.068412 0.518822 0.668058 0.031372
C3    C     C_R   0.126314 0.471126 0.505076 -0.163619
C4    C     C_R   0.053565 0.431607 0.338889 -0.345917
C5    C     C_R   0.925528 0.444787 0.332686 0.499716
C6    C     C_R   0.873964 0.521621 0.492875 -0.195750
C7    C     C_2   0.489113 0.033416 0.433571 -0.423866
C8    C     C_2   0.499530 0.965367 0.577307 -0.193654
C9    C     C_R   0.261954 0.486379 0.501399 0.815735
C10   C     C_R   0.501241 0.799125 0.546552 0.849177
C11   C     C_R   0.738177 0.512120 0.498418 0.816606
C12   C     C_R   0.120782 0.509420 0.841481 0.052543
C13   C     C_R   0.086192 0.610029 0.996927 -0.192085
C14   C     C_R   0.988964 0.702844 0.980956 -0.169986
C15   C     C_R   0.919724 0.686328 0.811672 0.053581
C16   C     C_R   0.952066 0.577840 0.656734 -0.036743
Cu1   Cu    Cu3+1 0.513920 0.517380 0.684380 0.978792
Cu2   Cu    Cu3+1 0.486080 0.482620 0.315620 0.993537
H1    H     H_    0.096308 0.384327 0.215283 0.175649
H2    H     H_    0.133294 0.615897 0.130162 0.164351
H3    H     H_    0.965253 0.781362 0.102936 0.148303
H4    H     H_    0.479446 0.963796 0.293958 0.183711
H5    H     H_    0.409816 0.372803 0.947681 0.253595
N1    N     N_2   0.465100 0.456430 0.038520 -0.229986
N2    N     N_2   0.534900 0.543570 0.961480 -0.209923
O1    O     O_R   0.509050 0.286130 0.619770 -0.586990
O2    O     O_R   0.485540 0.256780 0.308360 -0.560591
O3    O     O_R   0.331410 0.514680 0.655740 -0.594074
O4    O     O_R   0.307900 0.485330 0.344330 -0.591279
O5    O     O_R   0.514460 0.743220 0.691640 -0.588391
O6    O     O_R   0.490950 0.713870 0.380230 -0.603897
O7    O     O_R   0.692100 0.514670 0.655670 -0.595094
O8    O     O_R   0.668590 0.485320 0.344260 -0.535570
C17   C     C_1   0.625153 0.646649 0.070436 0.620670
N3    N     N_1   0.701447 0.732803 0.159692 -0.378658
C18   C     C_1   0.169805 0.365355 0.861253 0.189137
N4    N     N_1   0.203962 0.246461 0.874762 -0.324817
C19   C     C_1   0.832690 0.799225 0.791598 0.208626
N5    N     N_1   0.764338 0.891227 0.774480 -0.331728
O9    O     O_3   0.848822 0.389109 0.172168 -0.578139
C20   C     C_3   0.874551 0.239700 0.075145 0.116434
H6    H     H_    0.958768 0.247026 0.000397 0.115630
H7    H     H_    0.797624 0.198157 0.966652 0.192241
C21   C     C_3   0.884285 0.116966 0.193396 -0.432648
H8    H     H_    0.897547 0.005911 0.100788 0.198255
H9    H     H_    0.966772 0.143281 0.293951 0.207797
C22   C     C_3   0.768846 0.095910 0.293132 -0.684510
H10   H     H_    0.753965 0.204215 0.391847 0.239024
H11   H     H_    0.780779 0.004401 0.372506 0.237469
H12   H     H_    0.686685 0.061053 0.192752 0.265532
C23   C     C_1   0.510906 0.048855 0.768507 0.354288
N6    N     N_1   0.520641 0.112725 0.921319 -0.274570

loop_
_geom_bond_atom_site_label_1
_geom_bond_atom_site_label_2
_ccdc_geom_bond_type
H5    N1    S    
C15   C19   S    
C3    C9    S    
C12   C18   S    
C7    H4    S    
C2    C16   A    
C20   H6    S    
C10   O5    A    
C22   H10   S    
C4    H1    S    
C21   C22   S    
C9    O4    A    
N2    C17   S    
Cu1   N2    S    
C2    C3    A    
C2    C12   A    
C7    C8    D    
C22   H11   S    
Cu2   O4    S    
C13   C14   A    
C21   H8    S    
Cu1   O5    S    
C20   H7    S    
C8    C23   S    
C19   N5    T    
Cu2   N1    S    
Cu1   O1    S    
C14   H3    S    
C18   N4    T    
Cu2   O8    S    
C21   H9    S    
C11   O7    A    
Cu1   Cu2   S    
C22   H12   S    
C1    O1    A    
C20   C21   S    
C1    O2    A    
C15   C16   A    
C6    C16   A    
C3    C4    A    
C11   O8    A    
N1    N2    D    
C8    C10   S    
C17   N3    T    
C5    O9    S    
C6    C11   S    
C5    C6    A    
Cu1   O7    S    
C14   C15   A    
O9    C20   S    
Cu2   O6    S    
C13   H2    S    
C12   C13   A    
C1    C7    S    
Cu1   O3    S    
C10   O6    A    
Cu2   O2    S    
C23   N6    T    
C9    O3    A    
C4    C5    A    
