data_mof_unit_36887.cif
_audit_creation_date              2012-12-10T17:04:31-0500
_audit_creation_method            fapswitch 2.2
_symmetry_space_group_name_H-M    P1
_symmetry_Int_Tables_number       1
_space_group_crystal_system       triclinic
_cell_length_a                    14.905437
_cell_length_b                    10.682051
_cell_length_c                    10.081807
_cell_angle_alpha                 92.507922
_cell_angle_beta                  89.316034
_cell_angle_gamma                 89.850884
_cell_volume                      1603.57211354

loop_
_atom_site_label
_atom_site_type_symbol
_atom_type_description
_atom_site_fract_x
_atom_site_fract_y
_atom_site_fract_z
_atom_type_partial_charge
C1    C     C_R   0.501089 0.263394 0.496532 0.927185
C2    C     C_R   0.905949 0.614484 0.489115 -0.005865
C3    C     C_R   0.954810 0.274631 0.527143 -0.201215
C4    C     C_R   0.047760 0.274553 0.531463 0.448339
C5    C     C_R   0.094540 0.388200 0.516831 0.035441
C6    C     C_R   0.046927 0.502776 0.508715 -0.071197
C7    C     C_R   0.093263 0.618953 0.506015 -0.036271
C8    C     C_R   0.045300 0.731938 0.493373 0.438977
C9    C     C_R   0.951943 0.728266 0.486289 -0.316015
C10   C     C_R   0.187496 0.390135 0.505763 -0.336414
C11   C     C_R   0.232121 0.503632 0.504819 -0.176126
C12   C     C_R   0.327369 0.501351 0.501080 0.943898
C13   C     C_R   0.187017 0.618148 0.516442 0.447784
C14   C     C_2   0.439355 0.931938 0.434419 0.386471
C15   C     C_2   0.492504 0.871252 0.517878 0.202544
C16   C     C_2   0.432932 0.067992 0.449135 -0.264415
C17   C     C_2   0.505547 0.132437 0.484472 -0.221538
C18   C     C_2   0.559423 0.557930 0.926458 0.520397
C19   C     C_2   0.540111 0.582441 0.073415 0.419353
C20   C     C_R   0.499410 0.737583 0.503695 0.887997
C21   C     C_R   0.672581 0.500614 0.499048 1.025103
C22   C     C_R   0.812822 0.612424 0.478685 0.324964
C23   C     C_R   0.767906 0.499879 0.496038 -0.219804
C24   C     C_R   0.812639 0.385934 0.505911 0.322456
C25   C     C_R   0.906717 0.385722 0.509922 -0.062669
C26   C     C_R   0.953202 0.500966 0.502735 -0.034696
H1    H     H_    0.370152 0.114952 0.428094 0.143174
H2    H     H_    0.571349 0.090214 0.491892 0.155937
H3    H     H_    0.440437 0.479566 0.895493 0.167785
H4    H     H_    0.921215 0.186515 0.541367 0.173838
H5    H     H_    0.226612 0.304423 0.498449 0.161150
H6    H     H_    0.915342 0.815288 0.478076 0.185344
N1    N     N_2   0.500970 0.501330 0.852150 -0.218009
N2    N     N_2   0.500990 0.501360 0.147810 -0.001558
O1    O     O_R   0.499990 0.319060 0.613040 -0.590243
O2    O     O_R   0.500010 0.319100 0.386900 -0.636798
O3    O     O_R   0.367830 0.499950 0.613080 -0.647695
O4    O     O_R   0.367860 0.499990 0.386940 -0.598038
O5    O     O_R   0.499990 0.680900 0.613100 -0.608643
O6    O     O_R   0.500010 0.680940 0.386960 -0.584802
O7    O     O_R   0.632140 0.500010 0.613060 -0.562064
O8    O     O_R   0.632170 0.500050 0.386920 -0.629242
Zn1   Zn    Zn3+2 0.499980 0.499970 0.650990 1.012291
Zn2   Zn    Zn3+2 0.500020 0.500030 0.349010 1.012705
O9    O     O_3   0.764634 0.721101 0.458508 -0.645855
C27   C     C_3   0.763073 0.740395 0.320554 0.079583
H7    H     H_    0.726452 0.663489 0.266828 0.186733
H8    H     H_    0.832086 0.745748 0.277609 0.137804
C28   C     C_3   0.715645 0.863427 0.296430 -0.785160
H9    H     H_    0.749686 0.941915 0.351214 0.234976
H10   H     H_    0.717181 0.881249 0.188741 0.227639
H11   H     H_    0.644652 0.858980 0.330049 0.253747
O10   O     O_3   0.520633 0.931321 0.636269 -0.630462
C29   C     C_3   0.612267 0.905966 0.660201 0.082324
H12   H     H_    0.654241 0.913402 0.568934 0.153646
H13   H     H_    0.621032 0.811346 0.699473 0.225844
C30   C     C_3   0.646830 0.000846 0.764113 -0.741068
H14   H     H_    0.607562 0.994412 0.857885 0.267266
H15   H     H_    0.718516 0.981425 0.784225 0.205770
H16   H     H_    0.640679 0.097206 0.727966 0.268553
O11   O     O_3   0.632118 0.612624 0.863855 -0.588457
C31   C     C_3   0.710840 0.605825 0.940066 0.104052
H17   H     H_    0.715414 0.516943 0.993864 0.129531
H18   H     H_    0.713770 0.687218 0.012201 0.182627
C32   C     C_3   0.792315 0.612192 0.848305 -0.813930
H19   H     H_    0.789004 0.697663 0.789555 0.263171
H20   H     H_    0.854577 0.615033 0.907744 0.202692
H21   H     H_    0.794634 0.528133 0.779657 0.266672
O12   O     O_3   0.564866 0.697165 0.127399 -0.811758
H22   H     H_    0.508998 0.736129 0.163827 0.373179
O13   O     O_3   0.487339 0.387842 0.089183 -0.761063
H23   H     H_    0.458766 0.337890 0.158054 0.383887
O14   O     O_3   0.762161 0.277895 0.512159 -0.788747
H24   H     H_    0.791883 0.211418 0.455866 0.325383
O15   O     O_3   0.089643 0.161800 0.552139 -0.778091
H25   H     H_    0.143966 0.178123 0.605560 0.329476
O16   O     O_3   0.235332 0.727816 0.537375 -0.547813
C33   C     C_3   0.233208 0.760057 0.675180 0.131180
H26   H     H_    0.276226 0.694766 0.729605 0.135090
H27   H     H_    0.163780 0.757686 0.717593 0.136646
C34   C     C_3   0.268248 0.892549 0.699178 -0.706929
H28   H     H_    0.230693 0.958824 0.638452 0.282398
H29   H     H_    0.259927 0.921581 0.805749 0.193932
H30   H     H_    0.340405 0.896247 0.672987 0.264103
O17   O     O_3   0.090429 0.844150 0.483329 -0.700482
H31   H     H_    0.046628 0.913109 0.473817 0.354221
O18   O     O_3   0.389978 0.866837 0.338763 -0.749319
H32   H     H_    0.356072 0.928250 0.287822 0.347194

loop_
_geom_bond_atom_site_label_1
_geom_bond_atom_site_label_2
_ccdc_geom_bond_type
O18   H32   S    
O14   H24   S    
C34   H28   S    
C7    C8    A    
O10   C29   S    
C27   C28   S    
C15   O10   S    
C14   O18   S    
C18   C19   S    
O17   H31   S    
C5    C6    A    
C20   O6    A    
C33   H27   S    
C24   O14   S    
C30   H15   S    
H3    N1    S    
C8    O17   S    
C12   O3    A    
C4    O15   S    
C31   H18   S    
C9    H6    S    
C27   H7    S    
C10   H5    S    
C16   C17   D    
C32   H20   S    
C2    C22   A    
C23   C24   A    
O1    Zn1   S    
C32   H21   S    
C16   H1    S    
O7    Zn1   S    
O12   H22   S    
O8    Zn2   S    
C5    C10   A    
C34   H29   S    
C27   H8    S    
C15   C20   S    
C29   H13   S    
N1    Zn1   S    
C3    C25   A    
N2    Zn2   S    
C24   C25   A    
C20   O5    A    
C33   H26   S    
C8    C9    A    
C30   H16   S    
O5    Zn1   S    
C28   H10   S    
C25   C26   A    
O16   C33   S    
O3    Zn1   S    
C3    H4    S    
O15   H25   S    
O4    Zn2   S    
C31   H17   S    
C7    C13   A    
C28   H11   S    
C2    C26   A    
C21   O7    A    
C32   H19   S    
C21   C23   S    
C13   O16   S    
C14   C16   S    
O2    Zn2   S    
C3    C4    A    
C34   H30   S    
C1    O1    A    
C29   H12   S    
C31   C32   S    
C14   C15   D    
C17   H2    S    
C4    C5    A    
C19   N2    D    
C11   C12   S    
C18   O11   S    
C6    C7    A    
C1    C17   S    
O13   H23   S    
C11   C13   A    
C33   C34   S    
C30   H14   S    
C6    C26   A    
C12   O4    A    
O11   C31   S    
C18   N1    D    
C19   O12   S    
C10   C11   A    
C21   O8    A    
O9    C27   S    
O6    Zn2   S    
C22   O9    S    
C28   H9    S    
C22   C23   A    
C2    C9    A    
N2    O13   S    
C1    O2    A    
C29   C30   S    
