data_mof_unit_18695.cif
_audit_creation_date              2012-12-11T17:12:46-0500
_audit_creation_method            fapswitch 2.2
_symmetry_space_group_name_H-M    P1
_symmetry_Int_Tables_number       1
_space_group_crystal_system       triclinic
_cell_length_a                    17.155994
_cell_length_b                    6.886259
_cell_length_c                    14.355226
_cell_angle_alpha                 89.308026
_cell_angle_beta                  109.875496
_cell_angle_gamma                 90.785308
_cell_volume                      1594.71511543

loop_
_atom_site_label
_atom_site_type_symbol
_atom_type_description
_atom_site_fract_x
_atom_site_fract_y
_atom_site_fract_z
_atom_type_partial_charge
O1    O     O_R   0.314130 0.635770 0.168990 -0.543264
O2    O     O_R   0.685870 0.364230 0.831010 -0.543263
O3    O     O_R   0.185870 0.135770 0.331010 -0.539457
O4    O     O_R   0.814130 0.864230 0.668990 -0.539460
O5    O     O_R   0.146800 0.302460 0.139760 -0.538697
O6    O     O_R   0.853200 0.697540 0.860240 -0.538695
O7    O     O_R   0.353200 0.802460 0.360240 -0.534605
O8    O     O_R   0.646800 0.197540 0.639760 -0.534606
C1    C     C_R   0.113991 0.475626 0.112835 0.725504
C2    C     C_R   0.886009 0.524374 0.887165 0.725509
C3    C     C_R   0.386014 0.976052 0.387158 0.726506
C4    C     C_R   0.613986 0.023948 0.612841 0.726521
O9    O     O_R   0.311100 0.305780 0.157130 -0.542091
O10   O     O_R   0.688900 0.694220 0.842870 -0.542092
O11   O     O_R   0.188900 0.805780 0.342870 -0.545087
O12   O     O_R   0.811100 0.194220 0.657130 -0.545085
O13   O     O_R   0.351340 0.139640 0.348510 -0.536191
O14   O     O_R   0.648660 0.860360 0.651490 -0.536190
O15   O     O_R   0.148660 0.639640 0.151490 -0.532563
O16   O     O_R   0.851340 0.360360 0.848510 -0.532560
C5    C     C_R   0.331654 0.477043 0.134355 0.713302
C6    C     C_R   0.668346 0.522957 0.865645 0.713308
C7    C     C_R   0.168250 0.973108 0.365750 0.713895
C8    C     C_R   0.831749 0.026892 0.634249 0.713885
C9    C     C_1   0.533583 0.008645 0.533084 -0.186230
C10   C     C_1   0.466418 0.991354 0.466916 -0.186226
C11   C     C_1   0.966436 0.509159 0.966948 -0.186093
C12   C     C_1   0.033564 0.490841 0.033052 -0.186088
O17   O     O_3   0.263010 0.470920 0.312770 -0.367700
O18   O     O_3   0.736990 0.529080 0.687230 -0.367703
O19   O     O_3   0.236990 0.970920 0.187230 -0.369838
O20   O     O_3   0.763010 0.029080 0.812770 -0.369838
V1    V     V_3+5 0.247590 0.194450 0.238360 1.413021
V2    V     V_3+5 0.752410 0.805550 0.761640 1.413016
V3    V     V_3+5 0.252410 0.694450 0.261640 1.416731
V4    V     V_3+5 0.747590 0.305550 0.738360 1.416726
C13   C     C_R   0.118894 0.975132 0.432622 -0.071856
C14   C     C_R   0.881102 0.024867 0.567373 -0.071886
C15   C     C_R   0.380857 0.494990 0.067708 -0.071296
C16   C     C_R   0.619144 0.505011 0.932294 -0.071309
C17   C     C_R   0.908947 0.135610 0.419407 -0.199940
C18   C     C_R   0.091047 0.864388 0.580587 -0.199951
C19   C     C_R   0.591338 0.356224 0.073137 -0.199613
C20   C     C_R   0.408665 0.643781 0.926867 -0.199612
C21   C     C_R   0.855031 0.123756 0.474501 0.138266
C22   C     C_R   0.144966 0.876251 0.525496 0.138260
C23   C     C_R   0.645301 0.387251 0.019190 0.137046
C24   C     C_R   0.354699 0.612743 0.980810 0.137050
C25   C     C_R   0.959018 0.935737 0.600856 -0.262138
C26   C     C_R   0.040976 0.064254 0.399136 -0.262149
C27   C     C_R   0.541040 0.592811 0.903475 -0.262970
C28   C     C_R   0.458964 0.407200 0.096531 -0.262972
C29   C     C_R   0.012477 0.949129 0.545484 0.122353
C30   C     C_R   0.987517 0.050862 0.454508 0.122352
C31   C     C_R   0.487460 0.560081 0.957506 0.122114
C32   C     C_R   0.512544 0.439930 0.042500 0.122115
H1    H     H_    0.020911 0.138962 0.328084 0.118287
H2    H     H_    0.979083 0.861027 0.671907 0.118287
H3    H     H_    0.479089 0.318347 0.163219 0.117925
H4    H     H_    0.520915 0.681666 0.836787 0.117924
H5    H     H_    0.889457 0.210795 0.348507 0.116618
H6    H     H_    0.110538 0.789207 0.651489 0.116618
H7    H     H_    0.610917 0.266615 0.139554 0.117257
H8    H     H_    0.389085 0.733385 0.860449 0.117256
C33   C     C_3   0.230062 0.786195 0.569062 -0.366997
C34   C     C_3   0.297997 0.941523 0.603038 -0.760947
H9    H     H_    0.299814 0.033536 0.539830 0.213513
H10   H     H_    0.287126 0.035006 0.659875 0.227281
H11   H     H_    0.359152 0.870790 0.636163 0.212109
H12   H     H_    0.233634 0.693728 0.634426 0.175129
H13   H     H_    0.242505 0.688509 0.515030 0.195332
C35   C     C_3   0.769941 0.213844 0.430946 -0.367009
C36   C     C_3   0.701994 0.058546 0.396961 -0.760845
H14   H     H_    0.712814 0.965189 0.340037 0.227251
H15   H     H_    0.700228 0.966392 0.460152 0.213506
H16   H     H_    0.640830 0.129324 0.363934 0.212092
H17   H     H_    0.757507 0.311520 0.484988 0.195333
H18   H     H_    0.766371 0.306330 0.365589 0.175122
C37   C     C_3   0.269537 0.703798 0.942584 -0.367070
C38   C     C_3   0.201830 0.551134 0.899340 -0.765365
H19   H     H_    0.212919 0.474629 0.837364 0.227276
H20   H     H_    0.200072 0.443292 0.956656 0.214469
H21   H     H_    0.140585 0.622924 0.870450 0.212923
H22   H     H_    0.256873 0.784729 0.002115 0.198000
H23   H     H_    0.265997 0.812156 0.883235 0.175158
C39   C     C_3   0.730456 0.296155 0.057404 -0.367039
C40   C     C_3   0.798182 0.448783 0.100648 -0.765339
H24   H     H_    0.799930 0.556672 0.043348 0.214463
H25   H     H_    0.787127 0.525234 0.162661 0.227261
H26   H     H_    0.859421 0.376962 0.129491 0.212918
H27   H     H_    0.733990 0.187791 0.116749 0.175140
H28   H     H_    0.743105 0.215216 0.997864 0.198002

loop_
_geom_bond_atom_site_label_1
_geom_bond_atom_site_label_2
_ccdc_geom_bond_type
C2    C11   S    
C16   C23   A    
C34   H10   S    
C31   C32   A    
O1    C5    A    
C36   H14   S    
O3    C7    A    
C17   H5    S    
C40   H24   S    
C19   H7    S    
C14   C25   A    
C29   C30   A    
C20   H8    S    
O7    C3    A    
C26   C30   A    
O20   V4    S    
C24   C37   S    
C39   H27   S    
C18   C29   A    
O8    V4    S    
C37   H22   S    
O4    C8    A    
C34   H11   S    
O3    V1    S    
C33   H12   S    
O17   V1    S    
C18   C22   A    
C14   C21   A    
C35   H18   S    
C1    O15   A    
C33   H13   S    
O5    V1    S    
O2    C6    A    
C8    C14   S    
O19   V1    S    
C18   H6    S    
O11   C7    A    
C34   H9    S    
O12   C8    A    
O9    V1    S    
C21   C35   S    
C36   H15   S    
O13   V1    S    
C38   H21   S    
O11   V3    S    
O4    V2    S    
O18   V2    S    
C23   C39   S    
C22   C33   S    
C38   H20   S    
C2    O16   A    
C39   C40   S    
C38   H19   S    
C3    C10   S    
C9    C10   T    
C7    C13   S    
C25   H2    S    
O6    V2    S    
O20   V2    S    
O5    C1    A    
C35   H17   S    
C28   H3    S    
C5    C15   S    
O8    C4    A    
C6    C16   S    
O9    C5    A    
O14   V2    S    
C40   H25   S    
C36   H16   S    
O19   V3    S    
C37   H23   S    
O1    V3    S    
O2    V4    S    
C3    O13   A    
C26   H1    S    
O7    V3    S    
C35   C36   S    
O10   V2    S    
C16   C27   A    
O17   V3    S    
O18   V4    S    
C4    C9    S    
O10   C6    A    
C39   H28   S    
O12   V4    S    
C13   C26   A    
C20   C31   A    
C25   C29   A    
C15   C28   A    
C27   C31   A    
C17   C30   A    
O6    C2    A    
C37   C38   S    
O16   V4    S    
C28   C32   A    
C19   C32   A    
C33   C34   S    
C40   H26   S    
C4    O14   A    
C11   C12   T    
C17   C21   A    
O15   V3    S    
C27   H4    S    
C13   C22   A    
C19   C23   A    
C20   C24   A    
C1    C12   S    
C15   C24   A    
