data_mof_unit_38775.cif
_audit_creation_date              2013-03-05T15:47:35-0500
_audit_creation_method            fapswitch 2.2
_symmetry_space_group_name_H-M    P1
_symmetry_Int_Tables_number       1
_space_group_crystal_system       triclinic
_cell_length_a                    7.226513
_cell_length_b                    15.630383
_cell_length_c                    22.190647
_cell_angle_alpha                 89.996668
_cell_angle_beta                  87.875336
_cell_angle_gamma                 90.015161
_cell_volume                      2504.78058643

loop_
_atom_site_label
_atom_site_type_symbol
_atom_site_description
_atom_site_fract_x
_atom_site_fract_y
_atom_site_fract_z
_atom_type_partial_charge
O1    O     O_R   0.390810 0.844810 0.447340 -0.586117
O2    O     O_R   0.109190 0.155190 0.947340 -0.587203
O3    O     O_R   0.890810 0.655190 0.552660 -0.587162
O4    O     O_R   0.609190 0.344810 0.052660 -0.586022
O5    O     O_R   0.720550 0.655820 0.440420 -0.586307
O6    O     O_R   0.779450 0.344180 0.940420 -0.569268
O7    O     O_R   0.220550 0.844180 0.559580 -0.569264
O8    O     O_R   0.279450 0.155820 0.059580 -0.586320
C1    C     C_R   0.555122 0.625027 0.428239 1.028776
C2    C     C_R   0.950046 0.374803 0.928418 1.035834
C3    C     C_R   0.049985 0.874800 0.571585 1.035860
C4    C     C_R   0.444812 0.124984 0.071733 1.028894
O9    O     O_R   0.720530 0.844130 0.440420 -0.588436
O10   O     O_R   0.779470 0.155870 0.940420 -0.582010
O11   O     O_R   0.220530 0.655870 0.559580 -0.582011
O12   O     O_R   0.279470 0.344130 0.059580 -0.588330
O13   O     O_R   0.890830 0.844810 0.552660 -0.587832
O14   O     O_R   0.609170 0.155190 0.052660 -0.577351
O15   O     O_R   0.390830 0.655190 0.447340 -0.577247
O16   O     O_R   0.109170 0.344810 0.947340 -0.587766
C5    C     C_R   0.555114 0.871960 0.425398 1.011326
C6    C     C_R   0.950103 0.127962 0.925878 1.014671
C7    C     C_R   0.049869 0.627960 0.574120 1.014789
C8    C     C_R   0.444947 0.371918 0.074620 1.011078
O17   O     O_3   0.557310 0.749980 0.536820 -0.273544
O18   O     O_3   0.942690 0.250020 0.036820 -0.265096
O19   O     O_3   0.057310 0.750020 0.463180 -0.264996
O20   O     O_3   0.442690 0.249980 0.963180 -0.273553
V1    V     V_3+5 0.832160 0.749980 0.493170 1.275613
V2    V     V_3+5 0.667840 0.250020 0.993170 1.284610
V3    V     V_3+5 0.332160 0.750020 0.506830 1.284679
V4    V     V_3+5 0.167840 0.249980 0.006830 1.275609
C9    C     C_R   0.138906 0.582293 0.869610 0.012204
C10   C     C_R   0.719644 0.421750 0.355233 -0.062889
C11   C     C_R   0.277513 0.922466 0.145180 -0.062372
C12   C     C_R   0.861291 0.082279 0.630372 0.012070
H1    H     H_    0.107818 0.523257 0.956253 0.135447
H2    H     H_    0.752041 0.481636 0.440708 0.135535
H3    H     H_    0.245598 0.982178 0.059632 0.135422
H4    H     H_    0.892413 0.023254 0.543734 0.135680
H5    H     H_    0.221847 0.700063 0.787962 0.181784
H6    H     H_    0.759927 0.307460 0.269680 0.213439
H7    H     H_    0.235634 0.808610 0.230962 0.214264
H8    H     H_    0.778328 0.200034 0.712006 0.181765
H9    H     H_    0.214308 0.636006 0.887446 0.173903
H10   H     H_    0.811427 0.369607 0.366179 0.181467
H11   H     H_    0.184488 0.870699 0.134429 0.181761
H12   H     H_    0.785938 0.135983 0.612525 0.173805
C13   C     C_R   0.975388 0.449068 0.887904 -0.146135
C14   C     C_R   0.562308 0.551778 0.386219 -0.143267
C15   C     C_R   0.437254 0.051752 0.113788 -0.143473
C16   C     C_R   0.024712 0.949065 0.612099 -0.146143
C17   C     C_R   0.985766 0.477000 0.594256 -0.284682
C18   C     C_R   0.337667 0.514423 0.104062 -0.261933
C19   C     C_R   0.664410 0.014079 0.395672 -0.261082
C20   C     C_R   0.014087 0.977004 0.905757 -0.284612
C21   C     C_R   0.965766 0.405116 0.631126 0.444537
C22   C     C_R   0.295981 0.579622 0.145198 0.429081
C23   C     C_R   0.706855 0.079059 0.354412 0.427932
C24   C     C_R   0.034120 0.905124 0.868893 0.444422
C25   C     C_R   0.972727 0.413955 0.693749 -0.264751
C26   C     C_R   0.358559 0.573706 0.203977 -0.244439
C27   C     C_R   0.643167 0.073330 0.295762 -0.244735
C28   C     C_R   0.027221 0.913964 0.806268 -0.264687
C29   C     C_R   0.011751 0.493612 0.720373 0.036377
C30   C     C_R   0.460940 0.502210 0.223228 0.037968
C31   C     C_R   0.539226 0.002190 0.276737 0.038212
C32   C     C_R   0.988244 0.993612 0.779633 0.036347
C33   C     C_R   0.054938 0.564739 0.681840 -0.044431
C34   C     C_R   0.501306 0.434879 0.180690 -0.040708
C35   C     C_R   0.498222 0.935048 0.319383 -0.039851
C36   C     C_R   0.945048 0.064733 0.818157 -0.044393
C37   C     C_R   0.019529 0.503241 0.784350 0.067715
C38   C     C_R   0.524454 0.495620 0.283690 0.089269
C39   C     C_R   0.474946 0.995724 0.216367 0.089599
C40   C     C_R   0.980530 0.003236 0.715651 0.067668
C41   C     C_R   0.108708 0.575779 0.807767 0.090505
C42   C     C_R   0.642975 0.427154 0.298272 0.089447
C43   C     C_R   0.354818 0.927725 0.202045 0.089472
C44   C     C_R   0.891425 0.075766 0.692219 0.090576
C45   C     C_R   0.162066 0.642450 0.769587 -0.255219
C46   C     C_R   0.679764 0.362533 0.256817 -0.286413
C47   C     C_R   0.317174 0.863347 0.243635 -0.287518
C48   C     C_R   0.838065 0.142430 0.730391 -0.255245
C49   C     C_R   0.122520 0.640128 0.708689 0.343031
C50   C     C_R   0.601351 0.362964 0.200648 0.344282
C51   C     C_R   0.396741 0.863442 0.299621 0.343687
C52   C     C_R   0.877534 0.140112 0.791294 0.343026
C53   C     C_R   0.942303 0.443261 0.825921 -0.113327
C54   C     C_R   0.476374 0.554637 0.330359 -0.116596
C55   C     C_R   0.523771 0.054428 0.169550 -0.116128
C56   C     C_R   0.057732 0.943259 0.674088 -0.113328
C57   C     C_R   0.075561 0.518823 0.909047 -0.171367
C58   C     C_R   0.683536 0.484718 0.398123 -0.161216
C59   C     C_R   0.314617 0.985114 0.102129 -0.160373
C60   C     C_R   0.924627 0.018818 0.590944 -0.171209
C61   C     C_R   0.032168 0.556576 0.618111 -0.204001
C62   C     C_R   0.437517 0.441816 0.120334 -0.209534
C63   C     C_R   0.562899 0.941827 0.379636 -0.209775
C64   C     C_R   0.967742 0.056574 0.881892 -0.203954
H13   H     H_    0.956307 0.356786 0.720780 0.178177
H14   H     H_    0.328412 0.627111 0.233377 0.177204
H15   H     H_    0.673850 0.126573 0.266261 0.177308
H16   H     H_    0.043666 0.856799 0.779242 0.178178
H17   H     H_    0.857972 0.392064 0.810357 0.192579
H18   H     H_    0.376396 0.603997 0.323975 0.189556
H19   H     H_    0.624672 0.103466 0.175752 0.189031
H20   H     H_    0.141997 0.892065 0.689665 0.192586
H21   H     H_    0.974666 0.470060 0.545899 0.151018
H22   H     H_    0.285679 0.518768 0.058952 0.149806
H23   H     H_    0.717141 0.018260 0.440689 0.150083
H24   H     H_    0.025150 0.970067 0.954116 0.150945
N1    N     N_R   0.948725 0.321953 0.604739 0.226556
O21   O     O_R   0.875289 0.312771 0.552456 -0.370379
O22   O     O_R   0.033466 0.257393 0.628282 -0.418940
N2    N     N_R   0.184911 0.651111 0.127578 0.231445
O23   O     O_R   0.168867 0.669891 0.070856 -0.362533
O24   O     O_R   0.087629 0.693866 0.167821 -0.415051
N3    N     N_R   0.819932 0.150063 0.371745 0.231288
O25   O     O_R   0.839712 0.168047 0.428420 -0.363477
O26   O     O_R   0.915639 0.193016 0.331199 -0.414037
N4    N     N_R   0.051182 0.821966 0.895287 0.226569
O27   O     O_R   0.124464 0.812814 0.947597 -0.369355
O28   O     O_R   0.966665 0.757356 0.871704 -0.419039
N5    N     N_R   0.135335 0.718095 0.676579 0.194371
O29   O     O_R   0.294150 0.756971 0.670497 -0.420752
O30   O     O_R   0.982320 0.758571 0.666818 -0.474360
N6    N     N_R   0.601837 0.284222 0.169012 0.202968
O31   O     O_R   0.447702 0.241403 0.169076 -0.468470
O32   O     O_R   0.758174 0.245476 0.156980 -0.407228
N7    N     N_R   0.396413 0.784559 0.331107 0.203447
O33   O     O_R   0.550765 0.741945 0.331096 -0.469513
O34   O     O_R   0.240232 0.745553 0.342980 -0.407103
N8    N     N_R   0.864688 0.218073 0.823403 0.194376
O35   O     O_R   0.705861 0.256900 0.829480 -0.420741
O36   O     O_R   0.017686 0.258593 0.833174 -0.474340

loop_
_geom_bond_atom_site_label_1
_geom_bond_atom_site_label_2
_geom_bond_distance
_ccdc_geom_bond_type
O17   V3    1.780579 S    
C47   C51   1.388185 A    
C22   C26   1.399328 A    
C19   C23   1.393868 A    
O19   V1    1.734903 S    
C9    H9    1.083610 S    
O3    C7    1.330401 A    
H6    C46   1.081933 S    
C44   C48   1.388524 A    
O15   V3    2.019543 S    
N6    O31   1.299274 A    
C36   C64   1.435508 A    
O1    C5    1.335588 A    
C8    C62   1.490531 S    
C28   C32   1.411022 A    
O9    V1    2.063253 S    
O10   V2    2.029133 S    
C18   C22   1.393715 A    
O4    C8    1.335341 A    
C29   C33   1.429831 A    
C30   C38   1.437743 A    
H7    C47   1.081829 S    
O1    V3    2.018779 S    
C29   C37   1.430826 A    
N2    O23   1.301814 A    
C18   H22   1.084293 S    
O2    V4    2.039337 S    
C51   N7    1.417098 S    
O3    V1    2.039388 S    
C12   C60   1.389079 A    
C3    C16   1.475500 S    
C15   C55   1.407528 A    
C49   N5    1.412934 S    
C56   H20   1.070700 S    
C26   H14   1.076807 S    
C2    O16   1.324550 A    
C14   C54   1.407557 A    
O2    C6    1.330407 A    
C12   H12   1.083599 S    
C10   H10   1.084150 S    
C39   C55   1.420658 A    
C19   H23   1.084248 S    
O11   C7    1.336257 A    
C11   H11   1.084049 S    
O12   C8    1.326410 A    
C22   N2    1.438546 S    
H4    C60   1.083782 S    
H1    C57   1.083788 S    
C36   C52   1.415384 A    
C1    O15   1.332113 A    
O5    V1    2.063096 S    
N3    O26   1.300839 A    
C27   C31   1.414929 A    
C6    C64   1.484924 S    
C26   C30   1.415099 A    
C50   N6    1.416870 S    
O8    V4    2.063304 S    
C40   C44   1.412565 A    
O7    V3    2.029191 S    
C54   H18   1.070136 S    
C27   H15   1.076742 S    
C12   C44   1.401254 A    
C17   C21   1.394195 A    
O18   V4    1.734903 S    
C14   C58   1.397696 A    
C21   N1    1.432842 S    
C17   C61   1.397384 A    
C46   C50   1.388192 A    
C35   C63   1.436558 A    
O11   V3    2.028725 S    
C25   H13   1.080265 S    
C20   C24   1.394214 A    
N6    O32   1.300950 A    
C32   C36   1.429875 A    
O7    C3    1.339883 A    
O5    C1    1.325719 A    
C55   H19   1.070173 S    
C42   C46   1.385356 A    
C41   C45   1.388504 A    
O8    C4    1.325600 A    
H5    C45   1.084751 S    
H2    C58   1.084012 S    
O9    C5    1.326298 A    
C24   N4    1.432860 S    
H3    C59   1.084001 S    
C40   C56   1.415272 A    
C35   C51   1.416425 A    
C7    C61   1.484847 S    
C10   C58   1.387243 A    
N5    O29   1.301063 A    
C16   C56   1.407743 A    
C32   C40   1.430871 A    
C20   C64   1.397388 A    
C4    O14   1.332354 A    
N7    O33   1.299310 A    
C34   C50   1.416504 A    
C4    C15   1.476545 S    
C33   C49   1.415401 A    
N1    O21   1.301510 A    
O16   V4    2.039877 S    
C17   H21   1.084480 S    
C28   H16   1.080263 S    
C3    O13   1.324563 A    
C23   N3    1.438838 S    
O6    V2    2.028783 S    
C1    C14   1.476324 S    
C48   C52   1.392046 A    
C13   C53   1.407694 A    
N7    O34   1.300971 A    
C9    C57   1.389076 A    
O6    C2    1.339844 A    
N8    O36   1.299230 A    
N3    O25   1.301729 A    
C21   C25   1.399254 A    
N8    O35   1.301062 A    
C11   C59   1.387129 A    
O12   V4    2.063046 S    
C23   C27   1.399307 A    
H8    C48   1.084745 S    
C24   C28   1.399253 A    
C53   H17   1.070721 S    
O10   C6    1.336299 A    
O20   V2    1.780579 S    
C37   C53   1.415212 A    
O13   V1    2.039826 S    
C10   C42   1.401349 A    
C43   C47   1.385445 A    
C9    C41   1.401252 A    
C30   C34   1.436508 A    
C39   C43   1.415725 A    
C5    C63   1.490831 S    
C38   C54   1.420480 A    
C11   C43   1.401221 A    
N2    O24   1.300793 A    
C16   C60   1.399173 A    
C31   C35   1.436534 A    
O4    V2    2.019056 S    
O14   V2    2.019265 S    
C52   N8    1.412948 S    
C25   C29   1.411032 A    
C31   C39   1.437631 A    
C38   C42   1.415793 A    
C19   C63   1.399677 A    
N5    O30   1.299232 A    
C37   C41   1.412577 A    
C18   C62   1.399528 A    
C13   C57   1.399179 A    
N4    O27   1.301513 A    
C2    C13   1.475408 S    
N4    O28   1.300068 A    
C20   H24   1.084476 S    
C45   C49   1.392043 A    
C34   C62   1.436629 A    
C15   C59   1.397776 A    
N1    O22   1.300070 A    
C33   C61   1.435481 A    
