data_mof_unit_31239.cif
_audit_creation_date              2012-12-11T17:10:14-0500
_audit_creation_method            fapswitch 2.2
_symmetry_space_group_name_H-M    P1
_symmetry_Int_Tables_number       1
_space_group_crystal_system       triclinic
_cell_length_a                    15.102633
_cell_length_b                    14.811297
_cell_length_c                    14.948217
_cell_angle_alpha                 109.436835
_cell_angle_beta                  110.414989
_cell_angle_gamma                 108.807997
_cell_volume                      2565.79384673

loop_
_atom_site_label
_atom_site_type_symbol
_atom_type_description
_atom_site_fract_x
_atom_site_fract_y
_atom_site_fract_z
_atom_type_partial_charge
C1    C     C_R   0.187408 0.277772 0.252369 -0.170028
C2    C     C_R   0.405808 0.495458 0.194572 -0.140322
C3    C     C_R   0.565355 0.815141 0.592083 -0.131515
C4    C     C_R   0.526643 0.432430 0.746367 -0.103637
C5    C     C_R   0.723025 0.459737 0.408639 -0.093466
C6    C     C_R   0.551331 0.825284 0.499476 0.068769
C7    C     C_R   0.825070 0.530058 0.503049 0.108052
C8    C     C_R   0.437881 0.434569 0.133509 0.080478
C9    C     C_R   0.799067 0.802099 0.869240 0.118437
C10   C     C_R   0.172303 0.735045 0.304836 -0.116429
C11   C     C_R   0.155307 0.711569 0.382498 -0.180180
C12   C     C_R   0.455968 0.451648 0.778171 0.043556
C13   C     C_R   0.060714 0.617429 0.348004 0.144155
C14   C     C_R   0.983821 0.546927 0.234695 -0.084072
C15   C     C_R   0.001412 0.570512 0.157344 -0.044118
C16   C     C_R   0.504986 0.200267 0.408587 -0.137770
C17   C     C_R   0.095682 0.664327 0.192338 -0.044756
C18   C     C_R   0.946409 0.582259 0.432793 0.546337
C19   C     C_R   0.927168 0.554969 0.508554 -0.129932
C20   C     C_R   0.006089 0.550464 0.589332 -0.035073
C21   C     C_R   0.101719 0.570943 0.591637 -0.243894
C22   C     C_R   0.117307 0.585771 0.509989 0.001400
C23   C     C_R   0.565783 0.196854 0.499772 0.086106
C24   C     C_R   0.041347 0.594188 0.430658 -0.149605
C25   C     C_R   0.052437 0.578255 0.777674 -0.214587
C26   C     C_R   0.048676 0.535623 0.847618 -0.185720
C27   C     C_R   0.982465 0.422185 0.803650 0.008066
C28   C     C_R   0.297328 0.601005 0.592587 -0.166122
C29   C     C_R   0.917543 0.353220 0.688427 -0.200095
C30   C     C_R   0.919949 0.396196 0.618502 -0.145893
C31   C     C_R   0.988520 0.508715 0.662675 0.178903
C32   C     C_R   0.476901 0.367773 0.895726 0.055773
C33   C     C_R   0.420187 0.408955 0.840856 0.066557
C34   C     C_R   0.204597 0.571710 0.502525 0.107630
C35   C     C_R   0.340237 0.423021 0.861750 -0.172401
C36   C     C_R   0.335194 0.418738 0.952113 -0.192912
C37   C     C_R   0.408738 0.398213 0.019389 0.064254
C38   C     C_R   0.468031 0.358276 0.980830 0.145002
C39   C     C_3   0.583675 0.383527 0.040776 -0.569013
C40   C     C_R   0.595116 0.290378 0.591390 -0.140264
C41   C     C_3   0.594916 0.397209 0.948812 -0.300803
C42   C     C_R   0.562895 0.930096 0.399277 0.174065
C43   C     C_R   0.599388 0.927412 0.498012 0.007346
C44   C     C_R   0.665832 0.028974 0.597649 -0.158321
C45   C     C_R   0.476541 0.721355 0.407836 -0.133025
C46   C     C_R   0.666426 0.123748 0.598413 -0.201353
C47   C     C_R   0.604197 0.117857 0.499150 0.001762
C48   C     C_R   0.565852 0.024632 0.400188 0.167452
C49   C     C_3   0.460198 0.960885 0.293702 -0.546662
C50   C     C_3   0.456807 0.857648 0.291785 -0.517118
C51   C     C_R   0.973090 0.075368 0.122219 -0.098486
C52   C     C_R   0.201440 0.506347 0.409579 -0.135527
C53   C     C_R   0.070046 0.071193 0.163161 -0.163551
C54   C     C_R   0.061430 0.965564 0.132609 0.669654
C55   C     C_R   0.960496 0.870890 0.047378 -0.379284
C56   C     C_R   0.813764 0.558307 0.594210 -0.141352
C57   C     C_R   0.875040 0.882513 0.986113 0.017411
C58   C     C_R   0.877527 0.982559 0.033397 0.078231
C59   C     C_3   0.840526 0.044528 0.982208 -0.626953
C60   C     C_3   0.944658 0.147153 0.078243 0.545910
C61   C     C_R   0.438443 0.528392 0.752154 -0.103951
C62   C     C_R   0.277436 0.184113 0.246618 -0.098683
C63   C     C_R   0.174794 0.172883 0.220316 0.105566
C64   C     C_3   0.890168 0.699689 0.403373 -0.221232
C65   C     C_2   0.983755 0.375144 0.877285 0.955223
C66   C     C_2   0.675329 0.514336 0.988829 1.088936
C67   C     C_R   0.497315 0.404372 0.197944 -0.135374
C68   C     C_3   0.170358 0.898007 0.098147 -0.354752
C69   C     C_3   0.904668 0.210774 0.220379 -0.224896
C70   C     C_R   0.706279 0.798920 0.804471 -0.155643
C71   C     C_R   0.799425 0.709675 0.805571 -0.137248
H1    H     H_    0.127541 0.302220 0.250235 0.146983
H2    H     H_    0.244480 0.808531 0.332038 0.128820
H3    H     H_    0.215083 0.767348 0.469467 0.124124
H4    H     H_    0.555017 0.375289 0.751588 0.098483
H5    H     H_    0.910664 0.473583 0.206340 0.146369
H6    H     H_    0.941889 0.516024 0.070247 0.162203
H7    H     H_    0.158954 0.561254 0.650661 0.142308
H8    H     H_    0.107050 0.665091 0.813003 0.119837
H9    H     H_    0.099699 0.590961 0.936001 0.140528
H10   H     H_    0.867906 0.265379 0.652076 0.167477
H11   H     H_    0.872066 0.341015 0.529974 0.113974
H12   H     H_    0.876498 0.611831 0.680130 0.112832
H13   H     H_    0.290643 0.449346 0.817071 0.124881
H14   H     H_    0.485740 0.152837 0.325211 0.093519
H15   H     H_    0.282689 0.442960 0.975352 0.140721
H16   H     H_    0.635192 0.460391 0.122829 0.234105
H17   H     H_    0.588310 0.310580 0.042254 0.184697
H18   H     H_    0.608937 0.333688 0.900218 0.134391
H19   H     H_    0.704130 0.033327 0.676192 0.146011
H20   H     H_    0.704511 0.196502 0.677461 0.162490
H21   H     H_    0.394757 0.972643 0.304381 0.218627
H22   H     H_    0.469520 0.970762 0.226430 0.188283
H23   H     H_    0.518145 0.341069 0.171075 0.096007
H24   H     H_    0.387381 0.811094 0.298175 0.196608
H25   H     H_    0.330750 0.660775 0.677707 0.096289
H26   H     H_    0.464920 0.807992 0.223802 0.199579
H27   H     H_    0.954286 0.790624 0.020269 0.163671
H28   H     H_    0.837930 0.024170 0.902363 0.168543
H29   H     H_    0.765813 0.042147 0.981110 0.208600
H30   H     H_    0.999892 0.182976 0.051022 0.044370
H31   H     H_    0.656598 0.323696 0.675660 0.104803
H32   H     H_    0.143807 0.476199 0.324722 0.132540
H33   H     H_    0.387675 0.562183 0.765574 0.092501
H34   H     H_    0.670428 0.846233 0.832465 0.109948
H35   H     H_    0.300608 0.121580 0.234559 0.152951
H36   H     H_    0.450816 0.696680 0.322847 0.113168
H37   H     H_    0.971900 0.758142 0.423743 0.139290
H38   H     H_    0.882428 0.723871 0.478018 0.133673
H39   H     H_    0.828756 0.706043 0.342010 0.184523
H40   H     H_    0.921572 0.241293 0.891516 0.324819
H41   H     H_    0.722393 0.676070 0.067172 0.317155
H42   H     H_    0.155413 0.921469 0.032946 0.135936
H43   H     H_    0.120438 0.807576 0.060570 0.159259
H44   H     H_    0.256557 0.919000 0.136744 0.175612
H45   H     H_    0.851718 0.677916 0.834428 0.107556
H46   H     H_    0.978426 0.223891 0.287435 0.142845
H47   H     H_    0.834479 0.127716 0.182641 0.143659
H48   H     H_    0.883688 0.272668 0.258507 0.157556
H49   H     H_    0.345646 0.518617 0.163832 0.109657
H50   H     H_    0.618535 0.878937 0.677671 0.095860
H51   H     H_    0.703029 0.419498 0.323788 0.125926
H52   H     H_    0.109257 0.682177 0.132295 0.111101
N1    N     N_R   0.291070 0.347930 0.293870 -0.040953
N2    N     N_R   0.497240 0.291100 0.443210 -0.042291
N3    N     N_R   0.347890 0.554050 0.556810 -0.040367
N4    N     N_R   0.554050 0.347900 0.556830 -0.039786
N5    N     N_R   0.291070 0.497250 0.443190 -0.043418
N6    N     N_R   0.497240 0.554030 0.706140 -0.044133
N7    N     N_R   0.347890 0.291110 0.293870 -0.055177
N8    N     N_R   0.445950 0.652100 0.443170 -0.039676
N9    N     N_R   0.708930 0.502750 0.556810 -0.043223
N10   N     N_R   0.502760 0.445970 0.293860 -0.040201
N11   N     N_R   0.652110 0.708890 0.706130 -0.043526
N12   N     N_R   0.708930 0.652070 0.706130 -0.041651
N13   N     N_R   0.445950 0.502780 0.293850 -0.040492
N14   N     N_R   0.502760 0.708900 0.556790 -0.041053
N15   N     N_R   0.652110 0.445950 0.443190 -0.055013
N16   N     N_R   0.554050 0.497220 0.706150 -0.036664
Ni1   Ni    Ni4+2 0.369690 0.500010 0.369700 0.227934
Ni2   Ni    Ni4+2 0.630310 0.499990 0.630300 0.234785
Ni3   Ni    Ni4+2 0.500000 0.369720 0.369720 0.199163
Ni4   Ni    Ni4+2 0.500000 0.630280 0.630280 0.209894
O1    O     O_3   0.869374 0.590074 0.356471 -0.637286
O2    O     O_2   0.047692 0.433445 0.976783 -0.679633
O3    O     O_R   0.912871 0.263453 0.833018 -0.830349
O4    O     O_2   0.750623 0.531878 0.971199 -0.691481
O5    O     O_R   0.663727 0.602130 0.045558 -0.796539
O6    O     O_3   0.152044 0.955587 0.180446 -0.620247
O7    O     O_3   0.925416 0.227590 0.140431 -0.613304

loop_
_geom_bond_atom_site_label_1
_geom_bond_atom_site_label_2
_ccdc_geom_bond_type
C25   C31   A    
C41   H18   S    
C52   H32   S    
C6    C45   A    
C27   C29   A    
N16   Ni2   S    
N3    Ni4   S    
C35   C36   A    
C39   H16   S    
N13   Ni1   S    
C3    C6    A    
C52   N5    A    
C5    N15   A    
C39   C41   S    
C15   H6    S    
C53   C54   A    
C26   C27   A    
C37   C38   A    
C18   C24   A    
C69   O7    S    
C7    C56   A    
C36   C37   A    
C67   N10   A    
C71   N12   A    
C30   C31   A    
C10   H2    S    
C50   H24   S    
C10   C17   A    
N9    N15   A    
C23   C40   A    
C69   H47   S    
C59   H28   S    
C18   C19   A    
N4    Ni2   S    
C62   N7    A    
C53   C63   S    
C4    H4    S    
C68   O6    S    
N11   Ni4   S    
C46   C47   A    
C17   H52   S    
C19   C20   A    
C28   N3    A    
C21   H7    S    
C67   H23   S    
C32   C41   S    
C3    N14   A    
C32   C38   A    
C4    C12   A    
C16   N2    A    
C66   O5    S    
C61   N6    A    
C68   H42   S    
N14   Ni4   S    
C28   C34   A    
C59   C60   S    
C25   H8    S    
C13   C14   A    
C59   H29   S    
C39   H17   S    
C1    C63   A    
C44   C46   A    
C64   H37   S    
C54   O6    S    
C22   C34   S    
C1    H1    S    
C23   C47   S    
C64   H38   S    
C61   H33   S    
C9    C70   A    
N15   Ni3   S    
H40   O3    S    
C5    C7    A    
C2    H49   S    
C60   O7    S    
C46   H20   S    
C64   O1    S    
C36   H15   S    
C58   C59   S    
C40   N4    A    
C5    H51   S    
C69   H48   S    
C26   H9    S    
H41   O5    S    
C13   C24   S    
C51   C53   A    
C14   H5    S    
C30   H11   S    
C43   C44   A    
C29   H10   S    
C29   C30   A    
C27   C65   S    
N10   N13   A    
C64   H39   S    
C47   C48   A    
N6    N16   A    
N2    Ni3   S    
C62   C63   A    
N10   Ni3   S    
N1    N7    A    
C51   C58   A    
C42   C48   A    
C66   O4    D    
C56   N9    A    
C42   C50   S    
C62   H35   S    
C48   C49   S    
C45   N8    A    
C16   C23   A    
C7    C19   S    
C6    C43   S    
C55   C57   A    
C16   H14   S    
C22   C24   A    
C42   C43   A    
C49   H21   S    
C65   O2    D    
C60   H30   S    
C44   H19   S    
C56   H12   S    
C70   N11   A    
N9    Ni2   S    
C15   C17   A    
C54   C55   A    
C50   H26   S    
N3    N5    A    
N8    Ni1   S    
N1    Ni1   S    
C2    C8    A    
C9    C71   A    
C11   H3    S    
C35   H13   S    
C41   C66   S    
N6    Ni4   S    
N11   N12   A    
C34   C52   A    
C70   H34   S    
C28   H25   S    
C32   C33   A    
C18   O1    S    
C25   C26   A    
C1    N1    A    
C4    N16   A    
C12   C61   A    
C11   C13   A    
C57   C58   A    
C38   C39   S    
C12   C33   S    
C55   H27   S    
C69   H46   S    
C33   C35   A    
C71   H45   S    
C9    C57   S    
N5    Ni1   S    
N7    Ni3   S    
C2    N13   A    
C10   C11   A    
C68   H44   S    
C40   H31   S    
C45   H36   S    
N12   Ni2   S    
C20   C21   A    
C8    C67   A    
C49   C50   S    
C8    C37   S    
N2    N4    A    
C14   C15   A    
C51   C60   S    
C49   H22   S    
C65   O3    S    
C21   C22   A    
C3    H50   S    
C68   H43   S    
N8    N14   A    
C20   C31   S    
