data_mof_unit_61457.cif
_audit_creation_date              2012-12-10T20:24:45-0500
_audit_creation_method            fapswitch 2.2
_symmetry_space_group_name_H-M    P1
_symmetry_Int_Tables_number       1
_space_group_crystal_system       triclinic
_cell_length_a                    10.752307
_cell_length_b                    19.156309
_cell_length_c                    18.429529
_cell_angle_alpha                 88.768159
_cell_angle_beta                  90.162928
_cell_angle_gamma                 92.560774
_cell_volume                      3791.339419

loop_
_atom_site_label
_atom_site_type_symbol
_atom_type_description
_atom_site_fract_x
_atom_site_fract_y
_atom_site_fract_z
_atom_type_partial_charge
C1    C     C_R   0.504653 0.364641 0.500973 0.977876
C2    C     C_R   0.487752 0.634557 0.499299 0.977359
C3    C     C_R   0.873700 0.486114 0.500238 -0.198390
C4    C     C_R   0.127254 0.515612 0.500730 -0.193047
C5    C     C_R   0.938501 0.486895 0.566794 -0.077473
C6    C     C_R   0.062332 0.516766 0.434452 -0.070488
C7    C     C_R   0.450278 0.751196 0.434797 0.118738
C8    C     C_R   0.488971 0.250176 0.571407 0.152835
C9    C     C_R   0.421262 0.821816 0.438831 0.122272
C10   C     C_R   0.447507 0.179834 0.573039 0.125140
C11   C     C_R   0.388015 0.848928 0.505581 -0.190722
C12   C     C_R   0.433928 0.144053 0.507907 -0.202247
C13   C     C_R   0.371426 0.805893 0.567005 0.363109
C14   C     C_R   0.461457 0.177432 0.441139 0.346774
C15   C     C_R   0.397817 0.735341 0.563888 0.362932
C16   C     C_R   0.495920 0.248673 0.438701 0.355129
C17   C     C_R   0.447680 0.708082 0.499079 -0.311509
C18   C     C_R   0.500076 0.287105 0.503703 -0.312021
C19   C     C_R   0.507527 0.957155 0.528793 -0.102380
C20   C     C_R   0.299722 0.035826 0.497752 -0.083496
C21   C     C_R   0.519771 0.029256 0.527184 -0.102021
C22   C     C_R   0.287489 0.963121 0.499056 -0.081831
C23   C     C_R   0.260585 0.507839 0.499990 0.948210
C24   C     C_R   0.739744 0.492449 0.500194 0.953878
C25   C     C_R   0.416398 0.068502 0.511022 0.175808
C26   C     C_R   0.392205 0.924170 0.513536 0.173154
C27   C     C_R   0.576573 0.546673 0.725841 0.378500
C28   C     C_R   0.416715 0.456302 0.274969 0.379319
C29   C     C_R   0.579333 0.546570 0.802422 0.303999
C30   C     C_R   0.412514 0.455725 0.198390 0.306876
C31   C     C_R   0.499835 0.499648 0.841885 0.016661
C32   C     C_R   0.496696 0.499079 0.158045 0.015246
C33   C     C_R   0.419512 0.454280 0.803690 -0.242288
C34   C     C_R   0.583399 0.541377 0.195299 -0.246560
C35   C     C_R   0.419968 0.455344 0.727643 0.504027
C36   C     C_R   0.584766 0.540878 0.271340 0.498544
C37   C     C_R   0.439251 0.552037 0.960325 0.370125
C38   C     C_R   0.554936 0.445793 0.039666 0.366979
C39   C     C_R   0.440226 0.552505 0.036847 0.310743
C40   C     C_R   0.554520 0.445503 0.963114 0.306936
C41   C     C_R   0.497590 0.499252 0.076986 -0.145539
C42   C     C_R   0.497303 0.498826 0.922963 -0.148348
C43   C     C_R   0.169224 0.672372 0.315332 -0.136118
C44   C     C_R   0.867713 0.336167 0.698557 -0.119332
C45   C     C_R   0.132759 0.632181 0.376517 0.377661
C46   C     C_R   0.889621 0.373317 0.633302 0.395619
C47   C     C_R   0.111812 0.558983 0.371074 0.070037
C48   C     C_R   0.890653 0.447112 0.631904 0.058433
C49   C     C_R   0.129034 0.528044 0.303564 -0.069336
C50   C     C_R   0.867438 0.481891 0.696495 -0.075401
C51   C     C_R   0.166848 0.568627 0.243052 -0.134842
C52   C     C_R   0.842177 0.444241 0.760914 -0.128969
C53   C     C_R   0.186699 0.640709 0.248922 -0.096489
C54   C     C_R   0.843079 0.371460 0.762017 -0.094267
C55   C     C_R   0.938560 0.493077 0.434039 0.420873
C56   C     C_R   0.062862 0.509050 0.567042 0.427288
H1    H     H_    0.214744 0.672283 0.201920 0.231049
H2    H     H_    0.826040 0.342301 0.812185 0.228673
H3    H     H_    0.588611 0.926872 0.539429 0.169930
H4    H     H_    0.219827 0.066475 0.485393 0.178014
H5    H     H_    0.609923 0.054683 0.537558 0.169150
H6    H     H_    0.198547 0.937297 0.486641 0.177484
H7    H     H_    0.355610 0.418629 0.832970 0.228709
H8    H     H_    0.650986 0.574102 0.165265 0.229163
H9    H     H_    0.183737 0.728476 0.319176 0.198103
H10   H     H_    0.869403 0.279683 0.700101 0.201192
H11   H     H_    0.111185 0.472567 0.297264 0.242768
H12   H     H_    0.875580 0.538238 0.697748 0.239717
H13   H     H_    0.179275 0.544220 0.191329 0.218730
H14   H     H_    0.825573 0.471575 0.810484 0.215171
N1    N     N_R   0.500020 0.499980 0.689440 -0.182904
N2    N     N_R   0.499980 0.500020 0.310560 -0.188034
O1    O     O_R   0.500010 0.398180 0.560840 -0.592030
O2    O     O_R   0.499990 0.601820 0.439160 -0.594178
O3    O     O_R   0.499950 0.398180 0.439210 -0.534836
O4    O     O_R   0.500050 0.601820 0.560790 -0.533113
O5    O     O_R   0.316790 0.500010 0.560810 -0.532731
O6    O     O_R   0.683210 0.499990 0.439190 -0.533505
O7    O     O_R   0.316730 0.500000 0.439190 -0.616348
O8    O     O_R   0.683270 0.500000 0.560810 -0.616430
Zn1   Zn    Zn3+2 0.500040 0.500000 0.581210 1.112321
Zn2   Zn    Zn3+2 0.499960 0.500000 0.418790 1.109978
Cl1   Cl    Cl    0.359445 0.683012 0.642017 -0.341312
Cl2   Cl    Cl    0.547332 0.285606 0.354445 -0.336130
Cl3   Cl    Cl    0.668564 0.610123 0.677668 -0.445283
Cl4   Cl    Cl    0.317095 0.397478 0.324246 -0.438114
Cl5   Cl    Cl    0.682637 0.604704 0.848604 -0.418268
Cl6   Cl    Cl    0.302053 0.401017 0.153254 -0.413072
Cl7   Cl    Cl    0.311145 0.399856 0.683467 -0.468652
Cl8   Cl    Cl    0.702274 0.591799 0.313767 -0.458222
Cl9   Cl    Cl    0.362980 0.617890 0.911092 -0.334010
Cl10  Cl    Cl    0.629485 0.379384 0.089045 -0.339538
Cl11  Cl    Cl    0.368583 0.620057 0.082541 -0.498923
Cl12  Cl    Cl    0.627552 0.378418 0.917400 -0.494164
Cl13  Cl    Cl    0.107884 0.676249 0.457806 -0.575224
Cl14  Cl    Cl    0.923296 0.325836 0.555502 -0.545473
Cl15  Cl    Cl    0.872924 0.461424 0.352047 -0.456348
Cl16  Cl    Cl    0.131947 0.534777 0.650596 -0.441869
I1    I     I_    0.492823 0.715352 0.329100 -0.154498
I2    I     I_    0.559512 0.291673 0.671198 -0.186366
I3    I     I_    0.432085 0.891604 0.345458 -0.101615
I4    I     I_    0.403827 0.125493 0.673753 -0.090992
Cl17  Cl    Cl    0.321009 0.841801 0.649167 -0.389686
Cl18  Cl    Cl    0.455766 0.128986 0.360281 -0.396247

loop_
_geom_bond_atom_site_label_1
_geom_bond_atom_site_label_2
_ccdc_geom_bond_type
C38   C40   A    
C31   C42   S    
C27   C29   A    
C5    C56   A    
C44   H10   S    
C56   Cl16  S    
C6    C55   A    
C27   N1    A    
C39   C41   A    
C1    C18   S    
C7    I1    S    
C19   C21   A    
C20   C25   A    
C38   Cl10  S    
C16   Cl2   S    
C15   C17   A    
C37   C42   A    
C27   Cl3   S    
C19   C26   A    
C39   Cl11  S    
C24   O8    A    
C3    C55   A    
C43   C53   A    
C52   C54   A    
C49   C51   A    
C50   C52   A    
C32   C41   S    
C31   C33   A    
C13   Cl17  S    
C21   H5    S    
C2    O2    A    
C43   H9    S    
C40   C42   A    
C35   N1    A    
C4    C56   A    
C2    C17   S    
C29   C31   A    
C3    C24   S    
C28   N2    A    
O2    Zn2   S    
O1    Zn1   S    
C44   C46   A    
C45   C47   A    
C5    C48   S    
C46   C48   A    
C6    C47   S    
C37   Cl9   S    
C1    O3    A    
C10   I4    S    
C38   C41   A    
C47   C49   A    
C40   Cl12  S    
C4    C23   S    
C53   H1    S    
C15   Cl1   S    
C11   C26   S    
C19   H3    S    
C8    C18   A    
C51   C53   A    
C32   C34   A    
C22   H6    S    
C9    C11   A    
O6    Zn2   S    
C14   Cl18  S    
O5    Zn1   S    
C33   H7    S    
C55   Cl15  S    
C34   H8    S    
C23   O5    A    
C43   C45   A    
C10   C12   A    
C35   Cl7   S    
C9    I3    S    
C20   C22   A    
C13   C15   A    
C28   Cl4   S    
C14   C16   A    
C4    C6    A    
C20   H4    S    
C30   Cl6   S    
C45   Cl13  S    
C24   O6    A    
C2    O4    A    
C54   H2    S    
C36   Cl8   S    
C7    C9    A    
C21   C25   A    
C49   H11   S    
C8    C10   A    
C12   C14   A    
O8    Zn1   S    
C3    C5    A    
C7    C17   A    
O4    Zn1   S    
O7    Zn2   S    
O3    Zn2   S    
C12   C25   S    
C1    O1    A    
C28   C30   A    
C8    I2    S    
C37   C39   A    
C30   C32   A    
C11   C13   A    
C48   C50   A    
C33   C35   A    
C34   C36   A    
C29   Cl5   S    
C52   H14   S    
C44   C54   A    
C46   Cl14  S    
C16   C18   A    
C22   C26   A    
C51   H13   S    
C23   O7    A    
C50   H12   S    
N2    Zn2   S    
C36   N2    A    
N1    Zn1   S    
