data_mof_unit_25131.cif
_audit_creation_date              2012-12-10T16:51:16-0500
_audit_creation_method            fapswitch 2.2
_symmetry_space_group_name_H-M    P1
_symmetry_Int_Tables_number       1
_space_group_crystal_system       triclinic
_cell_length_a                    27.641586
_cell_length_b                    8.793225
_cell_length_c                    7.56373
_cell_angle_alpha                 101.830195
_cell_angle_beta                  94.929575
_cell_angle_gamma                 95.019774
_cell_volume                      1782.27905729

loop_
_atom_site_label
_atom_site_type_symbol
_atom_type_description
_atom_site_fract_x
_atom_site_fract_y
_atom_site_fract_z
_atom_type_partial_charge
C1    C     C_R   0.496403 0.200234 0.455029 0.825268
C2    C     C_R   0.503694 0.799797 0.544797 0.815261
C3    C     C_R   0.102493 0.473599 0.548726 -0.144086
C4    C     C_R   0.900783 0.530126 0.556343 -0.172491
C5    C     C_R   0.118133 0.323023 0.487327 -0.178087
C6    C     C_R   0.883517 0.674961 0.614571 -0.104057
C7    C     C_R   0.083076 0.189763 0.441265 0.250473
C8    C     C_R   0.917106 0.799181 0.714066 0.336773
C9    C     C_R   0.136833 0.607515 0.588301 -0.105692
C10   C     C_R   0.867444 0.396692 0.485101 -0.180715
C11   C     C_R   0.353916 0.474110 0.501067 -0.122675
C12   C     C_R   0.645823 0.528242 0.503425 -0.128311
C13   C     C_R   0.967873 0.379464 0.477922 -0.061219
C14   C     C_R   0.036970 0.638565 0.641681 -0.002492
C15   C     C_R   0.985461 0.646628 0.652782 0.029570
C16   C     C_R   0.017788 0.358329 0.496638 -0.044707
C17   C     C_R   0.951667 0.518808 0.563526 -0.042699
C18   C     C_R   0.052496 0.490417 0.564232 -0.031014
C19   C     C_R   0.933834 0.273948 0.352684 0.457790
C20   C     C_R   0.072856 0.772457 0.697541 0.425052
C21   C     C_R   0.884433 0.265152 0.379655 0.248948
C22   C     C_R   0.122680 0.754730 0.669876 0.233168
C23   C     C_R   0.407447 0.493626 0.500155 0.853348
C24   C     C_R   0.592438 0.506874 0.500279 0.850267
C25   C     C_R   0.033562 0.207462 0.453717 0.271713
C26   C     C_R   0.965624 0.771422 0.759653 0.253474
C27   C     C_2   0.488049 0.031910 0.437621 0.181558
C28   C     C_2   0.512284 0.968134 0.561242 0.186913
C29   C     C_R   0.168842 0.312280 0.482293 0.691543
C30   C     C_R   0.832960 0.684716 0.576981 0.652471
C31   C     C_R   0.184656 0.588562 0.540875 0.643291
C32   C     C_R   0.818034 0.407592 0.506711 0.648008
C33   C     C_R   0.282229 0.492176 0.668712 0.496378
C34   C     C_R   0.719556 0.471408 0.362370 0.468375
C35   C     C_R   0.333234 0.506736 0.665977 -0.302938
C36   C     C_R   0.668734 0.457714 0.355224 -0.234696
C37   C     C_R   0.323326 0.414693 0.338980 -0.240659
C38   C     C_R   0.674151 0.621361 0.656172 -0.233275
C39   C     C_R   0.272720 0.392598 0.340601 0.243297
C40   C     C_R   0.725026 0.639295 0.665139 0.248654
C41   C     C_R   0.252044 0.435567 0.504709 0.202922
C42   C     C_R   0.748560 0.558376 0.520860 0.137370
Cu1   Cu    Cu3+1 0.505380 0.517380 0.684380 1.043089
Cu2   Cu    Cu3+1 0.494620 0.482620 0.315620 1.043681
H1    H     H_    0.338665 0.383738 0.211016 0.212040
H2    H     H_    0.656636 0.680654 0.769598 0.207535
H3    H     H_    0.647395 0.386891 0.235908 0.175441
H4    H     H_    0.356724 0.544346 0.792047 0.178641
N1    N     N_R   0.200332 0.444172 0.505059 -0.451216
N2    N     N_R   0.800838 0.551182 0.538447 -0.479139
N3    N     N_2   0.486510 0.456430 0.038510 0.038892
N4    N     N_2   0.513490 0.543570 0.961490 0.038755
O1    O     O_R   0.503500 0.286120 0.619780 -0.531396
O2    O     O_R   0.496500 0.713880 0.380220 -0.533095
O3    O     O_R   0.494410 0.256780 0.308360 -0.614531
O4    O     O_R   0.505590 0.743220 0.691640 -0.617257
O5    O     O_R   0.434810 0.514700 0.655690 -0.564728
O6    O     O_R   0.565190 0.485300 0.344310 -0.562054
O7    O     O_R   0.425720 0.485350 0.344280 -0.570518
O8    O     O_R   0.574280 0.514650 0.655720 -0.566179
O9    O     O_2   0.187162 0.173518 0.456984 -0.412703
O10   O     O_2   0.816214 0.823523 0.573630 -0.406995
O11   O     O_2   0.787439 0.277216 0.496517 -0.426999
O12   O     O_2   0.215570 0.711302 0.525605 -0.486461
Br1   Br    Br    0.436639 0.308222 0.904220 -0.449822
Br2   Br    Br    0.564060 0.689436 0.095256 -0.449249
Br3   Br    Br    0.232815 0.305362 0.116390 -0.417786
Br4   Br    Br    0.759359 0.771716 0.881414 -0.413747
Br5   Br    Br    0.099685 0.980341 0.351749 -0.371955
Br6   Br    Br    0.896096 0.993766 0.824023 -0.315808
O13   O     O_3   0.740562 0.381932 0.223193 -0.541885
C43   C     C_3   0.756244 0.476902 0.105896 0.047729
H5    H     H_    0.776797 0.589655 0.181298 0.187539
H6    H     H_    0.724012 0.500346 0.020935 0.179946
C44   C     C_3   0.790248 0.391084 0.982169 -0.608261
H7    H     H_    0.770978 0.279087 0.901218 0.291468
H8    H     H_    0.802881 0.464309 0.888496 0.205137
H9    H     H_    0.822697 0.366959 0.064728 0.232536
O14   O     O_3   0.259972 0.523967 0.828642 -0.546030
C45   C     C_3   0.281536 0.663943 0.946756 0.022658
H10   H     H_    0.292299 0.756011 0.871372 0.174382
H11   H     H_    0.313799 0.639424 0.030319 0.153560
C46   C     C_3   0.245063 0.727343 0.075279 -0.552242
H12   H     H_    0.237589 0.647622 0.168009 0.261011
H13   H     H_    0.260122 0.843920 0.158062 0.232032
H14   H     H_    0.210214 0.738450 0.997119 0.260412
Br7   Br    Br    0.842000 0.089043 0.238781 -0.217975
Br8   Br    Br    0.172633 0.930923 0.751526 -0.359605
O15   O     O_3   0.947082 0.215254 0.182340 -0.510812
C47   C     C_3   0.944984 0.334568 0.080469 0.107977
H15   H     H_    0.947129 0.456314 0.163476 0.145914
H16   H     H_    0.910081 0.314729 0.990753 0.191125
C48   C     C_3   0.987235 0.331199 0.966043 -0.726262
H17   H     H_    0.985247 0.215894 0.871457 0.285378
H18   H     H_    0.985884 0.423539 0.886376 0.222185
H19   H     H_    0.022000 0.353750 0.056814 0.238887
O16   O     O_3   0.057367 0.922036 0.730922 -0.542158
C49   C     C_3   0.075663 0.015597 0.904080 0.162385
H20   H     H_    0.045216 0.033461 0.988405 0.219209
H21   H     H_    0.103474 0.963344 0.980398 0.191814
C50   C     C_3   0.094816 0.180846 0.889410 -0.693141
H22   H     H_    0.066550 0.233334 0.816939 0.222722
H23   H     H_    0.104834 0.254941 0.027662 0.213613
H24   H     H_    0.127131 0.184231 0.814026 0.300807
Br9   Br    Br    0.989390 0.022837 0.452362 -0.354936
Br10  Br    Br    0.983650 0.797736 0.014797 -0.450044
O17   O     O_3   0.447148 0.947852 0.329635 -0.599954
C51   C     C_3   0.452543 0.939185 0.144084 0.103959
H25   H     H_    0.489967 0.914470 0.111585 0.158505
H26   H     H_    0.443682 0.048799 0.104302 0.196122
C52   C     C_3   0.416391 0.808850 0.030278 -0.723125
H27   H     H_    0.422164 0.696095 0.068834 0.273445
H28   H     H_    0.378732 0.836529 0.052484 0.222451
H29   H     H_    0.421076 0.798581 0.884138 0.211062
O18   O     O_3   0.553285 0.052760 0.668222 -0.598097
C53   C     C_3   0.549813 0.053960 0.853430 0.090135
H30   H     H_    0.562419 0.945965 0.887026 0.197913
H31   H     H_    0.512005 0.066924 0.890363 0.149587
C54   C     C_3   0.583331 0.190671 0.968683 -0.670722
H32   H     H_    0.621798 0.178125 0.941444 0.251068
H33   H     H_    0.580085 0.192986 0.114485 0.198638
H34   H     H_    0.573078 0.302128 0.937238 0.273429

loop_
_geom_bond_atom_site_label_1
_geom_bond_atom_site_label_2
_ccdc_geom_bond_type
C21   Br7   S    
C48   H17   S    
C8    C26   A    
C14   C18   A    
C52   H27   S    
C34   C42   A    
Cu1   Cu2   S    
C26   Br10  S    
O16   C49   S    
C25   Br9   S    
C39   C41   A    
C29   N1    A    
C53   H30   S    
C23   O7    A    
C50   H22   S    
C36   H3    S    
C19   O15   S    
C19   C21   A    
C43   C44   S    
C9    C22   A    
Cu2   O7    S    
O18   C53   S    
C51   H25   S    
C3    C18   A    
C15   C17   A    
N3    Br1   S    
C11   C37   A    
C1    O1    A    
Cu1   O1    S    
C20   O16   S    
Cu2   O6    S    
O17   C51   S    
C22   Br8   S    
C12   C36   A    
C43   H5    S    
C40   C42   A    
C30   N2    A    
C50   H23   S    
C31   N1    A    
C45   C46   S    
C35   H4    S    
C41   N1    S    
C5    C29   A    
C54   H33   S    
C10   C21   A    
C29   O9    S    
C13   C19   A    
N3    N4    D    
C14   C20   A    
C43   H6    S    
C53   H31   S    
C2    O2    A    
C5    C7    A    
C9    C31   A    
C33   O14   S    
C15   C26   A    
C6    C8    A    
C44   H7    S    
C3    C9    A    
C28   O18   S    
Cu2   O2    S    
C47   H16   S    
C46   H12   S    
C27   O17   S    
C24   O8    A    
C52   H28   S    
C16   C18   A    
C44   H8    S    
C32   N2    A    
Cu1   O8    S    
C42   N2    S    
C4    C17   A    
Cu2   N3    S    
C4    C6    A    
C6    C30   A    
C20   C22   A    
C50   H24   S    
C49   H21   S    
C30   O10   S    
C37   H1    S    
N4    Br2   S    
C47   C48   S    
C54   H34   S    
C16   C25   A    
C23   O5    A    
C46   H13   S    
C39   Br3   S    
C31   O12   S    
C32   O11   S    
C45   H10   S    
C3    C5    A    
C7    Br5   S    
C54   H32   S    
C53   C54   S    
C48   H19   S    
C49   C50   S    
C12   C24   S    
C8    Br6   S    
C7    C25   A    
C51   C52   S    
C13   C17   A    
C33   C41   A    
C11   C35   A    
C1    O3    A    
O13   C43   S    
C37   C39   A    
C2    O4    A    
C38   C40   A    
Cu2   O3    S    
C47   H15   S    
C48   H18   S    
C11   C23   S    
C33   C35   A    
C45   H11   S    
C51   H26   S    
C52   H29   S    
C34   C36   A    
C12   C38   A    
Cu1   N4    S    
C44   H9    S    
C38   H2    S    
Cu1   O5    S    
O14   C45   S    
C10   C32   A    
Cu1   O4    S    
C46   H14   S    
C24   O6    A    
C49   H20   S    
C40   Br4   S    
C13   C16   A    
C27   C28   D    
C1    C27   S    
C14   C15   A    
C2    C28   S    
O15   C47   S    
C4    C10   A    
C34   O13   S    
