data_mof_unit_54861.cif
_audit_creation_date              2012-12-11T14:17:29-0500
_audit_creation_method            fapswitch 2.2
_symmetry_space_group_name_H-M    P1
_symmetry_Int_Tables_number       1
_space_group_crystal_system       triclinic
_cell_length_a                    6.956332
_cell_length_b                    13.959385
_cell_length_c                    20.407974
_cell_angle_alpha                 102.62679
_cell_angle_beta                  89.608008
_cell_angle_gamma                 90.870843
_cell_volume                      1933.57412378

loop_
_atom_site_label
_atom_site_type_symbol
_atom_type_description
_atom_site_fract_x
_atom_site_fract_y
_atom_site_fract_z
_atom_type_partial_charge
O1    O     O_R   0.506860 0.599390 0.449240 -0.547037
O2    O     O_R   0.180220 0.594600 0.586780 -0.537945
O3    O     O_R   0.004500 0.400610 0.550760 -0.545216
C1    C     C_R   0.346963 0.603686 0.616387 0.748635
O4    O     O_R   0.177490 0.611290 0.451970 -0.537411
O5    O     O_R   0.001750 0.417420 0.414990 -0.532358
C2    C     C_R   0.347051 0.636115 0.434922 0.700019
O6    O     O_R   0.509610 0.582580 0.585010 -0.548497
O7    O     O_3   0.337420 0.436370 0.488020 -0.374175
V1    V     V_3+5 0.064680 0.511800 0.502220 1.428939
O8    O     O_R   0.671710 0.405400 0.413220 -0.547991
C3    C     C_R   0.841010 0.384304 0.386912 0.645753
O9    O     O_R   0.674440 0.388710 0.548030 -0.545939
C4    C     C_R   0.841791 0.363620 0.564740 0.701959
V2    V     V_3+5 0.564010 0.488200 0.497780 1.411639
O10   O     O_3   0.841140 0.563630 0.511980 -0.372052
C5    C     C_R   0.898306 0.115152 0.600804 0.163812
H1    H     H_    0.890863 0.175051 0.512036 0.096757
H2    H     H_    0.986263 0.997863 0.682095 0.142596
C6    C     C_R   0.847253 0.285711 0.601193 -0.052235
C7    C     C_R   0.809207 0.299067 0.922300 -0.162139
C8    C     C_R   0.769210 0.370848 0.887362 -0.123688
C9    C     C_R   0.779238 0.350294 0.817736 -0.147603
C10   C     C_R   0.837905 0.257274 0.780472 0.066665
C11   C     C_R   0.887341 0.183734 0.816512 0.028161
C12   C     C_R   0.848740 0.235615 0.708380 0.043954
C13   C     C_R   0.892344 0.139089 0.672434 0.084006
C14   C     C_R   0.942104 0.069994 0.708406 -0.223157
C15   C     C_R   0.954292 0.092424 0.778223 0.077330
C16   C     C_R   0.823558 0.307701 0.670635 -0.231503
C17   C     C_R   0.879270 0.190316 0.566353 -0.201437
C18   C     C_R   0.864414 0.205290 0.888498 -0.082301
H3    H     H_    0.793104 0.382579 0.693604 0.106815
H4    H     H_    0.791915 0.316138 0.976444 0.108636
H5    H     H_    0.736002 0.408921 0.794789 0.106256
H6    H     H_    0.724135 0.442607 0.914474 0.121459
C19   C     C_2   0.898987 0.341544 0.264074 0.327310
C20   C     C_2   0.857006 0.311860 0.322093 0.076836
C21   C     C_2   0.966070 0.270100 0.202300 0.188927
C22   C     C_2   0.853362 0.190262 0.177487 -0.356444
H7    H     H_    0.723445 0.181245 0.204956 0.156667
C23   C     C_2   0.253877 0.739560 0.802112 0.286018
C24   C     C_2   0.356064 0.825641 0.815154 -0.059413
C25   C     C_2   0.212586 0.683478 0.731863 0.105426
C26   C     C_2   0.359959 0.649980 0.689230 -0.337824
H8    H     H_    0.504246 0.657423 0.709712 0.117026
C27   C     C_R   0.306473 0.882328 0.395821 -0.161284
H9    H     H_    0.295368 0.825396 0.484699 0.119857
H10   H     H_    0.302992 0.010214 0.323253 0.142215
H11   H     H_    0.283876 0.956808 0.423792 0.116535
C28   C     C_R   0.355571 0.712482 0.396641 -0.108812
C29   C     C_R   0.331875 0.698832 0.076349 -0.137919
C30   C     C_R   0.294412 0.624148 0.110376 0.159541
C31   C     C_R   0.291937 0.647795 0.180344 -0.129007
C32   C     C_R   0.332359 0.743664 0.217761 0.057738
C33   C     C_R   0.345112 0.822487 0.183266 -0.017674
C34   C     C_R   0.344727 0.763264 0.289258 0.059130
C35   C     C_R   0.322480 0.860763 0.325676 0.034325
C36   C     C_R   0.319229 0.937243 0.292548 -0.144792
C37   C     C_R   0.343991 0.921842 0.222694 0.088524
C38   C     C_R   0.380939 0.689682 0.325963 0.286172
C39   C     C_R   0.315949 0.808058 0.430697 -0.206510
C40   C     C_R   0.352168 0.796616 0.111083 -0.117263
H12   H     H_    0.336308 0.682701 0.022004 0.134523
H13   H     H_    0.245991 0.590695 0.205049 0.166689
O11   O     O_R   0.203230 0.917310 0.915020 -0.525172
O12   O     O_R   0.535500 0.888690 0.048040 -0.541609
O13   O     O_R   0.711080 0.082610 0.085000 -0.545762
C41   C     C_R   0.366125 0.867721 0.068313 0.699076
O14   O     O_R   0.532630 0.905370 0.913230 -0.556172
O15   O     O_R   0.708190 0.099410 0.949230 -0.545341
C42   C     C_R   0.364273 0.885925 0.885631 0.760677
O16   O     O_R   0.206120 0.900510 0.050790 -0.537869
O17   O     O_3   0.375360 0.063570 0.011990 -0.385611
V3    V     V_3+5 0.648170 0.988200 0.997780 1.418652
O18   O     O_R   0.038240 0.111390 0.951940 -0.554574
C43   C     C_R   0.871398 0.131326 0.930318 0.698147
O19   O     O_R   0.041120 0.094710 0.086750 -0.552310
C44   C     C_R   0.871822 0.119674 0.111870 0.729798
V4    V     V_3+5 0.148810 0.011930 0.002180 1.414699
O20   O     O_3   0.871750 0.936430 0.988010 -0.359041
O21   O     O_3   0.862982 0.213054 0.322640 -0.666441
H14   H     H_    0.836301 0.205454 0.369065 0.274176
C45   C     C_3   0.136579 0.299375 0.163207 -0.342292
C46   C     C_3   0.287257 0.362804 0.208073 -0.732119
H15   H     H_    0.234770 0.438171 0.226672 0.270206
H16   H     H_    0.322190 0.331447 0.251996 0.224484
H17   H     H_    0.421189 0.367316 0.178894 0.212979
H18   H     H_    0.083313 0.339228 0.125629 0.171269
H19   H     H_    0.213964 0.234271 0.135797 0.197346
O22   O     O_3   0.166846 0.709694 0.855638 -0.660746
H20   H     H_    0.108196 0.643877 0.838938 0.292320
C47   C     C_3   0.476130 0.861982 0.762124 -0.409428
C48   C     C_3   0.378994 0.868208 0.695433 -0.774299
H21   H     H_    0.222976 0.850800 0.694758 0.228742
H22   H     H_    0.397770 0.943214 0.685900 0.212509
H23   H     H_    0.448914 0.817765 0.652604 0.220814
H24   H     H_    0.528935 0.937239 0.784458 0.179346
H25   H     H_    0.601754 0.813533 0.750588 0.183678
C49   C     C_3   0.002454 0.671870 0.711785 -0.326940
C50   C     C_3   0.931066 0.566324 0.704727 -0.724498
H26   H     H_    0.034049 0.513168 0.675987 0.230418
H27   H     H_    0.911010 0.549525 0.755034 0.192122
H28   H     H_    0.790786 0.556493 0.678433 0.205768
H29   H     H_    0.912165 0.718544 0.750805 0.161999
H30   H     H_    0.977209 0.698618 0.665279 0.188837
O23   O     O_3   0.452828 0.600130 0.292569 -0.663445
H31   H     H_    0.478893 0.557401 0.324081 0.281766
C51   C     C_3   0.251724 0.518422 0.075175 -0.363341
C52   C     C_3   0.253094 0.496758 0.998371 -0.757961
H32   H     H_    0.141951 0.540337 0.979630 0.234610
H33   H     H_    0.397205 0.513058 0.979359 0.224427
H34   H     H_    0.219741 0.417696 0.978534 0.225253
H35   H     H_    0.359304 0.470551 0.091556 0.191923
H36   H     H_    0.107573 0.497418 0.091713 0.188777
C53   C     C_3   0.363108 0.011678 0.192001 -0.339834
C54   C     C_3   0.369727 0.112381 0.240179 -0.785458
H37   H     H_    0.229887 0.128874 0.266532 0.258051
H38   H     H_    0.488612 0.117053 0.276854 0.244244
H39   H     H_    0.396900 0.168566 0.210535 0.222654
H40   H     H_    0.498989 0.005882 0.163011 0.193473
H41   H     H_    0.238215 0.012862 0.159251 0.206599
C55   C     C_3   0.929945 0.011923 0.559233 -0.370329
C56   C     C_3   0.753780 0.945722 0.561112 -0.752576
H42   H     H_    0.721961 0.937630 0.612964 0.225324
H43   H     H_    0.626232 0.976767 0.541162 0.229421
H44   H     H_    0.780639 0.871709 0.529382 0.224031
H45   H     H_    0.957575 0.013420 0.505716 0.181483
H46   H     H_    0.060441 0.979301 0.575930 0.164539
C57   C     C_3   0.054602 0.016145 0.805927 -0.367138
C58   C     C_3   0.915555 0.932690 0.809744 -0.709835
H47   H     H_    0.795333 0.960365 0.843665 0.229763
H48   H     H_    0.864457 0.900607 0.758336 0.191736
H49   H     H_    0.981413 0.872880 0.828106 0.243441
H50   H     H_    0.172047 0.987552 0.771939 0.188456
H51   H     H_    0.138780 0.045846 0.850555 0.194947
O24   O     O_3   0.891377 0.439208 0.259628 -0.656265
H52   H     H_    0.819733 0.478058 0.298235 0.276199

loop_
_geom_bond_atom_site_label_1
_geom_bond_atom_site_label_2
_ccdc_geom_bond_type
C32   C33   A    
C24   C42   S    
C57   H50   S    
C28   C38   A    
O15   C43   A    
C1    O6    A    
C58   H49   S    
C27   C39   A    
C55   H45   S    
C55   C56   S    
C31   H13   S    
C6    C16   A    
C26   H8    S    
C29   C30   A    
O13   V3    S    
C12   C13   A    
C47   C48   S    
C45   H19   S    
C7    C8    A    
C14   C15   A    
C10   C12   A    
C21   C45   S    
C54   H38   S    
O5    C3    A    
O19   V4    S    
V2    O10   S    
C53   C54   S    
C23   O22   S    
C34   C38   A    
C52   H32   S    
C18   C43   S    
O8    V2    S    
C45   C46   S    
C5    C55   S    
O11   C42   A    
C40   C41   S    
O23   H31   S    
C41   O16   A    
O1    V2    S    
O7    V1    S    
C47   H25   S    
O13   C44   A    
C36   C37   A    
C50   H27   S    
C19   O24   S    
O9    C4    A    
C20   O21   S    
C28   C39   A    
C23   C25   S    
C27   H11   S    
C1    C26   S    
C46   H16   S    
C11   C15   A    
C7    C18   A    
C22   C44   S    
O17   V3    S    
C5    C13   A    
C50   H26   S    
C4    C6    S    
C10   C11   A    
C53   H40   S    
C54   H39   S    
C21   C22   D    
O4    C2    A    
O19   C44   A    
V3    O20   S    
C7    H4    S    
C48   H23   S    
C35   C36   A    
C46   H15   S    
C33   C37   A    
O12   C41   A    
O2    C1    A    
C19   C20   D    
H9    C39   S    
C15   C57   S    
C9    C10   A    
C49   H29   S    
C33   C40   A    
O18   C43   A    
C48   H22   S    
H2    C14   S    
C52   H34   S    
O3    C4    A    
C53   H41   S    
C51   H35   S    
C56   H44   S    
C22   H7    S    
C12   C16   A    
O6    V2    S    
C9    H5    S    
O9    V2    S    
C29   H12   S    
C5    C17   A    
C37   C53   S    
O12   V3    S    
C45   H18   S    
C58   H47   S    
O2    V1    S    
O22   H20   S    
C8    H6    S    
C25   C26   D    
C56   H43   S    
C46   H17   S    
C30   C51   S    
C31   C32   A    
C16   H3    S    
O1    C2    A    
C57   H51   S    
O18   V4    S    
V4    O20   S    
C58   H48   S    
C29   C40   A    
O5    V1    S    
O14   C42   A    
O8    C3    A    
C30   C31   A    
C50   H28   S    
O11   V4    S    
O24   H52   S    
C49   H30   S    
H10   C36   S    
C32   C34   A    
C57   C58   S    
O7    V2    S    
C2    C28   S    
O4    V1    S    
C19   C21   S    
O3    V1    S    
V1    O10   S    
C54   H37   S    
C27   C35   A    
O15   V3    S    
C25   C49   S    
C34   C35   A    
C11   C18   A    
C49   C50   S    
C24   C47   S    
O16   V4    S    
C3    C20   S    
C48   H21   S    
C38   O23   S    
C52   H33   S    
C51   H36   S    
O21   H14   S    
C23   C24   D    
O14   V3    S    
C8    C9    A    
O17   V4    S    
H1    C17   S    
C51   C52   S    
C47   H24   S    
C55   H46   S    
C56   H42   S    
C13   C14   A    
C6    C17   A    
