data_mof_unit_14571.cif
_audit_creation_date              2012-12-10T20:46:50-0500
_audit_creation_method            fapswitch 2.2
_symmetry_space_group_name_H-M    P1
_symmetry_Int_Tables_number       1
_space_group_crystal_system       triclinic
_cell_length_a                    12.790231
_cell_length_b                    8.927386
_cell_length_c                    8.137875
_cell_angle_alpha                 90.028147
_cell_angle_beta                  96.841563
_cell_angle_gamma                 89.972185
_cell_volume                      922.592891367

loop_
_atom_site_label
_atom_site_type_symbol
_atom_type_description
_atom_site_fract_x
_atom_site_fract_y
_atom_site_fract_z
_atom_type_partial_charge
C1    C     C_R   0.500062 0.218124 0.499988 0.939428
C2    C     C_R   0.877479 0.423192 0.674318 -0.037853
C3    C     C_R   0.137112 0.564892 0.591675 -0.131071
C4    C     C_R   0.863303 0.601922 0.442443 -0.036219
C5    C     C_R   0.031606 0.528284 0.573830 0.041566
C6    C     C_R   0.969925 0.579014 0.430391 0.142951
C7    C     C_1   0.500169 0.065221 0.499991 -0.161470
C8    C     C_1   0.500189 0.934760 0.500059 -0.149374
C9    C     C_2   0.807560 0.737251 0.366503 0.486001
C10   C     C_2   0.178455 0.663085 0.732079 0.400377
C11   C     C_2   0.830293 0.303183 0.768202 0.556876
C12   C     C_R   0.500136 0.781883 0.500049 0.909405
C13   C     C_2   0.182891 0.620493 0.147190 0.481710
C14   C     C_2   0.955881 0.630627 0.120521 0.523784
C15   C     C_2   0.057448 0.363225 0.825846 0.354189
C16   C     C_R   0.298772 0.520980 0.468349 0.887927
C17   C     C_R   0.702643 0.499370 0.532253 0.847000
C18   C     C_R   0.815778 0.510140 0.553234 -0.220191
C19   C     C_R   0.187684 0.562610 0.449769 -0.161484
C20   C     C_R   0.018476 0.607597 0.285109 -0.052282
C21   C     C_R   0.987293 0.443245 0.694227 -0.053216
C22   C     C_R   0.129183 0.594809 0.295136 -0.102715
H1    H     H_    0.723080 0.749763 0.361631 0.075137
H2    H     H_    0.262027 0.680443 0.765574 0.121935
H3    H     H_    0.854876 0.187992 0.754176 0.064098
H4    H     H_    0.164131 0.550662 0.039718 0.063564
H5    H     H_    0.987611 0.696348 0.026209 0.112160
H6    H     H_    0.140054 0.346692 0.812344 0.078760
N1    N     N_1   0.500020 0.500000 0.073640 -0.001965
N2    N     N_1   0.499980 0.500000 0.926360 -0.004521
O1    O     O_R   0.499990 0.285340 0.636850 -0.602753
O2    O     O_2   0.117768 0.736135 0.805184 -0.566961
O3    O     O_2   0.769553 0.332371 0.868506 -0.478023
O4    O     O_2   0.248006 0.720309 0.145420 -0.533777
O5    O     O_2   0.869717 0.572218 0.086808 -0.507602
O6    O     O_2   0.025075 0.317700 0.951900 -0.544706
O7    O     O_R   0.500010 0.714660 0.363150 -0.603420
O8    O     O_R   0.500010 0.285340 0.363150 -0.606667
O9    O     O_R   0.499990 0.714660 0.636850 -0.625553
O10   O     O_R   0.346350 0.500000 0.614250 -0.663728
O11   O     O_R   0.653650 0.500000 0.385750 -0.617192
O12   O     O_R   0.346360 0.500000 0.340500 -0.593433
O13   O     O_R   0.653640 0.500000 0.659500 -0.554991
O14   O     O_2   0.856774 0.842186 0.317721 -0.559843
Zn1   Zn    Zn3+2 0.499990 0.500000 0.682780 1.035456
Zn2   Zn    Zn3+2 0.500010 0.500000 0.317220 1.048687

loop_
_geom_bond_atom_site_label_1
_geom_bond_atom_site_label_2
_ccdc_geom_bond_type
O11   Zn2   S    
C17   O13   A    
C3    C19   A    
N1    N2    T    
C16   O12   A    
C14   H5    S    
C2    C18   A    
C6    C20   A    
N2    Zn1   S    
C1    O1    A    
N1    Zn2   S    
C8    C12   S    
C4    C18   A    
C2    C21   A    
C17   C18   S    
O7    Zn2   S    
C7    C8    T    
C3    C10   S    
O13   Zn1   S    
C15   H6    S    
C5    C6    A    
C15   C21   S    
C1    O8    A    
C16   O10   A    
C16   C19   S    
C2    C11   S    
C20   C22   A    
C13   C22   S    
O12   Zn2   S    
O10   Zn1   S    
C17   O11   A    
C13   H4    S    
O8    Zn2   S    
C11   H3    S    
C10   O2    D    
C15   O6    D    
C11   O3    D    
C19   C22   A    
C5    C21   A    
C14   C20   S    
C4    C6    A    
O1    Zn1   S    
C12   O7    A    
C9    H1    S    
C9    O14   D    
C13   O4    D    
C10   H2    S    
C4    C9    S    
C1    C7    S    
O9    Zn1   S    
C14   O5    D    
C12   O9    A    
C3    C5    A    
