data_mof_unit_29670.cif
_audit_creation_date              2012-12-10T19:05:19-0500
_audit_creation_method            fapswitch 2.2
_symmetry_space_group_name_H-M    P1
_symmetry_Int_Tables_number       1
_space_group_crystal_system       triclinic
_cell_length_a                    9.574361
_cell_length_b                    10.849441
_cell_length_c                    17.337655
_cell_angle_alpha                 91.509556
_cell_angle_beta                  86.501275
_cell_angle_gamma                 89.455904
_cell_volume                      1796.88242924

loop_
_atom_site_label
_atom_site_type_symbol
_atom_type_description
_atom_site_fract_x
_atom_site_fract_y
_atom_site_fract_z
_atom_type_partial_charge
C1    C     C_R   0.499381 0.737614 0.499268 0.869955
C2    C     C_R   0.360213 0.437968 0.774480 -0.221257
C3    C     C_R   0.400042 0.493422 0.146654 0.524524
C4    C     C_R   0.398558 0.490563 0.227425 -0.283197
C5    C     C_R   0.650101 0.518637 0.223156 -0.133478
C6    C     C_R   0.652329 0.525188 0.143167 -0.218371
C7    C     C_R   0.528529 0.511988 0.104941 0.050841
C8    C     C_2   0.476676 0.434023 0.976613 -0.115041
C9    C     C_2   0.536223 0.519133 0.020876 -0.109779
C10   C     C_R   0.523111 0.501695 0.265734 -0.085099
C11   C     C_R   0.373971 0.939143 0.506024 0.045713
C12   C     C_R   0.482969 0.495638 0.649722 0.861696
C13   C     C_R   0.498396 0.870731 0.493356 -0.108315
C14   C     C_R   0.622025 0.932886 0.470889 -0.140625
C15   C     C_R   0.623043 0.061541 0.470418 -0.152774
C16   C     C_R   0.501040 0.129171 0.493234 -0.062629
C17   C     C_R   0.376510 0.066190 0.506990 -0.007137
C18   C     C_3   0.270727 0.079643 0.573506 -0.512090
C19   C     C_3   0.263329 0.939948 0.571185 0.710554
C20   C     C_R   0.933851 0.442122 0.441709 0.161207
C21   C     C_R   0.919301 0.571993 0.551527 0.338621
C22   C     C_R   0.068845 0.567306 0.554110 0.536436
C23   C     C_R   0.500699 0.262483 0.498885 0.804470
C24   C     C_R   0.080695 0.444001 0.440895 0.083657
C25   C     C_3   0.093117 0.312234 0.414861 -0.472335
C26   C     C_3   0.934172 0.309069 0.418316 0.194520
C27   C     C_R   0.517390 0.499977 0.350160 0.820788
C28   C     C_R   0.479932 0.480291 0.733497 -0.086107
C29   C     C_R   0.603837 0.497097 0.771680 -0.243812
C30   C     C_R   0.607214 0.479074 0.851271 0.516131
C31   C     C_R   0.483184 0.443602 0.892365 0.065238
C32   C     C_R   0.361610 0.420615 0.853628 -0.200469
Cu1   Cu    Cu3+1 0.359330 0.500020 0.500000 1.017919
Cu2   Cu    Cu3+1 0.640670 0.499980 0.500000 1.028426
H1    H     H_    0.699091 0.521087 0.739109 0.188769
H2    H     H_    0.751033 0.539519 0.110805 0.170699
H3    H     H_    0.718722 0.882690 0.456112 0.198871
H4    H     H_    0.719767 0.107287 0.454705 0.182803
H5    H     H_    0.316326 0.119271 0.626078 0.204884
H6    H     H_    0.173081 0.126206 0.558030 0.199196
H7    H     H_    0.143719 0.302002 0.355557 0.223356
H8    H     H_    0.299665 0.482286 0.260414 0.170689
H9    H     H_    0.138640 0.252914 0.458010 0.190795
H10   H     H_    0.889222 0.250140 0.464668 0.121154
H11   H     H_    0.747083 0.528849 0.251621 0.194984
H12   H     H_    0.595478 0.594157 0.995261 0.169326
H13   H     H_    0.267103 0.390745 0.885001 0.165118
H14   H     H_    0.266547 0.416193 0.745320 0.152842
H15   H     H_    0.415732 0.360327 0.002752 0.164021
N1    N     N_R   0.852130 0.499070 0.499500 -0.271056
N2    N     N_R   0.148040 0.499110 0.499500 -0.250904
O1    O     O_R   0.381190 0.680360 0.500000 -0.522843
O2    O     O_R   0.618770 0.680320 0.499990 -0.536923
O3    O     O_R   0.367430 0.500040 0.613600 -0.558778
O4    O     O_R   0.605020 0.500000 0.613590 -0.553519
O5    O     O_R   0.381230 0.319680 0.500010 -0.592381
O6    O     O_R   0.618810 0.319640 0.500000 -0.587769
O7    O     O_R   0.394980 0.500000 0.386410 -0.592332
O8    O     O_R   0.632570 0.499960 0.386400 -0.555387
Cl1   Cl    Cl    0.316218 0.871524 0.657645 -0.571871
Cl2   Cl    Cl    0.099270 0.886919 0.540470 -0.538805
Cl3   Cl    Cl    0.822667 0.679759 0.611452 -0.555976
O9    O     O_3   0.137426 0.639466 0.606611 -0.473395
C33   C     C_3   0.099876 0.607300 0.683564 -0.138211
H16   H     H_    0.192449 0.619871 0.718071 0.197297
H17   H     H_    0.064217 0.510242 0.689466 0.069710
H18   H     H_    0.020043 0.672487 0.710073 0.206582
Cl4   Cl    Cl    0.865341 0.284518 0.325887 -0.632598
O10   O     O_3   0.277074 0.493254 0.107860 -0.587090
C34   C     C_3   0.189830 0.395006 0.131187 -0.310759
H19   H     H_    0.125321 0.421130 0.184638 0.196020
H20   H     H_    0.249787 0.308134 0.139078 0.158153
H21   H     H_    0.116680 0.376064 0.085204 0.203200
O11   O     O_3   0.731740 0.481195 0.888818 -0.585951
C35   C     C_3   0.813811 0.584229 0.868504 -0.334527
H22   H     H_    0.749618 0.669294 0.862509 0.173742
H23   H     H_    0.879900 0.563373 0.814862 0.170008
H24   H     H_    0.885458 0.603127 0.915224 0.200671

loop_
_geom_bond_atom_site_label_1
_geom_bond_atom_site_label_2
_ccdc_geom_bond_type
C10   C27   S    
Cu1   O7    S    
C18   H5    S    
C25   H9    S    
C26   H10   S    
C23   O5    A    
Cu1   O1    S    
C11   C19   S    
C20   C26   S    
C12   C28   S    
C28   C29   A    
C3    O10   S    
C19   Cl2   S    
C3    C7    A    
C5    C6    A    
C30   O11   S    
C15   C16   A    
C2    C32   A    
C18   C19   S    
C18   H6    S    
C20   N1    A    
C22   O9    S    
C20   C24   A    
C16   C17   A    
Cu2   O6    S    
C34   H19   S    
C24   N2    A    
C9    H12   S    
C13   C14   A    
C1    O2    A    
C21   N1    A    
C1    O1    A    
C17   C18   S    
Cu2   N1    S    
O11   C35   S    
C33   H18   S    
C24   C25   S    
C25   H7    S    
C8    C9    D    
C2    H14   S    
C25   C26   S    
C5    H11   S    
C33   H17   S    
C35   H22   S    
C15   H4    S    
C29   C30   A    
C31   C32   A    
C34   H21   S    
Cu1   Cu2   S    
C35   H23   S    
C21   Cl3   S    
C23   O6    A    
C16   C23   S    
Cu2   O8    S    
C32   H13   S    
C1    C13   S    
C4    C10   A    
C3    C4    A    
Cu1   O3    S    
C7    C9    S    
C11   C17   A    
C8    C31   S    
C27   O7    A    
C34   H20   S    
C6    C7    A    
C19   Cl1   S    
Cu1   N2    S    
C29   H1    S    
C26   Cl4   S    
C33   H16   S    
C5    C10   A    
C27   O8    A    
C14   H3    S    
C11   C13   A    
C30   C31   A    
C4    H8    S    
Cu1   O5    S    
C6    H2    S    
O10   C34   S    
C35   H24   S    
C12   O4    A    
O9    C33   S    
Cu2   O4    S    
Cu2   O2    S    
C14   C15   A    
C2    C28   A    
C21   C22   A    
C8    H15   S    
C12   O3    A    
C22   N2    A    
