data_mof_unit_38156.cif
_audit_creation_date              2012-12-11T16:35:21-0500
_audit_creation_method            fapswitch 2.2
_symmetry_space_group_name_H-M    P1
_symmetry_Int_Tables_number       1
_space_group_crystal_system       triclinic
_cell_length_a                    6.929461
_cell_length_b                    17.680536
_cell_length_c                    19.49058
_cell_angle_alpha                 109.094299
_cell_angle_beta                  90.578379
_cell_angle_gamma                 90.501536
_cell_volume                      2256.24086165

loop_
_atom_site_label
_atom_site_type_symbol
_atom_type_description
_atom_site_fract_x
_atom_site_fract_y
_atom_site_fract_z
_atom_type_partial_charge
O1    O     O_R   0.505700 0.440210 0.561730 -0.529338
O2    O     O_R   0.169350 0.406300 0.412660 -0.521035
O3    O     O_R   0.005650 0.559790 0.438270 -0.552367
C1    C     C_R   0.338002 0.382215 0.385520 0.790086
O4    O     O_R   0.175560 0.430650 0.559600 -0.527459
O5    O     O_R   0.011900 0.584320 0.586250 -0.535323
C2    C     C_R   0.344877 0.414562 0.580383 0.760829
O6    O     O_R   0.499450 0.415680 0.413750 -0.544633
O7    O     O_3   0.341370 0.550390 0.508570 -0.382821
V1    V     V_3+5 0.063940 0.490650 0.498410 1.479774
O8    O     O_R   0.682570 0.593700 0.587340 -0.536065
C3    C     C_R   0.853245 0.616469 0.615153 0.803189
O9    O     O_R   0.676370 0.569350 0.440400 -0.547965
C4    C     C_R   0.844492 0.585680 0.419744 0.716338
V2    V     V_3+5 0.564750 0.509350 0.501590 1.454744
O10   O     O_3   0.837190 0.449610 0.491430 -0.358833
C5    C     C_R   0.028658 0.670491 0.276758 0.297994
C6    C     C_R   0.012537 0.627258 0.325308 -0.281050
H1    H     H_    0.122493 0.583846 0.324802 0.144571
C7    C     C_R   0.853899 0.636191 0.371483 -0.155405
C8    C     C_R   0.710215 0.692922 0.370308 0.196113
C9    C     C_R   0.731704 0.740160 0.324100 0.295230
C10   C     C_R   0.888298 0.727716 0.276078 0.001508
C11   C     C_R   0.747437 0.774572 0.177955 -0.182436
H2    H     H_    0.619352 0.738777 0.177431 0.165375
C12   C     C_R   0.754618 0.820202 0.131350 -0.202366
H3    H     H_    0.631719 0.818898 0.096173 0.135629
C13   C     C_R   0.919670 0.865995 0.129382 -0.073738
C14   C     C_R   0.076673 0.865711 0.175437 -0.273917
H4    H     H_    0.204145 0.901304 0.174749 0.112480
C15   C     C_R   0.068217 0.822080 0.224443 0.407469
C16   C     C_R   0.902868 0.775204 0.225199 0.142238
H5    H     H_    0.720379 0.646295 0.940246 0.130447
C17   C     C_R   0.008901 0.901504 0.746257 -0.227228
C18   C     C_R   0.055956 0.912380 0.680363 0.346640
C19   C     C_R   0.038787 0.847592 0.616085 -0.132671
C20   C     C_R   0.979063 0.772722 0.617521 -0.228943
C21   C     C_R   0.932513 0.760200 0.683558 0.050735
C22   C     C_R   0.949130 0.825806 0.749173 0.040560
C23   C     C_R   0.870857 0.683772 0.684782 -0.174650
C24   C     C_R   0.834946 0.671848 0.752650 0.034584
C25   C     C_R   0.845785 0.738919 0.817973 0.015876
C26   C     C_R   0.904289 0.815233 0.816157 -0.144536
C27   C     C_R   0.795047 0.594553 0.758199 0.341598
C28   C     C_R   0.751313 0.587023 0.826054 -0.187508
C29   C     C_R   0.753215 0.653237 0.888416 -0.166361
C30   C     C_R   0.802412 0.728034 0.884915 -0.140672
H6    H     H_    0.021008 0.952921 0.795133 0.100912
H7    H     H_    0.069923 0.855064 0.564343 0.128050
H8    H     H_    0.970350 0.724854 0.566039 0.105482
H9    H     H_    0.717550 0.528995 0.830755 0.117610
H10   H     H_    0.807368 0.777099 0.935681 0.107669
C31   C     C_R   0.261536 0.212312 0.376600 0.339116
C32   C     C_R   0.235750 0.131605 0.371423 -0.176526
C33   C     C_R   0.270727 0.070622 0.307300 -0.159212
C34   C     C_R   0.331966 0.088323 0.246769 -0.148741
C35   C     C_R   0.357878 0.168360 0.248486 0.020057
C36   C     C_R   0.322333 0.232344 0.314536 0.040710
C37   C     C_R   0.421650 0.184235 0.185408 -0.146970
C38   C     C_R   0.452144 0.264368 0.188027 0.072174
C39   C     C_R   0.416876 0.328682 0.253114 -0.020513
C40   C     C_R   0.351753 0.313301 0.316475 -0.164767
C41   C     C_R   0.515117 0.282000 0.126086 -0.186155
C42   C     C_R   0.545584 0.360698 0.128183 -0.206106
C43   C     C_R   0.511892 0.424375 0.191910 0.392298
C44   C     C_R   0.446496 0.408220 0.253218 -0.149530
H11   H     H_    0.189222 0.115680 0.417853 0.119428
H12   H     H_    0.251546 0.008946 0.304693 0.140481
H13   H     H_    0.360935 0.038081 0.198693 0.111092
H14   H     H_    0.542349 0.235215 0.075305 0.122473
H15   H     H_    0.595209 0.371902 0.079837 0.118887
H16   H     H_    0.418550 0.459258 0.300806 0.105417
C45   C     C_R   0.545975 0.303117 0.701989 -0.147368
H17   H     H_    0.686508 0.294288 0.722729 0.115710
C46   C     C_R   0.535036 0.346041 0.653190 -0.163901
H18   H     H_    0.667736 0.366139 0.635717 0.129833
C47   C     C_R   0.355689 0.363307 0.627731 -0.044881
C48   C     C_R   0.187868 0.331231 0.648279 -0.175362
H19   H     H_    0.047343 0.341382 0.628347 0.126711
C49   C     C_R   0.199389 0.285289 0.694743 -0.153277
H20   H     H_    0.067795 0.260078 0.708144 0.133445
C50   C     C_R   0.378051 0.273021 0.724429 0.085715
C51   C     C_R   0.253202 0.236352 0.833206 0.360115
C52   C     C_R   0.263478 0.187239 0.876923 -0.166598
H21   H     H_    0.155809 0.193595 0.918322 0.142927
C53   C     C_R   0.416040 0.133864 0.870780 -0.124174
C54   C     C_R   0.556886 0.128217 0.818313 -0.149942
H22   H     H_    0.675246 0.086950 0.812027 0.123304
C55   C     C_R   0.542619 0.173405 0.771480 -0.171900
H23   H     H_    0.649469 0.164512 0.729512 0.129701
C56   C     C_R   0.390819 0.227737 0.777357 -0.013413
O11   O     O_R   0.273230 0.084330 0.086440 -0.535047
O12   O     O_R   0.596660 0.069390 0.940470 -0.541473
O13   O     O_R   0.760270 0.915710 0.913690 -0.538423
C57   C     C_R   0.427303 0.084283 0.919014 0.701982
O14   O     O_R   0.603330 0.093680 0.087390 -0.537223
O15   O     O_R   0.766990 0.940160 0.061660 -0.541854
C58   C     C_R   0.434910 0.117044 0.115089 0.694075
O16   O     O_R   0.266510 0.059870 0.938470 -0.542079
O17   O     O_3   0.431050 0.949630 0.991510 -0.368796
V3    V     V_3+5 0.708490 0.009340 0.001580 1.419748
O18   O     O_R   0.096270 0.930570 0.059390 -0.543024
C59   C     C_R   0.927882 0.915176 0.080620 0.710943
O19   O     O_R   0.089600 0.906290 0.912460 -0.537610
C60   C     C_R   0.919335 0.884013 0.884571 0.698388
V4    V     V_3+5 0.207670 0.990600 0.998190 1.420509
O20   O     O_3   0.935250 0.050360 0.008480 -0.367498
N1    N     N_2   0.186953 0.655630 0.228340 -0.473695
H24   H     H_    0.312119 0.640512 0.249607 0.293071
C61   C     C_3   0.142818 0.601254 0.156334 -0.522477
H25   H     H_    0.270659 0.596306 0.121308 0.198919
H26   H     H_    0.020446 0.623690 0.131513 0.190289
H27   H     H_    0.105791 0.540881 0.158769 0.202164
N2    N     N_2   0.113890 0.989325 0.678725 -0.527232
H28   H     H_    0.087246 0.035924 0.725763 0.253644
C62   C     C_3   0.305675 0.993812 0.651449 -0.530185
H29   H     H_    0.333639 0.055290 0.650244 0.206631
H30   H     H_    0.319748 0.951778 0.595265 0.197965
H31   H     H_    0.415348 0.979747 0.687357 0.195095
O21   O     O_3   0.806563 0.526520 0.698180 -0.658058
H32   H     H_    0.802388 0.478806 0.714141 0.268424
O22   O     O_3   0.541238 0.503063 0.196141 -0.663744
H33   H     H_    0.587763 0.504518 0.148627 0.276438
O23   O     O_3   0.228183 0.271195 0.442010 -0.659375
H34   H     H_    0.186386 0.246631 0.478543 0.274015
O24   O     O_3   0.110933 0.293333 0.848804 -0.656853
H35   H     H_    0.155876 0.339118 0.834281 0.286639
N3    N     N_2   0.541455 0.702690 0.413394 -0.531848
H36   H     H_    0.456507 0.652258 0.404832 0.276965
C63   C     C_3   0.563326 0.752877 0.488380 -0.524919
H37   H     H_    0.418618 0.766814 0.512978 0.194928
H38   H     H_    0.637522 0.810107 0.492135 0.198693
H39   H     H_    0.646566 0.721542 0.519533 0.190656
O25   O     O_3   0.603396 0.799944 0.324838 -0.640760
H40   H     H_    0.506353 0.806252 0.363058 0.346362
O26   O     O_3   0.216792 0.826367 0.273269 -0.634365
H41   H     H_    0.321307 0.861063 0.265213 0.303326

loop_
_geom_bond_atom_site_label_1
_geom_bond_atom_site_label_2
_ccdc_geom_bond_type
V3    O20   S    
C54   H22   S    
O13   C60   A    
C36   C40   A    
O24   H35   S    
C45   H17   S    
O2    C1    A    
C18   C19   A    
C1    O6    A    
N3    H36   S    
O19   V4    S    
N2    H28   S    
O11   C58   A    
C47   C48   A    
C62   H29   S    
C12   H3    S    
C20   C21   A    
C9    O25   S    
C38   C41   A    
C8    C9    A    
C19   C20   A    
C52   C53   A    
C6    H1    S    
O5    C3    A    
C21   C22   A    
C57   O16   A    
C35   C37   A    
V4    O20   S    
C28   H9    S    
V2    O10   S    
C1    C40   S    
N1    H24   S    
C18   N2    S    
C17   C18   A    
C26   C60   S    
C42   H15   S    
C61   H25   S    
C32   C33   A    
O8    V2    S    
C39   C44   A    
C44   H16   S    
C15   C16   A    
O13   V3    S    
C62   H30   S    
O14   C58   A    
O1    V2    S    
C55   C56   A    
O7    V1    S    
C2    C47   S    
C24   C25   A    
C37   C38   A    
O12   C57   A    
O14   V3    S    
H5    C29   S    
C45   C46   A    
C39   C40   A    
O19   C60   A    
C33   H12   S    
C17   C22   A    
C4    C7    S    
C52   H21   S    
C49   C50   A    
C5    N1    S    
O12   V3    S    
O4    C2    A    
C53   C54   A    
C15   O26   S    
C22   C26   A    
C32   H11   S    
C28   C29   A    
C50   C56   S    
C38   C39   A    
C3    C23   S    
C30   H10   S    
C63   H38   S    
C46   H18   S    
C11   C16   A    
C14   H4    S    
C51   C52   A    
C41   H14   S    
C31   C36   A    
C33   C34   A    
C5    C6    A    
C48   C49   A    
C5    C10   A    
C43   O22   S    
C11   H2    S    
C8    N3    S    
C46   C47   A    
C61   H27   S    
O15   C59   A    
O3    C4    A    
O11   V4    S    
C23   C24   A    
C34   H13   S    
O6    V2    S    
C54   C55   A    
C24   C27   A    
C63   H39   S    
C17   H6    S    
C34   C35   A    
C51   O24   S    
O2    V1    S    
C45   C50   A    
O21   H32   S    
O16   V4    S    
C55   H23   S    
C29   C30   A    
C13   C14   A    
O1    C2    A    
C12   C13   A    
C27   C28   A    
C11   C12   A    
C49   H20   S    
C31   O23   S    
N3    C63   S    
O5    V1    S    
N2    C62   S    
O8    C3    A    
C31   C32   A    
O25   H40   S    
C51   C56   A    
O17   V4    S    
C62   H31   S    
C42   C43   A    
O9    V2    S    
C63   H37   S    
O7    V2    S    
O4    V1    S    
C14   C15   A    
O3    V1    S    
V1    O10   S    
C10   C16   S    
C21   C23   A    
C20   H8    S    
C48   H19   S    
C13   C59   S    
C35   C36   A    
O17   V3    S    
N1    C61   S    
O18   V4    S    
C6    C7    A    
C25   C30   A    
O18   C59   A    
C61   H26   S    
C53   C57   S    
C41   C42   A    
C7    C8    A    
C43   C44   A    
C25   C26   A    
C37   C58   S    
C27   O21   S    
C9    C10   A    
O26   H41   S    
O22   H33   S    
O9    C4    A    
O15   V3    S    
C19   H7    S    
O23   H34   S    
