data_mof_unit_29443.cif
_audit_creation_date              2012-12-10T17:00:53-0500
_audit_creation_method            fapswitch 2.2
_symmetry_space_group_name_H-M    P1
_symmetry_Int_Tables_number       1
_space_group_crystal_system       triclinic
_cell_length_a                    10.685185
_cell_length_b                    10.686788
_cell_length_c                    10.030908
_cell_angle_alpha                 90.500365
_cell_angle_beta                  104.129162
_cell_angle_gamma                 90.170028
_cell_volume                      1110.72300608

loop_
_atom_site_label
_atom_site_type_symbol
_atom_type_description
_atom_site_fract_x
_atom_site_fract_y
_atom_site_fract_z
_atom_type_partial_charge
C1    C     C_R   0.502078 0.262583 0.499422 0.940385
C2    C     C_2   0.120787 0.527152 0.410844 -0.396306
C3    C     C_2   0.070735 0.571957 0.510769 -0.143792
C4    C     C_2   0.880101 0.527471 0.593725 -0.172004
C5    C     C_2   0.933099 0.569419 0.493981 -0.220434
C6    C     C_2   0.563560 0.936292 0.405997 -0.077157
C7    C     C_1   0.419930 0.405317 0.083008 0.322610
C8    C     C_R   0.954638 0.502849 0.736825 0.153542
C9    C     C_R   0.021991 0.599856 0.820068 -0.174573
C10   C     C_R   0.086652 0.576619 0.956446 -0.153993
C11   C     C_R   0.082681 0.457259 0.011032 -0.111513
C12   C     C_2   0.558405 0.865642 0.516550 -0.225899
C13   C     C_R   0.014193 0.360948 0.929784 -0.147720
C14   C     C_R   0.950028 0.383616 0.793345 -0.128567
C15   C     C_R   0.527414 0.891349 0.261295 0.183019
C16   C     C_R   0.397796 0.892197 0.186770 -0.125773
C17   C     C_R   0.364955 0.856828 0.047963 -0.166046
C18   C     C_R   0.461304 0.822306 0.982569 -0.093950
C19   C     C_R   0.590588 0.822592 0.056066 -0.127130
C20   C     C_R   0.623681 0.855912 0.195379 -0.158760
C21   C     C_1   0.612787 0.911342 0.656147 0.175910
C22   C     C_R   0.678054 0.135906 0.364428 0.163059
C23   C     C_2   0.581788 0.070762 0.424553 -0.013093
C24   C     C_R   0.796938 0.173372 0.449766 -0.178530
C25   C     C_R   0.886656 0.238007 0.395085 -0.132053
C26   C     C_R   0.858244 0.265149 0.254839 -0.116926
C27   C     C_R   0.740192 0.227604 0.169100 -0.141345
C28   C     C_R   0.650066 0.163472 0.223560 -0.097311
C29   C     C_2   0.506540 0.130051 0.494461 -0.380743
C30   C     C_2   0.604277 0.505959 0.951780 -0.173506
C31   C     C_2   0.600209 0.526711 0.099313 -0.114484
C32   C     C_R   0.258354 0.505508 0.442548 0.933858
C33   C     C_R   0.511961 0.737604 0.503274 0.875635
C34   C     C_R   0.741872 0.504919 0.557906 0.879401
H1    H     H_    0.874295 0.586353 0.390899 0.177319
H2    H     H_    0.133245 0.438916 0.116025 0.143494
H3    H     H_    0.010732 0.268736 0.972595 0.132809
H4    H     H_    0.896362 0.308478 0.731924 0.111546
H5    H     H_    0.322766 0.920771 0.236078 0.118012
H6    H     H_    0.264974 0.857229 0.990774 0.124312
H7    H     H_    0.435865 0.795464 0.874985 0.145090
H8    H     H_    0.665145 0.795865 0.005394 0.146988
H9    H     H_    0.724151 0.856135 0.251323 0.124883
H10   H     H_    0.819749 0.152303 0.558334 0.122540
H11   H     H_    0.978068 0.267208 0.461453 0.144413
H12   H     H_    0.415955 0.527339 0.874630 0.181634
H13   H     H_    0.927640 0.315089 0.212518 0.116707
H14   H     H_    0.718232 0.248799 0.060566 0.141229
H15   H     H_    0.558162 0.136599 0.156462 0.144442
H16   H     H_    0.685265 0.567345 0.167937 0.146908
H17   H     H_    0.131926 0.596878 0.610668 0.189806
H18   H     H_    0.060418 0.503508 0.310082 0.140201
H19   H     H_    0.439596 0.079807 0.540927 0.142735
H20   H     H_    0.697809 0.500351 0.927989 0.173763
H21   H     H_    0.023585 0.693346 0.779657 0.127276
H22   H     H_    0.139256 0.651156 0.020066 0.136150
N1    N     N_2   0.501330 0.501330 0.852460 -0.185885
N2    N     N_2   0.501370 0.501360 0.148130 -0.133892
N3    N     N_1   0.352873 0.324952 0.029469 -0.259503
N4    N     N_1   0.656239 0.947857 0.766784 -0.226267
O1    O     O_R   0.499980 0.319060 0.613030 -0.595847
O2    O     O_R   0.500020 0.319100 0.386910 -0.604465
O3    O     O_R   0.317800 0.500000 0.570840 -0.607179
O4    O     O_R   0.317840 0.500040 0.344720 -0.625715
O5    O     O_R   0.499980 0.680900 0.613090 -0.616907
O6    O     O_R   0.500020 0.680940 0.386970 -0.599701
O7    O     O_R   0.682160 0.499960 0.655280 -0.612729
O8    O     O_R   0.682200 0.500000 0.429160 -0.614551
Zn1   Zn    Zn3+2 0.499970 0.499970 0.650990 0.941837
Zn2   Zn    Zn3+2 0.500030 0.500030 0.349010 0.952736

loop_
_geom_bond_atom_site_label_1
_geom_bond_atom_site_label_2
_ccdc_geom_bond_type
C27   H14   S    
C34   O7    A    
C9    H21   S    
O4    Zn2   S    
C2    C3    D    
C14   H4    S    
C10   H22   S    
C9    C10   A    
C7    N2    S    
C13   H3    S    
C19   C20   A    
C19   H8    S    
C4    C8    S    
C1    O2    A    
C1    C29   S    
C17   C18   A    
C6    C15   S    
C33   O5    A    
C22   C28   A    
C13   C14   A    
O7    Zn1   S    
C2    C32   S    
C12   C33   S    
C30   H20   S    
O2    Zn2   S    
C26   C27   A    
O6    Zn2   S    
C2    H18   S    
C26   H13   S    
C25   H11   S    
O5    Zn1   S    
C6    C23   S    
C5    H1    S    
C31   N2    D    
C7    N3    T    
C11   H2    S    
C33   O6    A    
C29   H19   S    
C4    C34   S    
H12   N1    S    
C6    C12   D    
C30   C31   S    
C24   H10   S    
C22   C24   A    
C16   C17   A    
C10   C11   A    
C16   H5    S    
O1    Zn1   S    
C15   C16   A    
C30   N1    D    
C23   C29   D    
C11   C13   A    
C20   H9    S    
C24   C25   A    
C32   O4    A    
C21   N4    T    
O8    Zn2   S    
C18   C19   A    
C28   H15   S    
C18   H7    S    
C34   O8    A    
C27   C28   A    
C3    H17   S    
C22   C23   S    
C8    C9    A    
C8    C14   A    
C31   H16   S    
N1    Zn1   S    
C25   C26   A    
C12   C21   S    
C15   C20   A    
N2    Zn2   S    
O3    Zn1   S    
C32   O3    A    
C4    C5    D    
C3    C5    S    
C17   H6    S    
C1    O1    A    
