data_mof_unit_59141.cif
_audit_creation_date              2012-12-11T14:39:29-0500
_audit_creation_method            fapswitch 2.2
_symmetry_space_group_name_H-M    P1
_symmetry_Int_Tables_number       1
_space_group_crystal_system       triclinic
_cell_length_a                    7.24789
_cell_length_b                    13.920564
_cell_length_c                    16.513922
_cell_angle_alpha                 90.000109
_cell_angle_beta                  96.797132
_cell_angle_gamma                 90.000255
_cell_volume                      1654.45671168

loop_
_atom_site_label
_atom_site_type_symbol
_atom_type_description
_atom_site_fract_x
_atom_site_fract_y
_atom_site_fract_z
_atom_type_partial_charge
O1    O     O_R   0.525340 0.338340 0.164530 -0.537246
O2    O     O_R   0.474660 0.661660 0.835470 -0.544444
O3    O     O_R   0.974660 0.838340 0.835470 -0.537249
O4    O     O_R   0.025340 0.161660 0.164530 -0.544444
O5    O     O_R   0.253520 0.352000 0.336710 -0.548723
O6    O     O_R   0.746480 0.648000 0.663290 -0.523288
O7    O     O_R   0.246480 0.852000 0.663290 -0.548732
O8    O     O_R   0.753520 0.148000 0.336710 -0.523269
O9    O     O_R   0.083330 0.168380 0.337300 -0.536659
O10   O     O_R   0.916670 0.831620 0.662700 -0.517878
O11   O     O_R   0.416670 0.668380 0.662700 -0.536655
O12   O     O_R   0.583330 0.331620 0.337300 -0.517888
C1    C     C_R   0.432246 0.369378 0.363350 0.837704
C2    C     C_R   0.569032 0.628810 0.637987 0.825218
C3    C     C_R   0.067754 0.869375 0.636647 0.837677
C4    C     C_R   0.930967 0.128812 0.362015 0.825184
O13   O     O_R   0.195840 0.349670 0.165140 -0.546555
O14   O     O_R   0.804160 0.650330 0.834860 -0.540538
O15   O     O_R   0.304160 0.849670 0.834860 -0.546561
O16   O     O_R   0.695840 0.150330 0.165140 -0.540558
C5    C     C_R   0.357006 0.370352 0.136702 0.763531
C6    C     C_R   0.642697 0.629053 0.862864 0.755032
C7    C     C_R   0.142994 0.870352 0.863298 0.763501
C8    C     C_R   0.857302 0.129052 0.137136 0.754996
O17   O     O_3   0.387830 0.193120 0.250910 -0.382680
O18   O     O_3   0.612170 0.806880 0.749090 -0.380906
O19   O     O_3   0.112170 0.693120 0.749090 -0.382644
O20   O     O_3   0.887830 0.306880 0.250910 -0.380904
V1    V     V_3+5 0.113010 0.264540 0.250910 1.386683
V2    V     V_3+5 0.886990 0.735460 0.749090 1.411288
V3    V     V_3+5 0.386990 0.764540 0.749090 1.386699
V4    V     V_3+5 0.613010 0.235460 0.250910 1.411242
H1    H     H_    0.865939 0.792559 0.265809 0.128324
H2    H     H_    0.107299 0.201723 0.734500 0.126523
H3    H     H_    0.633975 0.292548 0.734188 0.128332
H4    H     H_    0.392703 0.701732 0.265505 0.126522
C9    C     C_R   0.000208 0.203409 0.529810 0.256877
C10   C     C_R   0.010538 0.794544 0.468050 0.252778
C11   C     C_R   0.499806 0.703409 0.470194 0.256863
C12   C     C_R   0.489465 0.294542 0.531942 0.252777
C13   C     C_R   0.060871 0.235792 0.608823 -0.142567
C14   C     C_R   0.969216 0.761138 0.388074 -0.151759
C15   C     C_R   0.439143 0.735795 0.391183 -0.142546
C16   C     C_R   0.530769 0.261132 0.611917 -0.151751
C17   C     C_R   0.081586 0.172953 0.673227 -0.243408
C18   C     C_R   0.906004 0.822215 0.326009 -0.232642
C19   C     C_R   0.418419 0.672959 0.326777 -0.243394
C20   C     C_R   0.593946 0.322207 0.673986 -0.232679
C21   C     C_R   0.043947 0.075767 0.660977 0.260013
C22   C     C_R   0.885319 0.919839 0.340125 0.258151
C23   C     C_R   0.456050 0.575772 0.339023 0.260003
C24   C     C_R   0.614637 0.419834 0.659877 0.258143
C25   C     C_R   0.022819 0.036278 0.580359 -0.010031
C26   C     C_R   0.945398 0.960645 0.418794 -0.015460
C27   C     C_R   0.477184 0.536280 0.419641 -0.010043
C28   C     C_R   0.554591 0.460642 0.581206 -0.015463
C29   C     C_R   0.994907 0.101179 0.513037 -0.068024
C30   C     C_R   0.997186 0.896287 0.485269 -0.064778
C31   C     C_R   0.505100 0.601179 0.486964 -0.068006
C32   C     C_R   0.502816 0.396286 0.514727 -0.064762
C33   C     C_R   0.030240 0.935033 0.566221 -0.165822
C34   C     C_R   0.957665 0.062453 0.432292 -0.162157
C35   C     C_R   0.469763 0.435035 0.433777 -0.165830
C36   C     C_R   0.542334 0.562452 0.567709 -0.162180
H5    H     H_    0.076489 0.311256 0.623122 0.133774
H6    H     H_    0.983365 0.686277 0.372596 0.136980
H7    H     H_    0.423533 0.811260 0.376887 0.133775
H8    H     H_    0.516615 0.186269 0.627390 0.136985
H9    H     H_    0.138596 0.064323 0.057516 0.154862
H10   H     H_    0.862831 0.932825 0.944698 0.151225
H11   H     H_    0.361404 0.564324 0.942484 0.154860
H12   H     H_    0.637167 0.432822 0.055298 0.151226
C37   C     C_2   0.150061 0.939620 0.932048 -0.356986
C38   C     C_2   0.850650 0.059024 0.068978 -0.357770
C39   C     C_2   0.349940 0.439621 0.067953 -0.356989
C40   C     C_2   0.649349 0.559024 0.931022 -0.357776
C41   C     C_2   0.996736 0.964134 0.966720 -0.131527
C42   C     C_2   0.004459 0.033542 0.035067 -0.131622
C43   C     C_2   0.503264 0.464133 0.033279 -0.131537
C44   C     C_2   0.495541 0.533542 0.964933 -0.131625
H13   H     H_    0.717058 0.028076 0.045874 0.127549
H14   H     H_    0.283480 0.970980 0.954832 0.125476
H15   H     H_    0.782941 0.528076 0.954124 0.127541
H16   H     H_    0.216522 0.470983 0.045171 0.125474
N1    N     N_2   0.929426 0.272233 0.469631 -0.518522
H17   H     H_    0.790776 0.261903 0.451132 0.289716
C45   C     C_3   0.975692 0.373167 0.479516 -0.542470
H18   H     H_    0.933138 0.411396 0.421459 0.206715
H19   H     H_    0.126962 0.382915 0.495180 0.193128
H20   H     H_    0.901071 0.405700 0.527579 0.188924
N2    N     N_2   0.078136 0.727015 0.529659 -0.524401
H21   H     H_    0.215335 0.737586 0.550196 0.292345
C46   C     C_3   0.030352 0.626177 0.520765 -0.540072
H22   H     H_    0.064120 0.589767 0.580337 0.207655
H23   H     H_    0.112104 0.591182 0.476300 0.181370
H24   H     H_    0.880262 0.617248 0.500789 0.201647
N3    N     N_2   0.570594 0.772229 0.530375 -0.518518
H25   H     H_    0.709247 0.761900 0.548868 0.289719
C47   C     C_3   0.524320 0.873164 0.520500 -0.542460
H26   H     H_    0.566870 0.911385 0.578562 0.206740
H27   H     H_    0.373050 0.882909 0.504835 0.193116
H28   H     H_    0.598944 0.905705 0.472442 0.188902
N4    N     N_2   0.421869 0.227015 0.470329 -0.524392
H29   H     H_    0.284667 0.237583 0.449798 0.292351
C48   C     C_3   0.469664 0.126178 0.479217 -0.540064
H30   H     H_    0.435918 0.089775 0.419641 0.207700
H31   H     H_    0.387900 0.091174 0.523673 0.181355
H32   H     H_    0.619750 0.117253 0.499202 0.201645
N5    N     N_2   0.000202 0.022831 0.729602 -0.528955
H33   H     H_    0.086689 0.039219 0.781898 0.239316
C49   C     C_3   0.806389 0.031420 0.742272 -0.479433
H34   H     H_    0.777647 0.987214 0.795117 0.203615
H35   H     H_    0.715420 0.006264 0.687597 0.187385
H36   H     H_    0.771860 0.107335 0.755046 0.163968
N6    N     N_2   0.788599 0.973287 0.275347 -0.519822
H37   H     H_    0.840165 0.961233 0.220685 0.235300
C50   C     C_3   0.589037 0.959469 0.267524 -0.481509
H38   H     H_    0.520767 0.006803 0.218949 0.204655
H39   H     H_    0.534222 0.977442 0.325615 0.181526
H40   H     H_    0.552884 0.883883 0.250742 0.159480
N7    N     N_2   0.499780 0.522839 0.270394 -0.528977
H41   H     H_    0.413316 0.539245 0.218095 0.239318
C51   C     C_3   0.693606 0.531400 0.257737 -0.479395
H42   H     H_    0.722313 0.487236 0.204860 0.203584
H43   H     H_    0.784541 0.506173 0.312398 0.187423
H44   H     H_    0.728215 0.607321 0.245017 0.163956
N8    N     N_2   0.711283 0.473279 0.724676 -0.519854
H45   H     H_    0.659650 0.461210 0.779321 0.235311
C52   C     C_3   0.910849 0.459469 0.732540 -0.481504
H46   H     H_    0.979037 0.506630 0.781256 0.204471
H47   H     H_    0.965773 0.477656 0.674526 0.181680
H48   H     H_    0.946982 0.383841 0.749136 0.159504

loop_
_geom_bond_atom_site_label_1
_geom_bond_atom_site_label_2
_ccdc_geom_bond_type
C45   H18   S    
O1    C5    A    
C46   H22   S    
C12   C32   A    
C27   C31   A    
O13   V1    S    
O3    C7    A    
C49   H34   S    
C6    C40   S    
O15   V3    S    
N3    H25   S    
C29   C34   A    
C41   C42   S    
C48   H31   S    
C31   C36   A    
C22   C26   A    
C32   C35   A    
C9    N1    S    
O20   V1    S    
O9    C4    A    
C10   C14   A    
H12   C43   S    
O10   C3    A    
N5    C49   S    
O16   V4    S    
O4    C8    A    
O11   C2    A    
C39   H16   S    
C11   N3    S    
O6    C2    A    
N6    H37   S    
H4    C19   S    
C22   N6    S    
C14   C18   A    
C10   C30   A    
C25   C33   A    
O16   C8    A    
N6    C50   S    
C27   C35   A    
O2    C6    A    
C28   C36   A    
O14   V2    S    
C12   C16   A    
O5    C1    A    
O4    V1    S    
O9    V1    S    
C52   H48   S    
C30   C33   A    
O7    C3    A    
O11   V3    S    
O18   V3    S    
C46   H23   S    
O12   V4    S    
H10   C41   S    
C9    C13   A    
H1    C18   S    
H9    C42   S    
C4    C34   S    
C7    C37   S    
H3    C20   S    
C40   H15   S    
H11   C44   S    
N3    C47   S    
C24   N8    S    
O5    V1    S    
N1    C45   S    
C48   H32   S    
O7    V3    S    
O8    V4    S    
C51   H42   S    
N4    C48   S    
C50   H40   S    
N2    H21   S    
C25   C29   A    
C51   H44   S    
C19   C23   A    
C26   C34   A    
N1    H17   S    
C10   N2    S    
O1    V4    S    
O13   C5    A    
C28   C32   A    
O2    V3    S    
O3    V2    S    
O15   C7    A    
N8    C52   S    
N2    C46   S    
O10   V2    S    
C47   H26   S    
C1    C35   S    
C17   C21   A    
C11   C31   A    
C3    C33   S    
C49   H35   S    
H2    C17   S    
N7    H41   S    
C2    C36   S    
C15   H7    S    
O6    V2    S    
C46   H24   S    
C45   H19   S    
C23   N7    S    
C16   H8    S    
C38   H13   S    
N8    H45   S    
C37   H14   S    
C21   N5    S    
C52   H46   S    
C26   C30   A    
C5    C39   S    
C37   C41   D    
C47   H27   S    
O14   C6    A    
C40   C44   D    
C11   C15   A    
C48   H30   S    
C18   C22   A    
C50   H39   S    
C50   H38   S    
C12   N4    S    
C8    C38   S    
C15   C19   A    
O17   V4    S    
C21   C25   A    
C49   H36   S    
C23   C27   A    
C13   H5    S    
N7    C51   S    
C51   H43   S    
C43   C44   S    
C16   C20   A    
C20   C24   A    
C47   H28   S    
O12   C1    A    
O8    C4    A    
C38   C42   D    
C45   H20   S    
N4    H29   S    
C14   H6    S    
C13   C17   A    
C52   H47   S    
N5    H33   S    
C39   C43   D    
C9    C29   A    
C24   C28   A    
O19   V2    S    
