data_mof_unit_20433.cif
_audit_creation_date              2012-10-26T17:47:00-0400
_audit_creation_method            fapswitch 2.2
_symmetry_space_group_name_H-M    P1
_symmetry_Int_Tables_number       1
_space_group_crystal_system       triclinic
_cell_length_a                    18.716954
_cell_length_b                    18.86715
_cell_length_c                    18.727011
_cell_angle_alpha                 109.448569
_cell_angle_beta                  109.092887
_cell_angle_gamma                 109.419805
_cell_volume                      5119.00388623

loop_
_atom_site_label
_atom_site_type_symbol
_atom_type_description
_atom_site_fract_x
_atom_site_fract_y
_atom_site_fract_z
_atom_type_partial_charge
C1    C     C_R   0.382801 0.501703 0.381314 0.538474
C2    C     C_R   0.319462 0.474003 0.989645 -0.129951
C3    C     C_R   0.118845 0.117673 0.498853 0.541160
C4    C     C_R   0.002740 0.381756 0.883104 0.556875
C5    C     C_R   0.118610 0.498544 0.117769 0.551126
C6    C     C_R   0.998610 0.618568 0.117804 0.539841
C7    C     C_R   0.881199 0.498468 0.879606 0.538075
C8    C     C_R   0.043453 0.741245 0.535164 -0.073396
C9    C     C_R   0.056360 0.755141 0.469921 0.070736
C10   C     C_R   0.983059 0.718821 0.387831 -0.001901
C11   C     C_R   0.900085 0.664269 0.371039 -0.121774
C12   C     C_R   0.888440 0.651138 0.436401 -0.113321
C13   C     C_R   0.336749 0.549661 0.984789 -0.103710
C14   C     C_R   0.789194 0.720543 0.773777 -0.100485
C15   C     C_R   0.959885 0.690348 0.518619 -0.125344
C16   C     C_R   0.989423 0.672452 0.251011 -0.158812
C17   C     C_R   0.995720 0.684610 0.182993 0.001303
C18   C     C_R   0.001086 0.759986 0.179832 -0.034916
C19   C     C_R   0.999837 0.821426 0.245309 -0.163636
C20   C     C_R   0.996281 0.810528 0.314517 -0.004740
C21   C     C_R   0.991072 0.735382 0.317885 -0.057660
C22   C     C_R   0.076692 0.854004 0.130648 -0.095843
C23   C     C_R   0.084235 0.869607 0.064803 -0.106783
C24   C     C_R   0.078152 0.257062 0.751253 -0.118066
C25   C     C_R   0.023470 0.808185 0.977611 -0.099766
C26   C     C_2   0.953012 0.116172 0.928039 0.269118
C27   C     C_2   0.124601 0.283231 0.017142 0.249215
C28   C     C_3   0.561882 0.627769 0.941345 -0.406741
C29   C     C_2   0.145925 0.805417 0.487165 0.230086
C30   C     C_2   0.529777 0.770651 0.193926 0.195652
C31   C     C_R   0.828166 0.813651 0.575418 -0.158526
C32   C     C_R   0.998154 0.183941 0.685432 0.018360
C33   C     C_R   0.919951 0.177749 0.682655 -0.028590
C34   C     C_R   0.924419 0.243045 0.749777 -0.148917
C35   C     C_R   0.004326 0.316413 0.815852 0.026701
C36   C     C_R   0.082321 0.325469 0.814873 0.000136
C37   C     C_R   0.772317 0.123158 0.562783 -0.097104
C38   C     C_R   0.800648 0.797849 0.832342 -0.099174
C39   C     C_R   0.690447 0.055489 0.493631 -0.108598
C40   C     C_R   0.668495 0.969900 0.471500 -0.098654
C41   C     C_R   0.728135 0.952114 0.519032 -0.100346
C42   C     C_R   0.809707 0.019441 0.588790 -0.059886
C43   C     C_R   0.814182 0.809981 0.495858 -0.001829
C44   C     C_R   0.832906 0.105539 0.610408 0.042541
C45   C     C_R   0.735021 0.744384 0.418605 -0.033955
C46   C     C_R   0.675901 0.679352 0.422422 -0.165176
C47   C     C_R   0.689585 0.683922 0.502199 -0.006522
C48   C     C_R   0.764856 0.753667 0.580157 -0.042173
C49   C     C_R   0.954616 0.731572 0.956259 -0.097568
C50   C     C_R   0.632247 0.753124 0.301635 -0.128569
C51   C     C_R   0.607005 0.760444 0.226346 0.035217
C52   C     C_R   0.656649 0.759503 0.184059 -0.085474
C53   C     C_R   0.620954 0.618381 0.501804 0.535837
C54   C     C_R   0.730390 0.751461 0.216835 -0.132178
C55   C     C_R   0.755738 0.745267 0.292424 -0.055956
C56   C     C_R   0.707246 0.746530 0.335779 0.037203
C57   C     C_R   0.438477 0.808481 0.506618 -0.112647
C58   C     C_R   0.372942 0.726987 0.435633 -0.094378
C59   C     C_R   0.394352 0.667813 0.391873 0.041499
C60   C     C_R   0.945743 0.716384 0.021825 -0.056814
C61   C     C_R   0.482205 0.692177 0.419474 -0.061705
C62   C     C_R   0.547454 0.773010 0.491690 -0.100876
C63   C     C_R   0.525777 0.831308 0.534953 -0.107858
C64   C     C_R   0.259535 0.576654 0.249744 -0.152791
C65   C     C_R   0.616661 0.497808 0.618749 0.538867
C66   C     C_R   0.184853 0.497615 0.184698 0.003503
C67   C     C_R   0.173951 0.420751 0.187181 -0.055776
C68   C     C_R   0.242625 0.423775 0.249213 -0.165555
C69   C     C_R   0.317162 0.502981 0.314485 0.003578
C70   C     C_R   0.324033 0.581038 0.317615 -0.034592
C71   C     C_R   0.007794 0.776759 0.109630 0.046213
C72   C     C_R   0.031103 0.331268 0.167350 -0.083636
C73   C     C_R   0.949177 0.258119 0.120689 -0.126761
C74   C     C_R   0.924662 0.190620 0.041646 -0.154816
C75   C     C_R   0.982033 0.194820 0.008206 0.056633
C76   C     C_R   0.064816 0.271208 0.053618 0.065465
C77   C     C_R   0.379464 0.381550 0.498683 0.541018
C78   C     C_R   0.088927 0.339282 0.134329 -0.003962
C79   C     C_R   0.210196 0.517921 0.578204 -0.113131
C80   C     C_R   0.223476 0.448720 0.576093 -0.093163
C81   C     C_R   0.227670 0.396695 0.505451 0.050720
C82   C     C_R   0.271050 0.552584 0.925128 -0.107568
C83   C     C_R   0.217195 0.414153 0.436526 -0.060413
C84   C     C_R   0.203779 0.483350 0.438830 -0.100065
C85   C     C_R   0.200508 0.535310 0.509697 -0.098955
C86   C     C_R   0.177627 0.256233 0.502191 -0.153521
C87   C     C_R   0.185626 0.184034 0.498152 0.003847
C88   C     C_R   0.257453 0.177395 0.494858 -0.033807
C89   C     C_R   0.801198 0.860909 0.808945 -0.091103
C90   C     C_R   0.319210 0.242885 0.494093 -0.159934
C91   C     C_R   0.311318 0.315014 0.497955 -0.002792
C92   C     C_R   0.240159 0.322489 0.502652 -0.033474
C93   C     C_R   0.187772 0.480021 0.870748 -0.076091
C94   C     C_R   0.341960 0.113478 0.554964 -0.088517
C95   C     C_R   0.356789 0.043960 0.546430 -0.090356
C96   C     C_R   0.299534 0.963125 0.471323 -0.082453
C97   C     C_R   0.226782 0.951400 0.405093 -0.114827
C98   C     C_R   0.211060 0.020475 0.413810 -0.071202
C99   C     C_R   0.268868 0.102095 0.488731 0.050255
C100  C     C_R   0.545714 0.557031 0.860563 0.019647
C101  C     C_R   0.789809 0.846425 0.726783 -0.081053
C102  C     C_R   0.615611 0.560506 0.846324 -0.076415
C103  C     C_R   0.601813 0.494346 0.771461 0.037095
C104  C     C_R   0.168890 0.404408 0.876965 0.044983
C105  C     C_R   0.517401 0.424066 0.711170 -0.071410
C106  C     C_R   0.447751 0.420353 0.725388 -0.115483
C107  C     C_R   0.461603 0.486639 0.799513 -0.080196
C108  C     C_R   0.742929 0.497216 0.821417 -0.160996
C109  C     C_R   0.813832 0.496980 0.811569 -0.005905
C110  C     C_R   0.819056 0.495922 0.737830 -0.037101
C111  C     C_R   0.752469 0.494663 0.675040 -0.161510
C112  C     C_R   0.681864 0.495469 0.685093 -0.004715
C113  C     C_R   0.777780 0.768467 0.667319 0.043611
C114  C     C_R   0.676567 0.496667 0.758915 -0.035200
C115  C     C_R   0.236297 0.401318 0.935227 -0.093290
C116  C     C_R   0.944862 0.559937 0.716023 -0.091512
C117  C     C_R   0.009056 0.554485 0.695668 -0.112172
C118  C     C_R   0.018821 0.481444 0.680320 -0.112751
C119  C     C_R   0.964826 0.414019 0.685922 -0.115525
C120  C     C_R   0.901174 0.419615 0.707231 -0.067352
C121  C     C_R   0.890673 0.492599 0.722178 0.053537
C122  C     C_R   0.997643 0.878759 0.381391 0.537760
C123  C     C_R   0.881068 0.879002 0.497739 0.536422
C124  C     C_R   0.998772 0.117645 0.618652 0.537393
C125  C     C_R   0.778623 0.705995 0.691811 -0.060959
Cu1   Cu    Cu3+1 0.499980 0.561800 0.561790 0.974950
Cu2   Cu    Cu3+1 0.500020 0.438200 0.438210 0.921008
Cu3   Cu    Cu3+1 0.061810 0.999960 0.561770 0.997401
Cu4   Cu    Cu3+1 0.938190 0.999990 0.438190 0.948672
Cu5   Cu    Cu3+1 0.061800 0.561770 0.999960 0.957001
Cu6   Cu    Cu3+1 0.938200 0.438190 0.000000 0.930094
H1    H     H_    0.808953 0.808764 0.895750 0.110931
H2    H     H_    0.265749 0.635978 0.249897 0.126957
H3    H     H_    0.235372 0.364712 0.250318 0.122351
H4    H     H_    0.809909 0.920754 0.854276 0.105219
H5    H     H_    0.049204 0.382906 0.229074 0.111529
H6    H     H_    0.904748 0.253301 0.146374 0.116041
H7    H     H_    0.861224 0.133438 0.007480 0.093056
H8    H     H_    0.190131 0.588830 0.511359 0.118080
H9    H     H_    0.207269 0.557973 0.632889 0.103470
H10   H     H_    0.230909 0.435906 0.629585 0.096558
H11   H     H_    0.218827 0.373821 0.380975 0.094597
H12   H     H_    0.638919 0.765768 0.126272 0.146473
H13   H     H_    0.195605 0.496599 0.385615 0.111321
H14   H     H_    0.789489 0.895541 0.709138 0.099995
H15   H     H_    0.122358 0.260989 0.505159 0.124190
H16   H     H_    0.374348 0.237837 0.491053 0.127367
H17   H     H_    0.387685 0.176314 0.612735 0.101541
H18   H     H_    0.413199 0.052996 0.597585 0.112123
H19   H     H_    0.311648 0.909606 0.464345 0.111044
H20   H     H_    0.183107 0.888898 0.346734 0.106821
H21   H     H_    0.155275 0.011054 0.361524 0.092445
H22   H     H_    0.406882 0.482586 0.809533 0.109177
H23   H     H_    0.768824 0.751456 0.184402 0.113890
H24   H     H_    0.680756 0.614581 0.893571 0.096034
H25   H     H_    0.770696 0.646160 0.647357 0.090535
H26   H     H_    0.505833 0.371678 0.653925 0.096226
H27   H     H_    0.382960 0.365647 0.679382 0.116857
H28   H     H_    0.739369 0.497904 0.878299 0.123842
H29   H     H_    0.756053 0.493743 0.618094 0.125116
H30   H     H_    0.937025 0.616298 0.726578 0.094556
H31   H     H_    0.050706 0.606529 0.691024 0.104269
H32   H     H_    0.068133 0.477006 0.663961 0.100785
H33   H     H_    0.972077 0.357249 0.673245 0.108262
H34   H     H_    0.814654 0.742604 0.318684 0.111010
H35   H     H_    0.859029 0.366524 0.710366 0.090784
H36   H     H_    0.950686 0.680154 0.569257 0.108435
H37   H     H_    0.787891 0.671715 0.791832 0.107821
H38   H     H_    0.098116 0.769090 0.598865 0.146839
H39   H     H_    0.844076 0.632165 0.307141 0.107541
H40   H     H_    0.823894 0.610497 0.423261 0.125149
H41   H     H_    0.985302 0.614531 0.253152 0.129532
H42   H     H_    0.003102 0.879109 0.243108 0.121700
H43   H     H_    0.125062 0.901641 0.197918 0.099263
H44   H     H_    0.137626 0.928997 0.081381 0.120043
H45   H     H_    0.576621 0.893993 0.590537 0.112325
H46   H     H_    0.029830 0.819797 0.926589 0.120439
H47   H     H_    0.908699 0.683527 0.888867 0.107572
H48   H     H_    0.887066 0.866342 0.635051 0.141791
H49   H     H_    0.891353 0.657158 0.004224 0.090648
H50   H     H_    0.401380 0.605448 0.026249 0.152477
H51   H     H_    0.284867 0.610765 0.920359 0.121198
H52   H     H_    0.138217 0.482608 0.823474 0.120869
H53   H     H_    0.225312 0.342338 0.937413 0.157524
H54   H     H_    0.370867 0.471241 0.034686 0.112454
H55   H     H_    0.137516 0.262478 0.750683 0.117926
H56   H     H_    0.421542 0.853573 0.540115 0.118724
H57   H     H_    0.864652 0.237622 0.749209 0.120692
H58   H     H_    0.788889 0.189215 0.578637 0.099279
H59   H     H_    0.644255 0.069400 0.456912 0.113643
H60   H     H_    0.615963 0.627606 0.363287 0.119414
H61   H     H_    0.605380 0.917374 0.417575 0.109517
H62   H     H_    0.711409 0.886095 0.501397 0.107278
H63   H     H_    0.854877 0.004502 0.625441 0.103787
H64   H     H_    0.594841 0.754911 0.335191 0.079069
H65   H     H_    0.884402 0.075860 0.879712 0.067281
H66   H     H_    0.193624 0.329106 0.059668 0.089671
H67   H     H_    0.305494 0.709649 0.415347 0.104047
H68   H     H_    0.500802 0.616174 0.943938 0.140562
H69   H     H_    0.608041 0.631260 0.999394 0.124603
H70   H     H_    0.590490 0.690666 0.943268 0.137052
H71   H     H_    0.156864 0.809565 0.435027 0.102729
H72   H     H_    0.491300 0.769348 0.226562 0.101514
H73   H     H_    0.499855 0.648147 0.385683 0.091426
H74   H     H_    0.614834 0.790143 0.514801 0.110604
O1    O     O_R   0.409800 0.552190 0.462000 -0.493849
O2    O     O_R   0.947810 0.357610 0.909840 -0.508496
O3    O     O_R   0.142370 0.552160 0.090140 -0.508005
O4    O     O_R   0.409840 0.447810 0.357640 -0.514962
O5    O     O_R   0.037990 0.447800 0.090170 -0.502967
O6    O     O_R   0.052190 0.642350 0.090120 -0.499453
O7    O     O_R   0.947800 0.537990 0.090150 -0.518485
O8    O     O_R   0.962010 0.552150 0.909780 -0.499814
O9    O     O_R   0.857630 0.447800 0.909820 -0.516603
O10   O     O_R   0.590160 0.642370 0.552180 -0.498310
O11   O     O_R   0.590190 0.537990 0.447820 -0.516701
O12   O     O_R   0.947810 0.909820 0.357620 -0.520891
O13   O     O_R   0.590160 0.552190 0.642360 -0.496915
O14   O     O_R   0.590200 0.447810 0.538000 -0.516805
O15   O     O_R   0.409810 0.462010 0.552180 -0.493703
O16   O     O_R   0.409840 0.357630 0.447820 -0.516010
O17   O     O_R   0.052200 0.909800 0.461980 -0.494150
O18   O     O_2   0.003836 0.092450 0.917587 -0.460290
O19   O     O_2   0.097194 0.244871 0.938937 -0.484730
O20   O     O_2   0.208682 0.842244 0.559654 -0.531034
O21   O     O_2   0.508379 0.781083 0.130872 -0.530634
O22   O     O_R   0.962020 0.909790 0.552160 -0.507476
O23   O     O_R   0.857630 0.909810 0.447800 -0.499105
O24   O     O_R   0.052190 0.090130 0.642340 -0.502493
O25   O     O_R   0.947800 0.090160 0.537980 -0.504906
O26   O     O_R   0.142370 0.090140 0.552150 -0.498467
O27   O     O_R   0.037980 0.090170 0.447800 -0.516591
O28   O     O_R   0.052200 0.461970 0.909800 -0.509741

loop_
_geom_bond_atom_site_label_1
_geom_bond_atom_site_label_2
_ccdc_geom_bond_type
C37   H58   S    
C30   C51   S    
C75   C76   A    
C16   C21   A    
C89   H4    S    
C122  O12   A    
C101  C113  A    
C41   C42   A    
C30   O21   D    
C95   C96   A    
C27   H66   S    
C29   O20   D    
C46   H60   S    
C55   C56   A    
C26   H65   S    
Cu3   Cu4   S    
C112  C114  A    
C97   C98   A    
C120  H35   S    
Cu2   O14   S    
C63   H45   S    
C108  H28   S    
C98   H21   S    
C45   C46   A    
C116  C117  A    
C30   H72   S    
C74   H7    S    
Cu4   O27   S    
C101  H14   S    
C27   O19   D    
Cu1   Cu2   S    
C49   C60   A    
C31   C43   A    
C28   H70   S    
C76   C78   A    
C18   C19   A    
C69   C70   A    
C110  C121  S    
C65   O13   A    
C25   H46   S    
Cu2   O11   S    
C72   H5    S    
C23   H44   S    
C106  C107  A    
C84   H13   S    
C108  C109  A    
Cu5   O8    S    
C24   H55   S    
C34   C35   A    
C4    O28   A    
C108  C114  A    
C24   C32   A    
C42   H63   S    
C2    C13   A    
C32   C124  S    
C118  C119  A    
Cu4   O12   S    
C50   H64   S    
C81   C83   A    
C54   C55   A    
C81   C92   S    
Cu2   O4    S    
C7    O9    A    
C105  H26   S    
C35   C36   A    
C45   C56   S    
Cu1   O15   S    
C68   C69   A    
C100  C107  A    
C40   H61   S    
C41   H62   S    
C26   O18   D    
C95   H18   S    
C64   C70   A    
C9    C10   A    
C85   H8    S    
C62   H74   S    
C20   C122  S    
C124  O24   A    
C90   C91   A    
C125  H25   S    
C9    C29   S    
C47   C53   S    
C28   C100  S    
C66   C67   A    
C4    C35   S    
Cu6   O2    S    
C53   O10   A    
C82   C93   A    
Cu6   O9    S    
C15   H36   S    
Cu5   O6    S    
C102  C103  A    
C67   C78   S    
C42   C44   A    
C86   H15   S    
C93   C104  A    
C22   H43   S    
C52   C54   A    
C57   C63   A    
C12   H40   S    
C25   C49   A    
C10   C21   S    
C94   H17   S    
C37   C39   A    
C118  H32   S    
C59   C61   A    
C28   H68   S    
C116  C121  A    
C1    O4    A    
C67   C68   A    
C52   H12   S    
C47   C48   A    
C116  H30   S    
C103  C114  S    
Cu5   O3    S    
C84   C85   A    
C72   C73   A    
C74   C75   A    
C3    O26   A    
C91   C92   A    
C65   O14   A    
C39   H59   S    
Cu1   O1    S    
C86   C87   A    
C8    C9    A    
C123  O23   A    
C59   C70   S    
C60   C71   A    
C50   C51   A    
C58   C59   A    
C106  H27   S    
C3    C87   S    
Cu4   O25   S    
C1    C69   S    
C7    C109  S    
C6    O7    A    
C31   H48   S    
C64   C66   A    
C3    O27   A    
C111  H29   S    
C19   H42   S    
C65   C112  S    
C62   C63   A    
C5    O5    A    
C14   C38   A    
C104  C115  A    
C2    C115  A    
C16   H41   S    
C83   C84   A    
C38   C89   A    
C12   C15   A    
C11   C12   A    
C96   H19   S    
C96   C97   A    
Cu6   O5    S    
C100  C102  A    
C17   C18   A    
C97   H20   S    
C94   C95   A    
C103  C105  A    
C28   H69   S    
C34   H57   S    
C1    O1    A    
C43   C45   A    
C107  H22   S    
C11   H39   S    
C77   O16   A    
C40   C41   A    
C88   C90   A    
C98   C99   A    
Cu3   O26   S    
C13   H50   S    
C31   C48   A    
C115  H53   S    
C55   H34   S    
Cu3   O17   S    
C27   C76   S    
Cu3   O24   S    
C43   C123  S    
C22   C71   A    
C39   C40   A    
C120  C121  A    
C4    O2    A    
C49   H47   S    
C64   H2    S    
C18   C71   S    
C6    C17   S    
C46   C47   A    
C77   C91   S    
C73   C74   A    
C29   H71   S    
C111  C112  A    
C89   C101  A    
C33   C44   S    
C8    H38   S    
C8    C15   A    
C80   C81   A    
C7    O8    A    
C119  H33   S    
C54   H23   S    
C83   H11   S    
C119  C120  A    
C110  C111  A    
C77   O15   A    
C6    O6    A    
C117  H31   S    
C60   H49   S    
C105  C106  A    
C82   H51   S    
Cu5   O28   S    
C14   C125  A    
C24   C36   A    
C36   C104  S    
C32   C33   A    
C113  C125  A    
C19   C20   A    
C68   H3    S    
Cu5   Cu6   S    
C2    H54   S    
C51   C52   A    
C61   H73   S    
C86   C92   A    
C109  C110  A    
C5    C66   S    
C90   H16   S    
C93   H52   S    
C57   C58   A    
C16   C17   A    
C73   H6    S    
C94   C99   A    
C37   C44   A    
Cu3   O22   S    
C13   C82   A    
Cu4   O23   S    
C79   C85   A    
C33   C34   A    
C79   H9    S    
C23   C25   A    
C61   C62   A    
C50   C56   A    
C53   O11   A    
C57   H56   S    
C88   C99   S    
C58   H67   S    
C10   C11   A    
Cu2   O16   S    
Cu1   O10   S    
C79   C80   A    
C123  O22   A    
C20   C21   A    
C87   C88   A    
C26   C75   S    
C80   H10   S    
C122  O17   A    
C72   C78   A    
Cu6   O7    S    
C22   C23   A    
C117  C118  A    
C14   H37   S    
C102  H24   S    
C124  O25   A    
Cu1   O13   S    
C38   H1    S    
C48   C113  S    
C5    O3    A    
