data_mof_unit_63538.cif
_audit_creation_date              2012-12-10T17:38:08-0500
_audit_creation_method            fapswitch 2.2
_symmetry_space_group_name_H-M    P1
_symmetry_Int_Tables_number       1
_space_group_crystal_system       monoclinic
_cell_length_a                    37.10595
_cell_length_b                    30.15207
_cell_length_c                    21.308355
_cell_angle_alpha                 90.0
_cell_angle_beta                  54.264807
_cell_angle_gamma                 90.0
_cell_volume                      19351.7169281

loop_
_atom_site_label
_atom_site_type_symbol
_atom_type_description
_atom_site_fract_x
_atom_site_fract_y
_atom_site_fract_z
_atom_type_partial_charge
Br1   Br    Br    0.122265 0.548818 0.498719 -0.560045
Br2   Br    Br    0.077303 0.567715 0.122217 -0.457838
Br3   Br    Br    0.422697 0.067715 0.877783 -0.457837
Br4   Br    Br    0.577303 0.067715 0.122217 -0.457837
Br5   Br    Br    0.903476 0.466850 0.797915 -0.520286
Br6   Br    Br    0.096525 0.466854 0.202084 -0.520286
Br7   Br    Br    0.403475 0.966853 0.797915 -0.520286
Br8   Br    Br    0.596525 0.966853 0.202084 -0.520286
Br9   Br    Br    0.877735 0.548818 0.501280 -0.560046
Br10  Br    Br    0.622265 0.048818 0.498720 -0.560046
Br11  Br    Br    0.377735 0.048818 0.501280 -0.560046
Br12  Br    Br    0.416380 0.699085 0.928951 -0.496325
Br13  Br    Br    0.583620 0.699085 0.071049 -0.496326
Br14  Br    Br    0.916380 0.199085 0.928950 -0.496325
Br15  Br    Br    0.083620 0.199085 0.071049 -0.496326
Br16  Br    Br    0.922695 0.567713 0.877785 -0.457836
C1    C     C_R   0.086582 0.499985 0.415078 0.950093
C2    C     C_R   0.657783 0.479582 0.889550 -0.238201
C3    C     C_R   0.976400 0.157601 0.977785 -0.189052
C4    C     C_R   0.500000 0.634837 1.000000 -0.105625
C5    C     C_R   0.000000 0.134837 1.000000 -0.105625
C6    C     C_R   0.475477 0.703849 0.978536 0.057441
C7    C     C_R   0.524522 0.703849 0.021464 0.057441
C8    C     C_R   0.975478 0.203849 0.978536 0.057441
C9    C     C_R   0.024522 0.203848 0.021464 0.057441
C10   C     C_R   0.500000 0.727032 0.000000 -0.021163
C11   C     C_R   0.000000 0.227032 1.000000 -0.021163
C12   C     C_R   0.450690 0.727559 0.958591 0.263153
C13   C     C_R   0.842217 0.979581 0.110450 -0.238201
C14   C     C_R   0.549310 0.727559 0.041409 0.263153
C15   C     C_R   0.950690 0.227559 0.958591 0.263153
C16   C     C_R   0.049310 0.227559 0.041409 0.263154
C17   C     C_R   0.950266 0.273749 0.960403 -0.240968
C18   C     C_R   0.049733 0.273749 0.039597 -0.240967
C19   C     C_R   0.450266 0.773749 0.960403 -0.240967
C20   C     C_R   0.549733 0.773749 0.039596 -0.240967
C21   C     C_R   0.974658 0.296776 0.980853 0.079736
C22   C     C_R   0.025342 0.296776 0.019147 0.079736
C23   C     C_R   0.474658 0.796775 0.980853 0.079736
C24   C     C_R   0.157783 0.979581 0.889550 -0.238201
C25   C     C_R   0.525342 0.796775 0.019147 0.079737
C26   C     C_3   0.993124 0.459470 0.777871 0.118852
C27   C     C_3   0.006877 0.459470 0.222127 0.118852
C28   C     C_3   0.493123 0.959470 0.777872 0.118853
C29   C     C_3   0.506877 0.959470 0.222128 0.118852
C30   C     C_R   0.000000 0.273483 1.000000 0.059754
C31   C     C_R   0.500000 0.773483 0.000000 0.059754
C32   C     C_R   0.974228 0.342909 0.982321 -0.227315
C33   C     C_R   0.025772 0.342909 0.017679 -0.227316
C34   C     C_R   0.474228 0.842909 0.982321 -0.227316
C35   C     C_R   0.365163 0.500015 0.136237 -0.070253
C36   C     C_R   0.525772 0.842909 0.017679 -0.227317
C37   C     C_R   0.000000 0.365629 0.000000 -0.050553
C38   C     C_R   0.500000 0.865629 0.000000 -0.050553
C39   C     C_R   0.508303 0.342199 0.935820 -0.250810
C40   C     C_R   0.491697 0.342199 0.064180 -0.250811
C41   C     C_R   0.008303 0.842199 0.935820 -0.250811
C42   C     C_R   0.991697 0.842199 0.064179 -0.250811
C43   C     C_R   0.500000 0.365123 0.000000 -0.077193
C44   C     C_R   0.000000 0.865123 1.000000 -0.077193
C45   C     C_R   0.491565 0.296184 0.064602 0.120288
C46   C     C_R   0.634836 0.500015 0.863762 -0.070253
C47   C     C_R   0.508435 0.296184 0.935398 0.120288
C48   C     C_R   0.991566 0.796184 0.064602 0.120288
C49   C     C_R   0.008434 0.796184 0.935398 0.120288
C50   C     C_R   0.500000 0.272768 1.000000 0.093627
C51   C     C_R   0.000000 0.772768 1.000000 0.093627
C52   C     C_R   0.482999 0.273452 0.128814 -0.213678
C53   C     C_R   0.517001 0.273452 0.871186 -0.213678
C54   C     C_R   0.983000 0.773452 0.128813 -0.213679
C55   C     C_R   0.017000 0.773452 0.871187 -0.213678
C56   C     C_R   0.982982 0.727544 0.129407 -0.188469
C57   C     C_R   0.865163 0.000015 0.136237 -0.070253
C58   C     C_R   0.017018 0.727544 0.870592 -0.188472
C59   C     C_R   0.482981 0.227544 0.129408 -0.188471
C60   C     C_R   0.517019 0.227544 0.870592 -0.188470
C61   C     C_R   0.991666 0.703102 0.065368 0.091739
C62   C     C_R   0.008334 0.703102 0.934632 0.091737
C63   C     C_R   0.491665 0.203102 0.065368 0.091739
C64   C     C_R   0.508335 0.203102 0.934632 0.091739
C65   C     C_3   0.000701 0.500823 0.810318 -0.154794
C66   C     C_3   0.999299 0.500823 0.189682 -0.154795
C67   C     C_3   0.500701 0.000823 0.810318 -0.154795
C68   C     C_R   0.134836 0.000015 0.863762 -0.070253
C69   C     C_3   0.499299 0.000823 0.189682 -0.154795
C70   C     C_R   0.000000 0.726150 1.000000 -0.019315
C71   C     C_R   0.500000 0.226150 1.000000 -0.019316
C72   C     C_R   0.992439 0.656448 0.064909 0.070807
C73   C     C_R   0.007561 0.656448 0.935091 0.070807
C74   C     C_R   0.492438 0.156448 0.064910 0.070808
C75   C     C_R   0.507562 0.156448 0.935090 0.070809
C76   C     C_R   1.000000 0.634050 0.000000 -0.109151
C77   C     C_R   0.500000 0.134050 0.000000 -0.109152
C78   C     C_3   0.040488 0.514709 0.729283 -0.191470
C79   C     C_R   0.342363 0.520238 0.208905 -0.240761
C80   C     C_3   0.959512 0.514708 0.270717 -0.191472
C81   C     C_3   0.540488 0.014708 0.729283 -0.191471
C82   C     C_3   0.459511 0.014708 0.270717 -0.191472
C83   C     C_3   0.008274 0.541906 0.720428 -0.208895
C84   C     C_3   0.991724 0.541905 0.279574 -0.208894
C85   C     C_3   0.508275 0.041905 0.720426 -0.208894
C86   C     C_3   0.491725 0.041905 0.279573 -0.208893
C87   C     C_3   0.968789 0.527741 0.801962 0.253380
C88   C     C_3   0.031210 0.527743 0.198039 0.253379
C89   C     C_3   0.468790 0.027742 0.801961 0.253378
C90   C     C_R   0.657637 0.520237 0.791095 -0.240761
C91   C     C_3   0.531210 0.027742 0.198038 0.253379
C92   C     C_3   0.961001 0.486302 0.769338 0.256122
C93   C     C_3   0.038999 0.486304 0.230662 0.256124
C94   C     C_3   0.461001 0.986304 0.769338 0.256122
C95   C     C_3   0.538999 0.986304 0.230662 0.256123
C96   C     C_3   0.984948 0.413345 0.813786 -0.408016
C97   C     C_3   0.984948 0.377558 0.763232 -0.772911
C98   C     C_3   0.015055 0.413345 0.186211 -0.408016
C99   C     C_3   0.015057 0.377559 0.236764 -0.772913
C100  C     C_3   0.484946 0.913345 0.813789 -0.408016
C101  C     C_R   0.842363 0.020237 0.208905 -0.240761
C102  C     C_3   0.484944 0.877558 0.763236 -0.772912
C103  C     C_3   0.515054 0.913345 0.186211 -0.408015
C104  C     C_3   0.515056 0.877558 0.236764 -0.772912
C105  C     C_3   0.985987 0.630312 0.132431 -0.382879
C106  C     C_3   0.936862 0.625213 0.198618 -0.832652
C107  C     C_3   0.014011 0.630312 0.867570 -0.382881
C108  C     C_3   0.063136 0.625212 0.801382 -0.832652
C109  C     C_3   0.485986 0.130312 0.132431 -0.382879
C110  C     C_3   0.436861 0.125213 0.198618 -0.832651
C111  C     C_3   0.514014 0.130312 0.867569 -0.382881
C112  C     C_R   0.913417 0.499985 0.584922 0.950093
C113  C     C_R   0.157637 0.020237 0.791095 -0.240761
C114  C     C_3   0.563139 0.125213 0.801382 -0.832650
C115  C     C_R   0.296215 0.520614 0.256180 0.121515
C116  C     C_R   0.703785 0.520614 0.743820 0.121514
C117  C     C_R   0.796215 0.020614 0.256180 0.121514
C118  C     C_R   0.203785 0.020614 0.743820 0.121514
C119  C     C_R   0.272883 0.499701 0.230778 0.082193
C120  C     C_R   0.727117 0.499701 0.769222 0.082192
C121  C     C_R   0.772883 0.999701 0.230778 0.082192
C122  C     C_R   0.227117 0.999701 0.769222 0.082192
C123  C     C_R   0.296086 0.478817 0.157699 0.115971
C124  C     C_R   0.586583 0.999985 0.415078 0.950093
C125  C     C_R   0.703913 0.478817 0.842301 0.115972
C126  C     C_R   0.796086 0.978817 0.157699 0.115971
C127  C     C_R   0.203914 0.978817 0.842301 0.115971
C128  C     C_R   0.273124 0.541582 0.328203 -0.222133
C129  C     C_R   0.726876 0.541582 0.671796 -0.222133
C130  C     C_R   0.773124 0.041582 0.328203 -0.222133
C131  C     C_R   0.226876 0.041582 0.671797 -0.222132
C132  C     C_R   0.226935 0.542115 0.375162 -0.150416
C133  C     C_R   0.773065 0.542115 0.624838 -0.150415
C134  C     C_R   0.726935 0.042115 0.375162 -0.150416
C135  C     C_R   0.413417 0.999985 0.584922 0.950094
C136  C     C_R   0.273065 0.042115 0.624838 -0.150416
C137  C     C_R   0.202981 0.521315 0.351059 0.064551
C138  C     C_R   0.797019 0.521315 0.648940 0.064551
C139  C     C_R   0.702981 0.021315 0.351059 0.064551
C140  C     C_R   0.297019 0.021315 0.648941 0.064551
C141  C     C_R   0.000228 0.500006 0.621307 0.953078
C142  C     C_R   0.999772 0.500006 0.378693 0.953079
C143  C     C_R   0.500228 0.000006 0.621307 0.953079
C144  C     C_R   0.499772 0.000006 0.378693 0.953078
C145  C     C_R   0.226393 0.499643 0.278339 0.013657
C146  C     C_3   0.000517 0.500138 0.688512 -0.113365
C147  C     C_R   0.773607 0.499643 0.721661 0.013657
C148  C     C_R   0.726393 0.999643 0.278339 0.013657
C149  C     C_R   0.273607 0.999643 0.721661 0.013657
C150  C     C_R   0.203437 0.477720 0.253007 0.112212
C151  C     C_R   0.796563 0.477720 0.746993 0.112212
C152  C     C_R   0.703437 0.977720 0.253007 0.112212
C153  C     C_R   0.296563 0.977720 0.746993 0.112212
C154  C     C_R   0.226703 0.456663 0.180847 -0.155802
C155  C     C_R   0.773296 0.456663 0.819153 -0.155802
C156  C     C_R   0.726703 0.956663 0.180847 -0.155802
C157  C     C_3   0.999483 0.500138 0.311488 -0.113365
C158  C     C_R   0.273296 0.956663 0.819153 -0.155803
C159  C     C_R   0.272859 0.457428 0.133174 -0.204565
C160  C     C_R   0.727141 0.457429 0.866826 -0.204565
C161  C     C_R   0.772859 0.957428 0.133174 -0.204565
C162  C     C_R   0.227141 0.957428 0.866826 -0.204565
C163  C     C_R   0.156339 0.521534 0.397331 0.190467
C164  C     C_R   0.843661 0.521534 0.602669 0.190467
C165  C     C_R   0.656339 0.021534 0.397331 0.190467
C166  C     C_R   0.343661 0.021534 0.602669 0.190467
C167  C     C_R   0.134275 0.499872 0.370328 -0.117634
C168  C     C_3   0.500517 0.000138 0.688512 -0.113365
C169  C     C_R   0.865725 0.499872 0.629672 -0.117634
C170  C     C_R   0.634275 0.999872 0.370328 -0.117633
C171  C     C_R   0.365725 0.999872 0.629672 -0.117634
C172  C     C_R   0.157490 0.477422 0.300000 -0.257281
C173  C     C_R   0.842510 0.477422 0.700000 -0.257282
C174  C     C_R   0.657490 0.977422 0.300000 -0.257282
C175  C     C_R   0.342510 0.977422 0.700000 -0.257281
C176  C     C_R   0.000000 0.413349 0.000000 0.850982
C177  C     C_R   0.500000 0.913349 0.000000 0.850982
C178  C     C_R   0.000242 0.500656 0.878236 0.887015
C179  C     C_3   0.499483 0.000138 0.311488 -0.113365
C180  C     C_R   0.999758 0.500656 0.121764 0.887015
C181  C     C_R   0.500242 0.000656 0.878236 0.887015
C182  C     C_R   0.499758 0.000656 0.121764 0.887015
C183  C     C_R   0.000000 0.586451 1.000000 0.887931
C184  C     C_R   0.500000 0.086451 0.000000 0.887931
C185  C     C_3   0.032940 0.472984 0.695917 -0.159993
C186  C     C_3   0.967061 0.472983 0.304082 -0.159994
C187  C     C_3   0.532939 0.972983 0.695917 -0.159994
C188  C     C_3   0.467061 0.972983 0.304082 -0.159993
C189  C     C_R   0.500000 0.413077 0.000000 0.894567
C190  C     C_R   0.342217 0.479581 0.110450 -0.238201
C191  C     C_R   0.000000 0.913077 1.000000 0.894567
C192  C     C_R   0.413127 0.500032 0.087289 0.893647
C193  C     C_R   0.586873 0.500032 0.912711 0.893646
C194  C     C_R   0.913127 0.000032 0.087289 0.893647
C195  C     C_R   0.086873 0.000032 0.912711 0.893646
C196  C     C_R   0.500000 0.586845 0.000000 0.890023
C197  C     C_R   0.000000 0.086845 0.000000 0.890023
C198  C     C_R   0.523600 0.657601 0.022215 -0.189052
C199  C     C_R   0.476400 0.657601 0.977785 -0.189051
C200  C     C_R   0.023600 0.157601 0.022215 -0.189053
H1    H     H_    0.210481 0.558976 0.430131 0.198808
H2    H     H_    0.790824 0.439887 0.838879 0.178908
H3    H     H_    0.579789 0.157953 0.781290 0.260349
H4    H     H_    0.580147 0.105003 0.820389 0.278647
H5    H     H_    0.566461 0.108187 0.752065 0.251300
H6    H     H_    0.499252 0.096738 0.885245 0.218408
H7    H     H_    0.495735 0.145976 0.846775 0.223363
H8    H     H_    0.709175 0.939886 0.161121 0.178907
H9    H     H_    0.290824 0.939886 0.838879 0.178907
H10   H     H_    0.290381 0.441211 0.077317 0.158897
H11   H     H_    0.709619 0.441212 0.922683 0.158898
H12   H     H_    0.790381 0.941211 0.077317 0.158897
H13   H     H_    0.209619 0.941211 0.922683 0.158897
H14   H     H_    0.541779 0.638778 0.038499 0.200113
H15   H     H_    0.458221 0.638778 0.961500 0.200113
H16   H     H_    0.041779 0.138778 0.038499 0.200113
H17   H     H_    0.789519 0.558976 0.569868 0.198808
H18   H     H_    0.958221 0.138778 0.961500 0.200113
H19   H     H_    0.930987 0.291700 0.945361 0.183578
H20   H     H_    0.069013 0.291700 0.054639 0.183577
H21   H     H_    0.430986 0.791700 0.945361 0.183577
H22   H     H_    0.569013 0.791700 0.054639 0.183577
H23   H     H_    0.954638 0.361233 0.968288 0.145117
H24   H     H_    0.045362 0.361233 0.031712 0.145117
H25   H     H_    0.454638 0.861233 0.968288 0.145117
H26   H     H_    0.545362 0.861233 0.031711 0.145117
H27   H     H_    0.514960 0.360119 0.885923 0.166778
H28   H     H_    0.710481 0.058976 0.430131 0.198808
H29   H     H_    0.485040 0.360119 0.114077 0.166779
H30   H     H_    0.014959 0.860119 0.885924 0.166778
H31   H     H_    0.985041 0.860119 0.114076 0.166779
H32   H     H_    0.059165 0.450696 0.650659 0.168320
H33   H     H_    0.940837 0.450694 0.349339 0.168321
H34   H     H_    0.559164 0.950695 0.650661 0.168320
H35   H     H_    0.440836 0.950695 0.349339 0.168320
H36   H     H_    0.476253 0.291222 0.178869 0.154106
H37   H     H_    0.523747 0.291222 0.821130 0.154106
H38   H     H_    0.976255 0.791222 0.178868 0.154106
H39   H     H_    0.289519 0.058976 0.569869 0.198808
H40   H     H_    0.023745 0.791222 0.821131 0.154106
H41   H     H_    0.975746 0.711976 0.181191 0.164956
H42   H     H_    0.024255 0.711976 0.818809 0.164958
H43   H     H_    0.475744 0.211976 0.181192 0.164957
H44   H     H_    0.524256 0.211976 0.818808 0.164957
H45   H     H_    0.073005 0.526306 0.714415 0.188806
H46   H     H_    0.926994 0.526304 0.285586 0.188807
H47   H     H_    0.573006 0.026304 0.714414 0.188807
H48   H     H_    0.426994 0.026304 0.285586 0.188806
H49   H     H_    0.014450 0.575798 0.695746 0.199527
H50   H     H_    0.139544 0.460320 0.281436 0.200901
H51   H     H_    0.985547 0.575797 0.304257 0.199529
H52   H     H_    0.514452 0.075797 0.695743 0.199528
H53   H     H_    0.485547 0.075797 0.304257 0.199529
H54   H     H_    0.360310 0.463632 0.054249 0.160618
H55   H     H_    0.639690 0.463633 0.945752 0.160619
H56   H     H_    0.860310 0.963633 0.054248 0.160618
H57   H     H_    0.139690 0.963633 0.945751 0.160618
H58   H     H_    0.360580 0.536246 0.228008 0.161092
H59   H     H_    0.639420 0.536246 0.771992 0.161092
H60   H     H_    0.860580 0.036246 0.228008 0.161092
H61   H     H_    0.860456 0.460321 0.718565 0.200902
H62   H     H_    0.139420 0.036246 0.771992 0.161091
H63   H     H_    0.290814 0.557783 0.348115 0.157498
H64   H     H_    0.709186 0.557782 0.651884 0.157498
H65   H     H_    0.790814 0.057782 0.348115 0.157498
H66   H     H_    0.209185 0.057782 0.651885 0.157498
H67   H     H_    0.958752 0.384188 0.754491 0.290082
H68   H     H_    0.017731 0.376225 0.706129 0.251038
H69   H     H_    0.978360 0.344801 0.791861 0.249124
H70   H     H_    0.011421 0.405788 0.821563 0.200319
H71   H     H_    0.952494 0.413253 0.871539 0.228383
H72   H     H_    0.639544 0.960320 0.281435 0.200901
H73   H     H_    0.041253 0.384190 0.245504 0.290082
H74   H     H_    0.982274 0.376224 0.293867 0.251038
H75   H     H_    0.021646 0.344802 0.208133 0.249124
H76   H     H_    0.988582 0.405788 0.178434 0.200317
H77   H     H_    0.047509 0.413255 0.128458 0.228384
H78   H     H_    0.458748 0.884190 0.754495 0.290082
H79   H     H_    0.517727 0.876224 0.706133 0.251038
H80   H     H_    0.478355 0.844802 0.791866 0.249124
H81   H     H_    0.511419 0.905788 0.821566 0.200318
H82   H     H_    0.452491 0.913255 0.871541 0.228384
H83   H     H_    0.360456 0.960320 0.718565 0.200901
H84   H     H_    0.541252 0.884190 0.245505 0.290082
H85   H     H_    0.482273 0.876224 0.293867 0.251038
H86   H     H_    0.521645 0.844802 0.208133 0.249124
H87   H     H_    0.488581 0.905788 0.178434 0.200317
H88   H     H_    0.547509 0.913255 0.128459 0.228384
H89   H     H_    0.933540 0.608186 0.247935 0.251300
H90   H     H_    0.920212 0.657953 0.218710 0.260349
H91   H     H_    0.919853 0.605004 0.179611 0.278647
H92   H     H_    0.000749 0.596738 0.114754 0.218408
H93   H     H_    0.004266 0.645976 0.153224 0.223364
H94   H     H_    0.209175 0.439886 0.161122 0.178906
H95   H     H_    0.079788 0.657952 0.781293 0.260351
H96   H     H_    0.080144 0.604999 0.820387 0.278645
H97   H     H_    0.066457 0.608189 0.752063 0.251300
H98   H     H_    0.999249 0.596738 0.885248 0.218408
H99   H     H_    0.995732 0.645976 0.846778 0.223363
H100  H     H_    0.420211 0.157953 0.218710 0.260349
H101  H     H_    0.419853 0.105003 0.179611 0.278646
H102  H     H_    0.433539 0.108187 0.247935 0.251300
H103  H     H_    0.500748 0.096738 0.114755 0.218407
H104  H     H_    0.504265 0.145976 0.153225 0.223363
O1    O     O_R   0.066070 0.537300 0.433950 -0.583482
O2    O     O_R   0.566110 0.499970 0.986370 -0.618897
O3    O     O_R   0.933890 0.999970 0.013630 -0.618897
O4    O     O_R   0.066110 0.999970 0.986370 -0.618897
O5    O     O_R   0.500060 0.566050 0.052450 -0.615939
O6    O     O_R   0.499940 0.566050 0.947550 -0.615938
O7    O     O_R   0.000060 0.066050 0.052450 -0.615939
O8    O     O_R   0.999940 0.066050 0.947550 -0.615938
O9    O     O_R   0.066060 0.462690 0.433950 -0.626844
O10   O     O_R   0.933940 0.462690 0.566050 -0.626843
O11   O     O_R   0.566060 0.962690 0.433950 -0.626844
O12   O     O_R   0.933930 0.537300 0.566050 -0.583483
O13   O     O_R   0.433940 0.962690 0.566050 -0.626844
O14   O     O_R   0.999990 0.537300 0.593030 -0.605892
O15   O     O_R   0.000010 0.537300 0.406970 -0.605890
O16   O     O_R   0.499990 0.037300 0.593030 -0.605891
O17   O     O_R   0.500010 0.037300 0.406970 -0.605891
O18   O     O_R   0.999980 0.462680 0.593030 -0.623907
O19   O     O_R   0.000020 0.462680 0.406970 -0.623908
O20   O     O_R   0.499980 0.962680 0.593030 -0.623908
O21   O     O_R   0.500020 0.962680 0.406970 -0.623908
O22   O     O_R   0.962690 0.433950 0.037260 -0.618984
O23   O     O_R   0.566070 0.037300 0.433950 -0.583482
O24   O     O_R   0.037310 0.433950 0.962740 -0.618985
O25   O     O_R   0.462690 0.933950 0.037260 -0.618984
O26   O     O_R   0.537310 0.933950 0.962740 -0.618985
O27   O     O_R   0.962690 0.500030 0.944250 -0.587772
O28   O     O_R   0.037310 0.500030 0.055750 -0.587773
O29   O     O_R   0.462690 0.000030 0.944250 -0.587773
O30   O     O_R   0.537310 0.000030 0.055750 -0.587773
O31   O     O_R   0.037300 0.500060 0.869680 -0.629707
O32   O     O_R   0.962700 0.500060 0.130320 -0.629705
O33   O     O_R   0.537300 0.000060 0.869680 -0.629706
O34   O     O_R   0.433930 0.037300 0.566050 -0.583482
O35   O     O_R   0.462700 0.000060 0.130320 -0.629705
O36   O     O_R   0.962680 0.566120 0.037310 -0.612035
O37   O     O_R   0.037320 0.566120 0.962690 -0.612034
O38   O     O_R   0.462680 0.066120 0.037310 -0.612034
O39   O     O_R   0.537320 0.066120 0.962690 -0.612034
O40   O     O_R   0.499970 0.433870 0.052530 -0.629230
O41   O     O_R   0.500030 0.433870 0.947470 -0.629229
O42   O     O_R   0.999970 0.933870 0.052530 -0.629229
O43   O     O_R   0.000030 0.933870 0.947470 -0.629230
O44   O     O_R   0.433940 0.499980 0.118610 -0.625357
O45   O     O_R   0.566060 0.499980 0.881390 -0.625357
O46   O     O_R   0.933940 0.999980 0.118610 -0.625357
O47   O     O_R   0.066060 0.999980 0.881390 -0.625357
O48   O     O_R   0.433890 0.499970 0.013630 -0.618897
Zn1   Zn    Zn3+2 1.000000 0.549810 0.500000 1.061844
Zn2   Zn    Zn3+2 0.499980 0.499960 0.929910 0.984557
Zn3   Zn    Zn3+2 0.000020 0.999960 0.070090 0.984557
Zn4   Zn    Zn3+2 0.999980 0.999960 0.929910 0.984557
Zn5   Zn    Zn3+2 0.500000 0.049810 0.500000 1.061845
Zn6   Zn    Zn3+2 1.000000 0.450170 0.500000 1.000987
Zn7   Zn    Zn3+2 0.500000 0.950170 0.500000 1.000986
Zn8   Zn    Zn3+2 0.950180 0.500030 0.049790 1.006987
Zn9   Zn    Zn3+2 0.049820 0.500030 0.950210 1.006985
Zn10  Zn    Zn3+2 0.450180 0.000030 0.049790 1.006986
Zn11  Zn    Zn3+2 0.549820 0.000030 0.950210 1.006986
Zn12  Zn    Zn3+2 0.500020 0.499960 0.070090 0.984557

loop_
_geom_bond_atom_site_label_1
_geom_bond_atom_site_label_2
_ccdc_geom_bond_type
C156  C161  A    
C83   C87   S    
C89   C94   S    
C117  C121  A    
C178  O27   A    
C184  O39   A    
C39   C43   A    
C197  O8    A    
C8    C11   A    
C101  C117  A    
C110  H100  S    
C98   C99   S    
C35   C190  A    
C141  O18   A    
Br3   C89   S    
C52   C59   A    
C119  C123  A    
C60   H44   S    
C194  O3    A    
C75   C111  S    
O34   Zn5   S    
C122  C149  A    
C150  C172  A    
O19   Zn6   S    
C42   H31   S    
C122  C127  A    
C101  H60   S    
C93   C157  S    
C126  C161  A    
C42   C44   A    
C84   C88   S    
C152  C174  A    
O26   Zn11  S    
C124  O11   A    
C104  H84   S    
C63   C74   A    
C97   H69   S    
C130  C134  A    
C136  C140  A    
C61   C72   A    
C106  H89   S    
C153  C158  A    
O47   Zn4   S    
C67   C181  S    
C76   C183  S    
C132  H1    S    
C163  C167  A    
O30   Zn11  S    
O31   Zn9   S    
C177  O25   A    
C144  O17   A    
C63   C71   A    
C62   C73   A    
C149  C153  A    
Br4   C91   S    
C112  C169  S    
C4    C199  A    
O41   Zn2   S    
C148  C152  A    
C77   C184  S    
C66   C80   S    
O29   Zn10  S    
Br8   C95   S    
C151  C155  A    
C141  C146  S    
O5    Zn12  S    
C82   C86   S    
O37   Zn9   S    
C67   C89   S    
C137  C145  A    
C16   C18   A    
C170  C174  A    
C90   C116  A    
C7    C14   A    
C120  C125  A    
C123  C190  A    
C136  H39   S    
C83   C146  S    
C57   C194  S    
Br2   C88   S    
C107  H98   S    
C5    C200  A    
O7    Zn3   S    
C78   C185  S    
C114  H4    S    
C130  H65   S    
C10   C31   A    
C11   C30   A    
C190  H54   S    
O2    Zn12  S    
C132  C137  A    
C104  H85   S    
C32   H23   S    
C74   C77   A    
C23   C31   A    
C80   H46   S    
O32   Zn8   S    
C114  H5    S    
C90   H59   S    
C191  O42   A    
C29   C95   S    
C44   C191  S    
C80   C186  S    
C46   C90   A    
C98   H76   S    
C40   C43   A    
C14   C20   A    
C167  C172  A    
C135  O13   A    
C161  H12   S    
C92   C146  S    
C33   C37   A    
C142  O15   A    
C100  C102  S    
C4    C196  S    
C108  H97   S    
C37   C176  S    
C155  H2    S    
C81   H47   S    
O4    Zn3   S    
C6    C10   A    
C82   H48   S    
C69   C182  S    
C182  O35   A    
C28   C100  S    
C98   H77   S    
O33   Zn11  S    
C172  H50   S    
C66   C88   S    
O27   Zn8   S    
O38   Zn10  S    
C59   C63   A    
O46   Zn3   S    
C35   C79   A    
C121  C126  A    
C86   H53   S    
C192  O44   A    
C67   C81   S    
C19   H21   S    
Br14  C15   S    
C28   C67   S    
C54   H38   S    
C68   C195  S    
C107  C108  S    
O6    Zn2   S    
C79   H58   S    
C184  O38   A    
C116  C129  A    
C102  H80   S    
C180  O28   A    
C158  H9    S    
C109  H104  S    
O20   Zn7   S    
C127  C162  A    
O17   Zn5   S    
C53   C60   A    
C26   C96   S    
C47   C53   A    
C12   C19   A    
C178  O31   A    
C181  O33   A    
O36   Zn8   S    
C103  H88   S    
C52   H36   S    
C1    O1    A    
C56   H41   S    
C6    C199  A    
C119  C145  A    
C26   C65   S    
O44   Zn12  S    
C182  O30   A    
C58   H42   S    
C42   C48   A    
C32   C37   A    
C151  C173  A    
C138  C147  A    
C86   C91   S    
O11   Zn7   S    
C142  O19   A    
C131  H66   S    
C140  C166  A    
C2    C46   A    
C133  H17   S    
C73   C76   A    
C4    C198  A    
C28   C187  S    
C147  C151  A    
C116  C120  A    
Br5   C92   S    
C99   H74   S    
C25   C31   A    
C113  H62   S    
C85   H52   S    
C59   H43   S    
C100  H81   S    
C150  C154  A    
C134  C139  A    
C107  H99   S    
Br6   C93   S    
C174  H72   S    
C153  C175  A    
C3    H18   S    
C65   C87   S    
O16   Zn5   S    
C91   C95   S    
C197  O7    A    
C2    C125  A    
C143  O20   A    
C60   C64   A    
C41   H30   S    
O13   Zn7   S    
Br15  C16   S    
C110  H101  S    
C165  C170  A    
C139  C165  A    
C169  C173  A    
C196  O5    A    
C155  C160  A    
Br7   C94   S    
O42   Zn3   S    
C124  C170  S    
C191  O43   A    
O28   Zn9   S    
C65   C78   S    
C29   C103  S    
C24   H57   S    
C80   C84   S    
C193  O45   A    
C128  H63   S    
C5    C197  S    
C22   C30   A    
C97   H68   S    
C186  H33   S    
C105  H93   S    
C24   C127  A    
C106  H90   S    
O18   Zn6   S    
C112  O10   A    
C27   C93   S    
C120  C147  A    
C95   C179  S    
C137  C163  A    
C138  C164  A    
C183  O36   A    
C24   C68   A    
C34   H25   S    
O39   Zn11  S    
C86   C179  S    
O48   Zn2   S    
C22   C33   A    
C135  C171  S    
C118  C131  A    
C34   C38   A    
C39   H27   S    
Br12  C12   S    
C27   C98   S    
O25   Zn10  S    
C135  O34   A    
C7    C10   A    
C189  O40   A    
C111  H6    S    
C188  H35   S    
C49   C51   A    
C125  C160  A    
C96   H71   S    
C143  C168  S    
C158  C162  A    
C66   C180  S    
C17   H19   S    
C43   C189  S    
C134  H28   S    
C47   C50   A    
C94   C168  S    
C143  O16   A    
C168  C187  S    
C6    C12   A    
C79   C115  A    
C20   C25   A    
C180  O32   A    
Br11  C166  S    
O1    Zn1   S    
C81   C187  S    
C104  H86   S    
C102  H78   S    
C154  C159  A    
C20   H22   S    
O10   Zn6   S    
C41   C44   A    
C179  C188  S    
C17   C21   A    
C157  C186  S    
C19   C23   A    
C133  C138  A    
C156  H8    S    
C36   H26   S    
C75   C77   A    
Br13  C14   S    
C142  C157  S    
C175  H83   S    
C27   C186  S    
C159  H10   S    
C105  C106  S    
C144  C179  S    
C176  O22   A    
O15   Zn1   S    
C99   H75   S    
C177  O26   A    
O14   Zn1   S    
C198  H14   S    
C40   H29   S    
C195  O4    A    
C51   C70   A    
O9    Zn6   S    
C3    C5    A    
C41   C49   A    
C72   C105  S    
C55   C58   A    
C103  C104  S    
O40   Zn12  S    
C64   C75   A    
C3    C8    A    
C8    C15   A    
C109  H103  S    
C1    O9    A    
C140  C149  A    
C29   C188  S    
C74   C109  S    
C108  H96   S    
C96   C97   S    
C114  H3    S    
C195  O47   A    
O43   Zn4   S    
C113  C118  A    
C152  C156  A    
C78   H45   S    
C112  O12   A    
Br10  C165  S    
C40   C45   A    
C117  C130  A    
C124  O23   A    
C103  H87   S    
C21   C30   A    
C129  C133  A    
C115  C128  A    
C7    C198  A    
C189  O41   A    
C123  C159  A    
C128  C132  A    
C18   H20   S    
C53   H37   S    
C154  H94   S    
C108  H95   S    
C199  H15   S    
C144  O21   A    
C82   C188  S    
O23   Zn5   S    
C64   C71   A    
C115  C119  A    
C88   C93   S    
C13   C57   A    
C187  H34   S    
C68   C113  A    
O21   Zn7   S    
C1    C167  S    
C69   C82   S    
Br16  C87   S    
C65   C178  S    
C45   C50   A    
C176  O24   A    
C72   C76   A    
C99   H73   S    
C15   C17   A    
C87   C92   S    
C48   C54   A    
C25   C36   A    
C58   C62   A    
C145  C150  A    
C111  H7    S    
C62   C70   A    
C9    C16   A    
C193  O2    A    
C100  H82   S    
C38   C177  S    
C96   H70   S    
C33   H24   S    
C194  O46   A    
C2    H55   S    
C36   C38   A    
C181  O29   A    
C85   C89   S    
C57   C101  A    
C146  C185  S    
C48   C51   A    
C102  H79   S    
C162  H13   S    
C50   C71   A    
C110  H102  S    
C35   C192  S    
C73   C107  S    
C196  O6    A    
C49   C55   A    
C173  H61   S    
C141  O14   A    
C39   C47   A    
C29   C69   S    
O3    Zn4   S    
C56   C61   A    
O12   Zn1   S    
C21   C32   A    
C85   C168  S    
Br9   C164  S    
O45   Zn2   S    
C97   H67   S    
O35   Zn10  S    
C61   C70   A    
C105  H92   S    
C106  H91   S    
C129  H64   S    
C160  H11   S    
C83   H49   S    
C18   C22   A    
C13   H56   S    
C171  C175  A    
C9    C200  A    
O24   Zn9   S    
C183  O37   A    
C118  C122  A    
C121  C148  A    
C54   C56   A    
C84   H51   S    
C139  C148  A    
C9    C11   A    
O8    Zn4   S    
C192  O48   A    
C131  C136  A    
C111  C114  S    
Br1   C163  S    
C45   C52   A    
C109  C110  S    
C78   C83   S    
C13   C126  A    
C200  H16   S    
C46   C193  S    
C166  C171  A    
C55   H40   S    
C164  C169  A    
C23   C34   A    
C84   C157  S    
C185  H32   S    
C27   C66   S    
C26   C185  S    
O22   Zn8   S    
C69   C91   S    
C26   C92   S    
C81   C85   S    
C28   C94   S    
