data_mof_unit_20024.cif
_audit_creation_date              2012-12-11T14:49:54-0500
_audit_creation_method            fapswitch 2.2
_symmetry_space_group_name_H-M    P1
_symmetry_Int_Tables_number       1
_space_group_crystal_system       triclinic
_cell_length_a                    16.886232
_cell_length_b                    16.741193
_cell_length_c                    19.451485
_cell_angle_alpha                 117.995785
_cell_angle_beta                  62.510334
_cell_angle_gamma                 100.838622
_cell_volume                      4304.30697912

loop_
_atom_site_label
_atom_site_type_symbol
_atom_type_description
_atom_site_fract_x
_atom_site_fract_y
_atom_site_fract_z
_atom_type_partial_charge
C1    C     C_R   0.023795 0.761731 0.030299 -0.109631
C2    C     C_R   0.227000 0.592129 0.841176 0.482013
C3    C     C_R   0.193244 0.445780 0.047690 -0.197596
C4    C     C_R   0.748267 0.479300 0.173149 -0.120020
C5    C     C_R   0.050796 0.326561 0.752739 -0.122706
C6    C     C_R   0.276778 0.467315 0.999371 -0.002670
C7    C     C_R   0.045132 0.240294 0.747795 0.087548
C8    C     C_R   0.226830 0.568707 0.762878 -0.011847
C9    C     C_R   0.988830 0.230868 0.041624 0.078567
C10   C     C_R   0.084768 0.072037 0.670695 0.496197
C11   C     C_R   0.095729 0.158129 0.670655 -0.075315
C12   C     C_R   0.742809 0.539691 0.254794 0.071851
C13   C     C_R   0.146701 0.163700 0.592164 -0.264218
C14   C     C_R   0.163384 0.087182 0.514631 0.092599
C15   C     C_R   0.133457 0.003367 0.515508 -0.027381
C16   C     C_R   0.820365 0.498012 0.904160 -0.045319
C17   C     C_R   0.098991 0.994357 0.592841 -0.014761
C18   C     C_R   0.199081 0.095916 0.437874 -0.355253
C19   C     C_R   0.191927 0.025808 0.364429 0.566840
C20   C     C_R   0.156847 0.943089 0.366404 -0.040868
C21   C     C_R   0.131333 0.930692 0.440847 0.015380
C22   C     C_R   0.095656 0.848433 0.443429 0.179398
C23   C     C_R   0.748503 0.444606 0.924969 0.044083
C24   C     C_R   0.070881 0.836632 0.517366 -0.212256
C25   C     C_R   0.072541 0.909137 0.591700 -0.125668
C26   C     C_R   0.139305 0.875553 0.298405 -0.199389
C27   C     C_R   0.094767 0.797924 0.304801 0.100243
C28   C     C_R   0.011865 0.660358 0.241020 -0.136656
C29   C     C_R   0.078285 0.782246 0.375025 -0.262853
C30   C     C_R   0.373166 0.627007 0.700416 -0.238773
C31   C     C_R   0.289723 0.601792 0.699025 0.026053
C32   C     C_R   0.273825 0.600682 0.633058 0.398831
C33   C     C_R   0.346909 0.607448 0.561079 -0.014406
C34   C     C_R   0.059477 0.737471 0.241827 0.063747
C35   C     C_R   0.431596 0.627529 0.562223 -0.017086
C36   C     C_R   0.442465 0.643686 0.635072 0.106585
C37   C     C_R   0.339330 0.589282 0.485859 -0.113270
C38   C     C_R   0.415527 0.582082 0.410968 -0.218104
C39   C     C_R   0.500040 0.596101 0.410817 0.142387
C40   C     C_R   0.751682 0.426698 0.985750 -0.113579
C41   C     C_R   0.507262 0.624506 0.488240 0.066492
C42   C     C_R   0.591521 0.642051 0.489843 0.128764
C43   C     C_R   0.599292 0.668452 0.566124 -0.200286
C44   C     C_R   0.525143 0.667852 0.638210 -0.140886
C45   C     C_R   0.262987 0.529422 0.976564 0.437827
C46   C     C_R   0.577931 0.575022 0.333736 -0.245430
C47   C     C_R   0.661933 0.582965 0.334542 0.107509
C48   C     C_R   0.667795 0.624057 0.413533 -0.246113
C49   C     C_R   0.684917 0.407401 0.886202 -0.022089
C50   C     C_R   0.362590 0.429760 0.975919 -0.069241
C51   C     C_R   0.454626 0.360709 0.001784 0.378673
C52   C     C_R   0.078624 0.738780 0.165051 -0.121118
C53   C     C_R   0.372327 0.398424 0.027817 0.412900
C54   C     C_R   0.436690 0.427887 0.901748 -0.228465
C55   C     C_R   0.521176 0.408775 0.886415 0.067191
C56   C     C_R   0.980493 0.247293 0.827888 -0.086697
C57   C     C_R   0.530656 0.369160 0.932494 -0.182748
C58   C     C_R   0.617211 0.352993 0.916197 0.487308
C59   C     C_R   0.676737 0.443839 0.837823 -0.199686
C60   C     C_R   0.596279 0.437839 0.832415 -0.108467
C61   C     C_R   0.837201 0.202795 0.216448 0.117579
C62   C     C_R   0.926855 0.869164 0.039303 0.160795
C63   C     C_R   0.797443 0.962651 0.093630 -0.219857
C64   C     C_R   0.828970 0.548331 0.248564 -0.131688
C65   C     C_R   0.840010 0.877583 0.050147 -0.107588
C66   C     C_R   0.970996 0.948073 0.071805 -0.262996
C67   C     C_R   0.156648 0.511857 0.759644 -0.173815
C68   C     C_R   0.927777 0.033499 0.117670 0.174341
C69   C     C_R   0.839985 0.040834 0.129110 0.169734
C70   C     C_R   0.795553 0.126007 0.177898 -0.248592
C71   C     C_R   0.923754 0.195545 0.205458 -0.168640
C72   C     C_R   0.969643 0.111517 0.154983 -0.223447
C73   C     C_R   0.947906 0.694159 0.950520 0.461926
C74   C     C_R   0.966815 0.778844 0.004849 -0.076359
C75   C     C_3   0.114650 0.085011 0.779038 0.148625
C76   C     C_3   0.176366 0.002723 0.737188 -0.327277
C77   C     C_3   0.240737 0.023113 0.777936 -0.896799
C78   C     C_R   0.027365 0.312408 0.074361 -0.129307
C79   C     C_3   0.166402 0.104281 0.305038 0.218037
C80   C     C_3   0.077458 0.066959 0.301287 -0.366686
C81   C     C_3   0.017685 0.141558 0.323609 -0.959086
C82   C     C_3   0.303478 0.494073 0.170535 0.219639
C83   C     C_3   0.219804 0.508941 0.254155 -0.267480
C84   C     C_3   0.218523 0.601300 0.327154 -1.006406
C85   C     C_R   0.948250 0.244409 0.000004 -0.161200
Cl1   Cl    Cl    0.248534 0.704079 0.902741 -0.604340
Cl2   Cl    Cl    0.164265 0.595848 0.641617 -0.657689
Cl3   Cl    Cl    0.645553 0.253611 0.911752 -0.582865
Cl4   Cl    Cl    0.461799 0.322424 0.069518 -0.565576
Cl5   Cl    Cl    0.902999 0.676524 0.879415 -0.665204
Cl6   Cl    Cl    0.342497 0.604360 0.945321 -0.638405
H1    H     H_    0.052333 0.810987 0.072480 0.130610
H2    H     H_    0.694070 0.457343 0.154306 0.113799
H3    H     H_    0.154560 0.886933 0.243419 0.164021
H4    H     H_    0.046890 0.721349 0.379748 0.126366
H5    H     H_    0.045133 0.773001 0.519382 0.144769
H6    H     H_    0.047748 0.899573 0.649455 0.181907
H7    H     H_    0.387309 0.627464 0.749507 0.197536
H8    H     H_    0.275838 0.574400 0.482198 0.187126
H9    H     H_    0.408737 0.561743 0.352260 0.140720
H10   H     H_    0.572724 0.547227 0.273308 0.134812
H11   H     H_    0.846443 0.509867 0.847779 0.162460
H12   H     H_    0.955205 0.193562 0.846878 0.161006
H13   H     H_    0.731521 0.633859 0.416259 0.120856
H14   H     H_    0.663704 0.683036 0.568158 0.140923
H15   H     H_    0.533295 0.682067 0.694952 0.156251
H16   H     H_    0.729430 0.482045 0.809421 0.158809
H17   H     H_    0.589628 0.468551 0.797057 0.145135
H18   H     H_    0.430192 0.448553 0.859572 0.188262
H19   H     H_    0.728307 0.133109 0.187499 0.141153
H20   H     H_    0.997498 0.629848 0.283466 0.091537
H21   H     H_    0.955612 0.255433 0.235277 0.126158
H22   H     H_    0.729958 0.966972 0.102312 0.151177
H23   H     H_    0.129292 0.488676 0.713480 0.194643
H24   H     H_    0.037142 0.107201 0.146175 0.146303
H25   H     H_    0.802791 0.818407 0.028972 0.171609
H26   H     H_    0.037902 0.942969 0.064099 0.143106
H27   H     H_    0.712199 0.379971 0.010972 0.173503
H28   H     H_    0.126314 0.780365 0.137257 0.135493
H29   H     H_    0.850963 0.590680 0.298075 0.099017
H30   H     H_    0.078478 0.104920 0.849341 0.149096
H31   H     H_    0.154479 0.144229 0.772041 0.095154
H32   H     H_    0.135476 0.944697 0.745227 0.232791
H33   H     H_    0.215654 0.983263 0.667087 0.196724
H34   H     H_    0.054196 0.329698 0.120208 0.098154
H35   H     H_    0.283191 0.080221 0.769655 0.259234
H36   H     H_    0.284618 0.962461 0.746165 0.278175
H37   H     H_    0.203099 0.040795 0.847809 0.266389
H38   H     H_    0.203826 0.126325 0.252956 0.154413
H39   H     H_    0.154243 0.166292 0.366512 0.090837
H40   H     H_    0.090722 0.012749 0.235394 0.208681
H41   H     H_    0.041311 0.037551 0.347946 0.204313
H42   H     H_    0.998334 0.192864 0.391606 0.271339
H43   H     H_    0.956089 0.111962 0.315724 0.277742
H44   H     H_    0.053076 0.175342 0.280599 0.260409
H45   H     H_    0.902159 0.198921 0.976861 0.130611
H46   H     H_    0.303640 0.548209 0.152381 0.101893
H47   H     H_    0.363550 0.499970 0.182076 0.130789
H48   H     H_    0.159532 0.504639 0.243528 0.189632
H49   H     H_    0.217608 0.455154 0.273146 0.223486
H50   H     H_    0.276091 0.605643 0.341507 0.268708
H51   H     H_    0.155807 0.611230 0.386224 0.275134
H52   H     H_    0.221808 0.656092 0.309097 0.276797
H53   H     H_    0.177979 0.400684 0.076897 0.179841
H54   H     H_    0.093707 0.347572 0.703242 0.102494
H55   H     H_    0.164386 0.228314 0.590291 0.145983
H56   H     H_    0.226417 0.159532 0.436830 0.151760
N1    N     N_R   0.036080 0.671900 0.995420 -0.055003
N2    N     N_R   0.867430 0.509300 0.948100 -0.055762
N3    N     N_R   0.003360 0.617250 0.167070 -0.045544
N4    N     N_R   0.825450 0.461270 0.995400 -0.058183
N5    N     N_R   0.045340 0.665280 0.119770 -0.039974
N6    N     N_R   0.883740 0.497640 0.167070 -0.043311
N7    N     N_R   0.987050 0.628910 0.948110 -0.086029
N8    N     N_R   0.174550 0.538730 0.004600 -0.077787
N9    N     N_R   0.954660 0.334720 0.880230 -0.050682
N10   N     N_R   0.116260 0.502360 0.832930 -0.081598
N11   N     N_R   0.012950 0.371090 0.051890 -0.044093
N12   N     N_R   0.963920 0.328100 0.004580 -0.046172
N13   N     N_R   0.165290 0.545350 0.880240 -0.096195
N14   N     N_R   0.132570 0.490700 0.051900 -0.074993
N15   N     N_R   0.996640 0.382750 0.832930 -0.045549
N16   N     N_R   0.834710 0.454650 0.119760 -0.041653
Ni1   Ni    Ni4+2 0.104370 0.604370 0.000010 0.295103
Ni2   Ni    Ni4+2 0.895630 0.395630 0.999990 0.232656
Ni3   Ni    Ni4+2 0.991920 0.505780 0.891500 0.256310
Ni4   Ni    Ni4+2 0.008080 0.494220 0.108500 0.196710
O1    O     O_3   0.049807 0.062922 0.746456 -0.677877
O2    O     O_3   0.219922 0.036759 0.290146 -0.649115
O3    O     O_3   0.302615 0.406915 0.105671 -0.638416

loop_
_geom_bond_atom_site_label_1
_geom_bond_atom_site_label_2
_ccdc_geom_bond_type
C61   C70   A    
C26   H3    S    
C66   C68   A    
C63   C65   A    
C75   C76   S    
C28   N3    A    
C80   H41   S    
C6    C45   A    
C27   C29   A    
C75   H31   S    
C41   C42   A    
C14   C18   A    
C40   H27   S    
C35   C36   A    
C56   N9    A    
C3    C6    A    
C82   O3    S    
C81   H43   S    
C39   C41   A    
N8    N14   A    
C7    C11   S    
C72   H24   S    
C26   C27   A    
C50   C54   A    
N6    N16   A    
C83   C84   S    
C1    C74   A    
C7    C56   A    
C22   C29   A    
C67   H23   S    
C73   Cl5   S    
C82   H46   S    
N2    N4    A    
C30   C31   A    
C12   C64   A    
C84   H50   S    
C23   C49   S    
C10   C17   A    
C23   C40   A    
C79   H38   S    
N10   N13   A    
C18   C19   A    
C43   H14   S    
C70   H19   S    
C9    C85   A    
N15   Ni3   S    
C78   N11   A    
C10   O1    S    
C63   C69   A    
C68   C69   A    
C66   H26   S    
C73   N7    A    
C62   C74   S    
C16   N2    A    
C51   C57   A    
C4    C12   A    
C60   H17   S    
C52   N5    A    
C49   C59   A    
C55   C60   A    
C61   C71   A    
N9    N15   A    
C59   C60   A    
C28   H20   S    
C80   H40   S    
C13   C14   A    
N6    Ni4   S    
C76   H32   S    
N1    N7    A    
C13   H55   S    
C12   C47   S    
C35   C41   A    
C83   H48   S    
C83   H49   S    
N11   Ni4   S    
C81   H44   S    
C27   C34   S    
C46   H10   S    
C50   C53   A    
C5    H54   S    
C62   C66   A    
N1    Ni1   S    
C76   C77   S    
C38   H9    S    
C18   H56   S    
C10   C11   A    
C5    C7    A    
C84   H52   S    
N4    Ni2   S    
C79   H39   S    
C64   N6    A    
C33   C37   A    
C49   C58   A    
C4    H2    S    
C40   N4    A    
C51   C53   A    
C76   H33   S    
C43   C44   A    
C37   C38   A    
C47   C48   A    
C84   H51   S    
C68   C72   A    
C71   H21   S    
C4    N16   A    
C67   N10   A    
C42   C48   A    
C24   C25   A    
N14   Ni4   S    
C77   H37   S    
C53   O3    S    
C39   C46   A    
C45   N8    A    
C25   H6    S    
C1    H1    S    
C55   C57   A    
N11   N12   A    
C65   H25   S    
C22   C24   A    
C36   C44   A    
C42   C43   A    
C32   Cl2   S    
C73   C74   A    
N13   Ni1   S    
C37   H8    S    
C29   H4    S    
C16   H11   S    
C15   C17   A    
C54   C55   A    
C32   C33   A    
C6    C50   S    
C62   C65   A    
N16   Ni2   S    
C75   H30   S    
C8    C31   S    
C31   C32   A    
C2    C8    A    
C3    H53   S    
C19   O2    S    
C56   H12   S    
C80   C81   S    
N5    Ni1   S    
C58   Cl3   S    
N10   Ni3   S    
C81   H42   S    
C44   H15   S    
N8    Ni1   S    
C16   C23   A    
C30   H7    S    
C34   C52   A    
C64   H29   S    
C30   C36   A    
C75   O1    S    
C17   C25   A    
C5    N15   A    
C79   O2    S    
C19   C20   A    
C24   H5    S    
C71   C72   A    
C82   H47   S    
C51   Cl4   S    
C11   C13   A    
C57   C58   A    
C38   C39   A    
C20   C26   A    
N9    Ni2   S    
N3    Ni4   S    
C33   C35   A    
C2    Cl1   S    
N3    N5    A    
C9    C78   A    
C69   C70   A    
C45   Cl6   S    
C59   H16   S    
C46   C47   A    
C77   H36   S    
C3    N14   A    
C85   H45   S    
C28   C34   A    
C79   C80   S    
C63   H22   S    
C52   H28   S    
N12   Ni2   S    
C15   C21   A    
C20   C21   A    
C54   H18   S    
C8    C67   A    
C2    N13   A    
C82   C83   S    
C14   C15   A    
N7    Ni3   S    
C1    N1    A    
N2    Ni3   S    
C85   N12   A    
C21   C22   A    
C78   H34   S    
C77   H35   S    
C48   H13   S    
