data_mof_unit_66973.cif
_audit_creation_date              2013-03-05T15:58:12-0500
_audit_creation_method            fapswitch 2.2
_symmetry_space_group_name_H-M    P1
_symmetry_Int_Tables_number       1
_space_group_crystal_system       triclinic
_cell_length_a                    8.789189
_cell_length_b                    13.68266
_cell_length_c                    14.582853
_cell_angle_alpha                 94.589447
_cell_angle_beta                  90.92786
_cell_angle_gamma                 99.895766
_cell_volume                      1721.29417122

loop_
_atom_site_label
_atom_site_type_symbol
_atom_site_description
_atom_site_fract_x
_atom_site_fract_y
_atom_site_fract_z
_atom_type_partial_charge
P1    P     P_3+3 0.054400 0.427280 0.286870 0.477027
O1    O     O_2   0.887370 0.460630 0.272300 -0.312426
O2    O     O_3   0.129410 0.451380 0.388510 -0.405019
O3    O     O_3   0.670210 0.653170 0.329170 -0.385556
O4    O     O_2   0.755552 0.583273 0.166876 -0.347994
O5    O     O_3   0.013068 0.299180 0.261362 -0.567910
O6    O     O_3   0.671131 0.754809 0.168749 -0.584825
H1    H     H_    0.557010 0.807304 0.281538 0.055002
C1    C     C_3   0.648411 0.926438 0.202104 0.277112
H2    H     H_    0.762616 0.938526 0.238320 0.136716
P2    P     P_3+3 0.668300 0.742890 0.573060 0.575981
P3    P     P_3+3 0.148605 0.833034 0.377568 0.543587
O7    O     O_2   0.845380 0.761330 0.544970 -0.245564
O8    O     O_3   0.088930 0.704860 0.376040 -0.380190
O9    O     O_2   0.012026 0.877702 0.419719 -0.304583
O10   O     O_3   0.688750 0.776630 0.694387 -0.500486
O11   O     O_3   0.146389 0.857010 0.261642 -0.527635
C2    C     C_3   0.013722 0.798490 0.217678 0.379942
H3    H     H_    0.910762 0.820323 0.250495 0.095707
H4    H     H_    0.010692 0.718004 0.224723 0.093433
C3    C     C_3   0.006296 0.813617 0.114331 0.275737
H5    H     H_    0.887165 0.815675 0.091835 0.222546
C4    C     C_3   0.215825 0.771291 0.705288 0.794231
C5    C     C_3   0.191777 0.868523 0.754395 -0.071044
H6    H     H_    0.246416 0.933396 0.718430 0.144213
H7    H     H_    0.068614 0.867361 0.754925 0.230822
Ba1   Ba    Ba6+2 0.855630 0.555280 0.454520 1.645713
C6    C     C_3   0.935014 0.254958 0.333830 0.329213
H8    H     H_    0.831145 0.288531 0.349912 0.104725
H9    H     H_    0.012403 0.261846 0.396008 0.103940
C7    C     C_3   0.882411 0.146307 0.302317 -0.172371
H10   H     H_    0.827827 0.139432 0.232636 0.233407
H11   H     H_    0.801313 0.111031 0.350873 0.104710
C8    C     C_3   0.664706 0.696750 0.750612 0.539419
H12   H     H_    0.549261 0.650970 0.741093 0.051174
C9    C     C_3   0.695063 0.732611 0.855359 0.550566
P4    P     P_3+3 0.135310 0.572810 0.713130 0.571602
O12   O     O_2   0.302330 0.539400 0.727760 -0.388995
O13   O     O_3   0.060300 0.548700 0.611500 -0.296628
O14   O     O_3   0.519500 0.346920 0.670840 -0.318376
O15   O     O_3   0.157539 0.695808 0.761158 -0.534461
P5    P     P_3+3 0.012014 0.173402 0.638648 0.583073
O16   O     O_3   0.614310 0.373510 0.452640 -0.319636
O17   O     O_3   0.100780 0.295230 0.623970 -0.303607
O18   O     O_2   0.141749 0.117087 0.666869 -0.355104
O19   O     O_3   0.905412 0.175409 0.739445 -0.582949
Ba2   Ba    Ba6+2 0.334200 0.444810 0.545490 1.690724
P6    P     P_3+3 0.628594 0.636848 0.209500 0.461630
C10   C     C_3   0.572737 0.817218 0.207315 0.498725
O20   O     O_3   0.575400 0.626570 0.547370 -0.394609
C11   C     C_3   0.437339 0.284394 0.268217 0.629726
H13   H     H_    0.321848 0.288472 0.296658 0.059437
C12   C     C_3   0.421114 0.257601 0.164268 0.091425
H14   H     H_    0.383616 0.319562 0.129710 0.126985
P7    P     P_3+3 0.521656 0.240462 0.431508 0.504079
O21   O     O_2   0.344320 0.238700 0.455090 -0.337013
O22   O     O_3   0.511345 0.215264 0.311156 -0.576459
C13   C     C_3   0.980633 0.216414 0.823363 0.723742
H15   H     H_    0.909307 0.268479 0.850484 -0.033804
C14   C     C_3   0.970157 0.139711 0.895302 -0.038669
H16   H     H_    0.858903 0.087985 0.884739 0.258518
P8    P     P_3+3 0.563365 0.372371 0.789343 0.568864
C15   C     C_3   0.533459 0.185818 0.780116 0.277606
H17   H     H_    0.659291 0.201080 0.772087 0.104196
O23   O     O_2   0.466696 0.449171 0.828858 -0.324437
O24   O     O_3   0.486987 0.262839 0.836275 -0.515401
H18   H     H_    0.474398 0.176853 0.711054 0.136223
C16   C     C_3   0.492067 0.088051 0.822459 0.081243
H19   H     H_    0.368611 0.060348 0.808373 0.173375
C17   C     C_R   0.984601 0.447782 0.056952 -0.142002
C18   C     C_R   0.173035 0.490548 0.194024 0.225685
C19   C     C_R   0.319936 0.538736 0.224690 -0.505245
C20   C     C_R   0.433713 0.573169 0.164135 0.338654
C21   C     C_R   0.396797 0.566126 0.069701 -0.289830
C22   C     C_R   0.245844 0.529500 0.035119 0.061468
C23   C     C_R   0.132289 0.487684 0.096362 -0.037643
H20   H     H_    0.349928 0.543436 0.297049 0.179555
C24   C     C_R   0.062015 0.495860 0.900137 -0.026210
C25   C     C_R   0.949758 0.450925 0.961159 0.093006
C26   C     C_R   0.023986 0.491488 0.801206 0.268710
C27   C     C_R   0.883746 0.430215 0.769940 0.020704
C28   C     C_R   0.765662 0.407164 0.831390 0.177393
C29   C     C_R   0.799770 0.412804 0.926108 -0.260804
C30   C     C_R   0.209127 0.535788 0.940103 -0.063152
H21   H     H_    0.483946 0.595675 0.023760 0.205054
H22   H     H_    0.708466 0.388028 0.972275 0.212930
H23   H     H_    0.895164 0.414196 0.100340 0.211346
H24   H     H_    0.297949 0.569180 0.896972 0.170956
C31   C     C_R   0.759892 0.166790 0.518671 -0.541162
C32   C     C_R   0.446026 0.814770 0.456539 -0.187238
C33   C     C_R   0.393534 0.983603 0.460297 0.223131
C34   C     C_R   0.346516 0.881452 0.436094 0.229630
C35   C     C_R   0.586483 0.847285 0.509863 0.240784
C36   C     C_R   0.643984 0.957310 0.520103 -0.183991
C37   C     C_R   0.547065 0.026147 0.488447 -0.194229
C38   C     C_R   0.607722 0.134250 0.487120 0.258313
C39   C     C_R   0.849985 0.106555 0.558420 0.275307
C40   C     C_R   0.790495 0.004125 0.561980 0.380297
H25   H     H_    0.810929 0.242756 0.511798 0.170379
Br1   Br    Br    0.257737 0.876483 0.882437 -0.555366
Br2   Br    Br    0.051410 0.074956 0.297216 -0.467495
Br3   Br    Br    0.793955 0.611758 0.709315 -0.401346
Br4   Br    Br    0.858571 0.844298 0.876237 -0.423804
Br5   Br    Br    0.745791 0.630408 0.927194 -0.606386
C41   C     C_3   0.558802 0.765836 0.903279 -0.848088
H26   H     H_    0.549208 0.841862 0.887105 0.332052
H27   H     H_    0.450292 0.713028 0.886430 0.222962
H28   H     H_    0.580636 0.771755 0.978222 0.305489
C42   C     C_3   0.416545 0.794495 0.155860 -0.855320
H29   H     H_    0.427050 0.754837 0.088646 0.249338
H30   H     H_    0.331513 0.748034 0.196475 0.200159
H31   H     H_    0.370572 0.860797 0.138848 0.314876
C43   C     C_3   0.553557 0.998327 0.249497 -0.954673
H32   H     H_    0.587660 0.007990 0.322133 0.210179
H33   H     H_    0.577715 0.070858 0.220425 0.333184
H34   H     H_    0.427210 0.973311 0.246411 0.292674
Br6   Br    Br    0.561443 0.413267 0.278641 -0.441887
C44   C     C_3   0.299605 0.166286 0.140934 -0.735447
H35   H     H_    0.293083 0.144889 0.066381 0.262384
H36   H     H_    0.325721 0.103577 0.178176 0.318107
H37   H     H_    0.185201 0.183741 0.159723 0.261678
Br7   Br    Br    0.620375 0.239741 0.116052 -0.595729
Br8   Br    Br    0.690218 0.960424 0.077529 -0.506023
C45   C     C_3   0.055490 0.728902 0.053910 -0.825480
H38   H     H_    0.175236 0.721851 0.066869 0.241507
H39   H     H_    0.982495 0.657320 0.066919 0.260008
H40   H     H_    0.043740 0.740690 0.980261 0.345607
Br9   Br    Br    0.180392 0.297735 0.820598 -0.447662
C46   C     C_3   0.977301 0.189538 0.994007 -0.881763
H41   H     H_    0.963335 0.132447 0.044600 0.331260
H42   H     H_    0.088819 0.240875 0.008804 0.263758
H43   H     H_    0.882988 0.233112 0.003496 0.264083
C47   C     C_3   0.095102 0.077421 0.884159 -0.627893
H44   H     H_    0.208764 0.123015 0.903431 0.237929
H45   H     H_    0.072687 0.017620 0.930234 0.330922
H46   H     H_    0.093091 0.043285 0.812994 0.270879
Br10  Br    Br    0.605810 0.994384 0.764383 -0.558696
C48   C     C_3   0.525562 0.098219 0.925315 -0.592153
H47   H     H_    0.457001 0.150411 0.958302 0.248520
H48   H     H_    0.493096 0.025812 0.954341 0.314870
H49   H     H_    0.648477 0.128066 0.941165 0.252815
Br11  Br    Br    0.838446 0.387944 0.642288 -0.413738
Br12  Br    Br    0.231717 0.050501 0.492340 -0.378925
Br13  Br    Br    0.907785 0.942471 0.641015 -0.379018
C49   C     C_3   0.392876 0.707641 0.422187 -0.715872
H50   H     H_    0.480933 0.663356 0.419209 0.261905
H51   H     H_    0.303595 0.669046 0.465242 0.267198
H52   H     H_    0.354282 0.703373 0.349417 0.181310
Br14  Br    Br    0.117646 0.941199 0.088549 -0.472856
C50   C     C_3   0.380184 0.776155 0.689532 -0.907979
H53   H     H_    0.423504 0.840349 0.650132 0.236415
H54   H     H_    0.440064 0.789026 0.755285 0.276660
H55   H     H_    0.394790 0.705737 0.651279 0.240362
Br15  Br    Br    0.133515 0.758174 0.585859 -0.427632

loop_
_geom_bond_atom_site_label_1
_geom_bond_atom_site_label_2
_geom_bond_distance
_ccdc_geom_bond_type
O14   Ba2   2.972043 S    
P7    O21   1.598119 D    
C13   Br9   1.913185 S    
C35   C36   1.498029 A    
C2    C3    1.539420 S    
C20   C21   1.401630 A    
C16   C48   1.514616 S    
C37   C38   1.485369 A    
C49   H52   1.102839 S    
C39   C40   1.414569 A    
C12   H14   1.113711 S    
C49   H51   1.102467 S    
C41   H27   1.104160 S    
P1    C18   1.895486 S    
C31   H25   1.072156 S    
C9    Br4   1.910445 S    
C7    Br2   1.911886 S    
O13   Ba2   3.126486 S    
C6    H8    1.110542 S    
P4    O12   1.626513 D    
C5    H7    1.080050 S    
C8    H12   1.097386 S    
C32   C49   1.502447 S    
C12   Br7   1.944436 S    
C42   H30   1.106694 S    
C18   C23   1.458716 A    
C24   C26   1.469819 A    
C22   C30   1.430232 A    
C36   C40   1.438699 A    
C13   C14   1.535117 S    
O14   P8    1.758476 S    
P1    O1    1.626110 D    
P5    O19   1.756781 S    
O2    Ba2   2.905765 S    
C44   H35   1.101037 S    
O10   C8    1.407532 S    
O5    C6    1.391643 S    
Ba1   O13   2.905146 S    
C16   H19   1.096458 S    
C50   H55   1.102185 S    
P3    O11   1.748079 S    
C47   H46   1.102040 S    
C4    C5    1.508817 S    
C7    H11   1.093253 S    
O1    Ba1   2.900630 S    
C11   O22   1.415248 S    
C3    Br14  1.917358 S    
O8    Ba1   2.951540 S    
P4    Ba2   3.550360 S    
C1    H2    1.107073 S    
C2    H4    1.110022 S    
O17   Ba2   2.952154 S    
C19   C20   1.391051 A    
C43   H34   1.103471 S    
P1    Ba1   3.549835 S    
P2    C35   1.987220 S    
P8    C28   1.841468 S    
C15   O24   1.403141 S    
C3    H5    1.097836 S    
O19   C13   1.409219 S    
C16   Br10  1.911361 S    
P5    O17   1.746044 S    
C17   H23   1.080703 S    
P4    C26   1.933993 S    
C49   H50   1.061176 S    
Ba2   O20   2.975734 S    
C33   Br12  1.865341 S    
O4    P6    1.549046 D    
C15   H18   1.113642 S    
C12   C44   1.509631 S    
C21   C22   1.405386 A    
P8    O24   1.731580 S    
C11   H13   1.111259 S    
C1    C10   1.536104 S    
C5    H6    1.108928 S    
O6    C10   1.409281 S    
C42   H31   1.098434 S    
C33   C34   1.402397 A    
C24   C25   1.432074 A    
C2    H3    1.105100 S    
C13   H15   1.083211 S    
C27   C28   1.393731 A    
P1    O5    1.736349 S    
C31   C39   1.388589 A    
C14   H16   1.104806 S    
P1    O2    1.598661 S    
P5    O18   1.549464 D    
C22   C23   1.426691 A    
C19   H20   1.077673 S    
C24   C30   1.411326 A    
P2    O10   1.790615 S    
C32   C34   1.412668 A    
C7    H10   1.106776 S    
P3    O9    1.551872 D    
P2    Ba1   3.622624 S    
O11   C2    1.408731 S    
C8    Br3   1.835666 S    
C41   H28   1.100675 S    
Ba2   O21   3.032163 S    
O12   Ba2   2.901166 S    
C48   H48   1.102711 S    
C45   H40   1.104552 S    
C1    Br8   1.936392 S    
O16   P7    1.861374 S    
C27   Br11  1.919078 S    
C4    C50   1.457464 S    
P3    O8    1.740256 S    
P7    O22   1.759162 S    
C17   C23   1.412574 A    
C47   H44   1.102171 S    
C50   H54   1.073401 S    
P5    C39   1.886930 S    
O3    Ba1   2.972693 S    
C32   C35   1.432266 A    
C45   H39   1.106613 S    
C43   H32   1.087654 S    
O3    P6    1.765787 S    
Ba1   Ba2   4.905352 S    
C15   C16   1.508417 S    
P7    C38   1.971918 S    
P8    O23   1.544024 D    
C40   Br13  1.875840 S    
C9    C41   1.514167 S    
C5    Br1   1.935233 S    
P6    C20   1.867829 S    
P3    C34   1.912708 S    
C6    C7    1.510824 S    
C30   H24   1.073826 S    
C26   C27   1.412624 A    
C48   H49   1.101115 S    
C14   C46   1.538167 S    
Ba1   O20   3.094124 S    
C41   H26   1.101629 S    
C4    O15   1.399740 S    
C9    Br5   1.919717 S    
C1    C43   1.527073 S    
O6    P6    1.746788 S    
C46   H43   1.105489 S    
C3    C45   1.525788 S    
O2    Ba1   3.125662 S    
C46   H41   1.109876 S    
C10   C42   1.525424 S    
C18   C19   1.394013 A    
P4    O13   1.598537 S    
P2    O20   1.669773 S    
C42   H29   1.094858 S    
C25   C29   1.403695 A    
P2    O7    1.598757 D    
C17   C25   1.430864 A    
C43   H33   1.098874 S    
C31   C38   1.393313 A    
H1    C10   1.109487 S    
C6    H9    1.112658 S    
C11   Br6   1.900747 S    
C8    C9    1.570701 S    
C21   H21   1.073558 S    
P4    O15   1.747838 S    
C36   C37   1.469181 A    
C44   H36   1.105488 S    
C48   H47   1.098562 S    
C33   C37   1.414962 A    
C15   H17   1.099631 S    
Ba1   O16   2.976430 S    
C29   H22   1.082903 S    
C28   C29   1.401890 A    
C4    Br15  1.858315 S    
C47   H45   1.093912 S    
C50   H53   1.104309 S    
O7    Ba1   3.031912 S    
C11   C12   1.529285 S    
O16   Ba2   3.093277 S    
C14   C47   1.504695 S    
C44   H37   1.106419 S    
C45   H38   1.088164 S    
C46   H42   1.110369 S    
