data_mof_unit_6415.cif
_audit_creation_date              2012-12-10T18:44:29-0500
_audit_creation_method            fapswitch 2.2
_symmetry_space_group_name_H-M    P1
_symmetry_Int_Tables_number       1
_space_group_crystal_system       triclinic
_cell_length_a                    12.862932
_cell_length_b                    10.707947
_cell_length_c                    9.84386
_cell_angle_alpha                 89.965653
_cell_angle_beta                  97.444633
_cell_angle_gamma                 90.22267
_cell_volume                      1344.41065131

loop_
_atom_site_label
_atom_site_type_symbol
_atom_type_description
_atom_site_fract_x
_atom_site_fract_y
_atom_site_fract_z
_atom_type_partial_charge
C1    C     C_R   0.499971 0.259907 0.499969 0.868372
C2    C     C_R   0.701526 0.497662 0.527146 0.887951
C3    C     C_R   0.813497 0.500050 0.544415 -0.087889
C4    C     C_R   0.186503 0.499949 0.455585 -0.087889
C5    C     C_R   0.030047 0.392430 0.361274 -0.203096
C6    C     C_R   0.969953 0.607569 0.638726 -0.203096
C7    C     C_R   0.135574 0.414944 0.362402 -0.224054
C8    C     C_R   0.864426 0.585055 0.637598 -0.224054
C9    C     C_R   0.131996 0.570338 0.543127 -0.073547
C10   C     C_R   0.868004 0.429662 0.456872 -0.073547
C11   C     C_R   0.025671 0.545423 0.545626 0.119507
C12   C     C_R   0.500029 0.740093 0.500031 0.868372
C13   C     C_R   0.974329 0.454576 0.454374 0.119507
C14   C     C_R   0.526591 0.064159 0.385430 -0.182291
C15   C     C_R   0.473410 0.935840 0.614570 -0.182292
C16   C     C_R   0.526595 0.936204 0.385433 -0.191278
C17   C     C_R   0.473406 0.063796 0.614567 -0.191279
C18   C     C_1   0.814437 0.332041 0.371473 0.160717
C19   C     C_1   0.185562 0.667960 0.628525 0.160717
C20   C     C_R   0.500003 0.872531 0.500003 -0.016067
C21   C     C_R   0.499998 0.127469 0.499998 -0.016067
C22   C     C_R   0.563776 0.579499 0.082624 -0.058542
C23   C     C_R   0.436224 0.420501 0.917376 -0.058542
C24   C     C_R   0.563756 0.579451 0.938743 -0.068957
C25   C     C_R   0.436244 0.420549 0.061257 -0.068956
C26   C     C_R   0.298474 0.502338 0.472854 0.887951
H1    H     H_    0.821362 0.638565 0.705145 0.157861
H2    H     H_    0.385243 0.356917 0.854330 0.126439
H3    H     H_    0.614745 0.642947 0.892763 0.124013
H4    H     H_    0.385255 0.357053 0.107237 0.124013
H5    H     H_    0.178638 0.361433 0.294856 0.157860
H6    H     H_    0.993361 0.324266 0.289059 0.157747
H7    H     H_    0.006639 0.675732 0.710942 0.157747
H8    H     H_    0.548081 0.113169 0.296767 0.167594
H9    H     H_    0.451921 0.886831 0.703233 0.167594
H10   H     H_    0.548113 0.887480 0.296785 0.154926
H11   H     H_    0.451889 0.112520 0.703215 0.154927
H12   H     H_    0.614757 0.643083 0.145670 0.126439
N1    N     N_R   0.499970 0.499970 0.857200 -0.080482
N2    N     N_R   0.500030 0.500030 0.142800 -0.080482
N3    N     N_1   0.771688 0.254436 0.303719 -0.210152
N4    N     N_1   0.228311 0.745566 0.696278 -0.210152
O1    O     O_R   0.499990 0.316750 0.614620 -0.628014
O2    O     O_R   0.500010 0.683250 0.385380 -0.628014
O3    O     O_R   0.499990 0.316780 0.385290 -0.625961
O4    O     O_R   0.500010 0.683220 0.614710 -0.625961
O5    O     O_R   0.346360 0.499970 0.595710 -0.611589
O6    O     O_R   0.653640 0.500030 0.404290 -0.611589
O7    O     O_R   0.346360 0.499990 0.366380 -0.621842
O8    O     O_R   0.653640 0.500010 0.633620 -0.621843
Zn1   Zn    Zn3+2 0.500000 0.499980 0.653120 0.958635
Zn2   Zn    Zn3+2 0.500000 0.500020 0.346880 0.958635

loop_
_geom_bond_atom_site_label_1
_geom_bond_atom_site_label_2
_ccdc_geom_bond_type
O2    Zn2   S    
C14   H8    S    
C4    C26   S    
C19   N4    T    
C1    C21   S    
C11   C13   A    
C5    C13   A    
C6    H7    S    
C16   C20   A    
C5    H6    S    
C22   N2    A    
C12   C20   S    
C2    C3    S    
N1    Zn1   S    
C12   O2    A    
C3    C10   A    
C17   H11   S    
C23   H2    S    
C16   H10   S    
C9    C11   A    
C1    O3    A    
C1    O1    A    
C26   O5    A    
O1    Zn1   S    
C4    C7    A    
C23   N1    A    
C15   C17   A    
C6    C8    A    
C14   C21   A    
C15   H9    S    
C10   C18   S    
O8    Zn1   S    
C22   C24   A    
C23   C25   A    
C25   N2    A    
C15   C20   A    
C14   C16   A    
C18   N3    T    
C7    H5    S    
C22   H12   S    
O6    Zn2   S    
C24   N1    A    
C12   O4    A    
C3    C8    A    
C26   O7    A    
C6    C11   A    
C5    C7    A    
C8    H1    S    
C24   H3    S    
C25   H4    S    
O5    Zn1   S    
C2    O8    A    
O3    Zn2   S    
C2    O6    A    
C4    C9    A    
N2    Zn2   S    
O4    Zn1   S    
C9    C19   S    
C17   C21   A    
O7    Zn2   S    
C10   C13   A    
