data_mof_unit_12430.cif
_audit_creation_date              2012-12-11T14:39:33-0500
_audit_creation_method            fapswitch 2.2
_symmetry_space_group_name_H-M    P1
_symmetry_Int_Tables_number       1
_space_group_crystal_system       triclinic
_cell_length_a                    7.234706
_cell_length_b                    13.955902
_cell_length_c                    16.418889
_cell_angle_alpha                 90.000139
_cell_angle_beta                  97.363152
_cell_angle_gamma                 90.000467
_cell_volume                      1644.09320015

loop_
_atom_site_label
_atom_site_type_symbol
_atom_type_description
_atom_site_fract_x
_atom_site_fract_y
_atom_site_fract_z
_atom_type_partial_charge
O1    O     O_R   0.525340 0.338340 0.164530 -0.543499
O2    O     O_R   0.474660 0.661660 0.835470 -0.551549
O3    O     O_R   0.974660 0.838340 0.835470 -0.543482
O4    O     O_R   0.025340 0.161660 0.164530 -0.551537
O5    O     O_R   0.253520 0.352000 0.336710 -0.522335
O6    O     O_R   0.746480 0.648000 0.663290 -0.539313
O7    O     O_R   0.246480 0.852000 0.663290 -0.522402
O8    O     O_R   0.753520 0.148000 0.336710 -0.539333
O9    O     O_R   0.083330 0.168380 0.337300 -0.504413
O10   O     O_R   0.916670 0.831620 0.662700 -0.524398
O11   O     O_R   0.416670 0.668380 0.662700 -0.504487
O12   O     O_R   0.583330 0.331620 0.337300 -0.524573
C1    C     C_R   0.432509 0.369914 0.362805 0.920285
C2    C     C_R   0.568035 0.629825 0.637290 0.912154
C3    C     C_R   0.067491 0.869902 0.637187 0.920248
C4    C     C_R   0.931967 0.129838 0.362721 0.912011
O13   O     O_R   0.195840 0.349670 0.165140 -0.555948
O14   O     O_R   0.804160 0.650330 0.834860 -0.547580
O15   O     O_R   0.304160 0.849670 0.834860 -0.555968
O16   O     O_R   0.695840 0.150330 0.165140 -0.547572
C5    C     C_R   0.356990 0.371627 0.137421 0.783044
C6    C     C_R   0.642915 0.628225 0.862460 0.783766
C7    C     C_R   0.143009 0.871630 0.862576 0.783028
C8    C     C_R   0.857083 0.128226 0.137538 0.783819
O17   O     O_3   0.387830 0.193120 0.250910 -0.393094
O18   O     O_3   0.612170 0.806880 0.749090 -0.391337
O19   O     O_3   0.112170 0.693120 0.749090 -0.393162
O20   O     O_3   0.887830 0.306880 0.250910 -0.391415
V1    V     V_3+5 0.113010 0.264540 0.250910 1.454190
V2    V     V_3+5 0.886990 0.735460 0.749090 1.427962
V3    V     V_3+5 0.386990 0.764540 0.749090 1.454170
V4    V     V_3+5 0.613010 0.235460 0.250910 1.427790
H1    H     H_    0.904112 0.797432 0.262434 0.149275
H2    H     H_    0.050941 0.197932 0.739817 0.148495
H3    H     H_    0.595841 0.297431 0.737564 0.149271
H4    H     H_    0.448919 0.697958 0.260194 0.148580
C9    C     C_R   0.013645 0.203176 0.531331 0.492823
C10   C     C_R   0.031633 0.797783 0.468729 0.473046
C11   C     C_R   0.486530 0.703202 0.468689 0.492973
C12   C     C_R   0.468438 0.297775 0.531260 0.473255
C13   C     C_R   0.045251 0.234146 0.613775 -0.278236
C14   C     C_R   0.001534 0.765257 0.386996 -0.279791
C15   C     C_R   0.454821 0.734177 0.386246 -0.278276
C16   C     C_R   0.498485 0.265253 0.612996 -0.279843
C17   C     C_R   0.038807 0.170856 0.677527 -0.255688
C18   C     C_R   0.935191 0.825966 0.324026 -0.251215
C19   C     C_R   0.461081 0.670882 0.322484 -0.255561
C20   C     C_R   0.564778 0.325966 0.675971 -0.251209
C21   C     C_R   0.010561 0.073590 0.662453 0.416371
C22   C     C_R   0.903464 0.922377 0.339008 0.423346
C23   C     C_R   0.489296 0.573617 0.337545 0.416268
C24   C     C_R   0.596516 0.422375 0.660991 0.423294
C25   C     C_R   0.013650 0.036107 0.581729 -0.112164
C26   C     C_R   0.959123 0.962460 0.418630 -0.114572
C27   C     C_R   0.486316 0.536124 0.418272 -0.112223
C28   C     C_R   0.540874 0.462459 0.581368 -0.114599
C29   C     C_R   0.999687 0.101551 0.514494 -0.086232
C30   C     C_R   0.010722 0.898426 0.485463 -0.092107
C31   C     C_R   0.500369 0.601565 0.485514 -0.086134
C32   C     C_R   0.489288 0.398427 0.514531 -0.092045
C33   C     C_R   0.030567 0.935915 0.567048 -0.151413
C34   C     C_R   0.964940 0.063602 0.432934 -0.153872
C35   C     C_R   0.469426 0.435925 0.432948 -0.151515
C36   C     C_R   0.535082 0.563602 0.567070 -0.153908
H5    H     H_    0.137517 0.066628 0.056559 0.149927
H6    H     H_    0.863092 0.932175 0.944394 0.144498
H7    H     H_    0.362481 0.566624 0.943438 0.149923
H8    H     H_    0.636892 0.432146 0.055582 0.144481
C37   C     C_2   0.150036 0.941829 0.930882 -0.305336
C38   C     C_2   0.850145 0.057766 0.069443 -0.306573
C39   C     C_2   0.349962 0.441824 0.069114 -0.305286
C40   C     C_2   0.649850 0.557759 0.930551 -0.306529
C41   C     C_2   0.996656 0.964908 0.966029 -0.131721
C42   C     C_2   0.003778 0.034216 0.034661 -0.136767
C43   C     C_2   0.503335 0.464892 0.033958 -0.131756
C44   C     C_2   0.496217 0.534207 0.965332 -0.136728
H9    H     H_    0.716780 0.025415 0.046789 0.117042
H10   H     H_    0.283274 0.974402 0.953386 0.114496
H11   H     H_    0.783213 0.525405 0.953201 0.117044
H12   H     H_    0.216730 0.474408 0.046620 0.114508
O21   O     O_3   0.011165 0.268185 0.466318 -0.537468
C45   C     C_3   0.969497 0.363748 0.485534 -0.198139
H13   H     H_    0.095158 0.400278 0.516858 0.123643
H14   H     H_    0.853005 0.368062 0.523010 0.110922
H15   H     H_    0.926139 0.402869 0.427489 0.156951
O22   O     O_3   0.101359 0.735256 0.531568 -0.539431
C46   C     C_3   0.024056 0.642269 0.522608 -0.194136
H16   H     H_    0.100474 0.597947 0.481828 0.115176
H17   H     H_    0.872832 0.643659 0.499971 0.111712
H18   H     H_    0.041481 0.606877 0.583539 0.163760
O23   O     O_3   0.489434 0.768211 0.533733 -0.537567
C47   C     C_3   0.530453 0.863840 0.514434 -0.198001
H19   H     H_    0.404487 0.900171 0.483173 0.123713
H20   H     H_    0.646780 0.868321 0.476874 0.110925
H21   H     H_    0.573784 0.903046 0.572443 0.156995
O24   O     O_3   0.398885 0.235232 0.468402 -0.539334
C48   C     C_3   0.476065 0.142225 0.477432 -0.194094
H22   H     H_    0.399471 0.097949 0.518175 0.115209
H23   H     H_    0.627247 0.143581 0.500147 0.111593
H24   H     H_    0.458765 0.106806 0.416513 0.163739
H25   H     H_    0.071458 0.308294 0.630184 0.133393
H26   H     H_    0.027083 0.691688 0.371123 0.141082
H27   H     H_    0.428714 0.808330 0.369831 0.133302
H28   H     H_    0.472963 0.191682 0.628872 0.141058
O25   O     O_3   0.976111 0.016313 0.727459 -0.572302
C49   C     C_3   0.790385 0.032165 0.742431 -0.200504
H29   H     H_    0.689422 0.016655 0.686909 0.110001
H30   H     H_    0.770274 0.106479 0.764220 0.114975
H31   H     H_    0.758030 0.983311 0.791809 0.171275
O26   O     O_3   0.814701 0.975859 0.274793 -0.569562
C50   C     C_3   0.622724 0.952878 0.265449 -0.217530
H32   H     H_    0.560772 0.966934 0.323003 0.108858
H33   H     H_    0.597622 0.877297 0.245570 0.116445
H34   H     H_    0.548357 0.998711 0.216808 0.169503
O27   O     O_3   0.523666 0.516370 0.272511 -0.572342
C51   C     C_3   0.709579 0.531997 0.257704 -0.200366
H35   H     H_    0.810247 0.515862 0.313165 0.110287
H36   H     H_    0.730466 0.606433 0.236393 0.114771
H37   H     H_    0.741616 0.483476 0.208052 0.171142
O28   O     O_3   0.685298 0.475853 0.725206 -0.569579
C52   C     C_3   0.877267 0.452867 0.734541 -0.217605
H38   H     H_    0.939189 0.466887 0.676976 0.108869
H39   H     H_    0.902354 0.377296 0.754444 0.116476
H40   H     H_    0.951672 0.498718 0.783160 0.169498

loop_
_geom_bond_atom_site_label_1
_geom_bond_atom_site_label_2
_ccdc_geom_bond_type
C46   H16   S    
O1    C5    A    
C12   C32   A    
C27   C31   A    
O13   V1    S    
C41   C42   S    
C7    C37   S    
O3    C7    A    
C50   H32   S    
C40   C44   D    
O15   V3    S    
O21   C45   S    
C16   H28   S    
C8    C38   S    
C29   C34   A    
H8    C43   S    
C31   C36   A    
C22   C26   A    
C5    C39   S    
C32   C35   A    
O20   V1    S    
O9    C4    A    
C10   C14   A    
C40   H11   S    
O10   C3    A    
O16   V4    S    
O4    C8    A    
O11   C2    A    
C49   H29   S    
O27   C51   S    
C22   O26   S    
C51   H35   S    
H4    C19   S    
C14   C18   A    
C6    C40   S    
O26   C50   S    
C52   H40   S    
C10   C30   A    
C25   C33   A    
O16   C8    A    
C51   H36   S    
C27   C35   A    
C38   C42   D    
C28   C36   A    
C37   C41   D    
O14   V2    S    
O5    C1    A    
O4    V1    S    
O9    V1    S    
O17   V4    S    
O7    C3    A    
O11   V3    S    
O18   V3    S    
O8    C4    A    
O12   V4    S    
C38   H9    S    
H1    C18   S    
C9    O21   S    
C37   H10   S    
C4    C34   S    
C12   O24   S    
H3    C20   S    
C14   H26   S    
C11   O23   S    
C39   H12   S    
C48   H23   S    
C48   H22   S    
O5    V1    S    
O7    V3    S    
O8    V4    S    
O23   C47   S    
C25   C29   A    
O22   C46   S    
C19   C23   A    
C26   C34   A    
H6    C41   S    
O1    V4    S    
O13   C5    A    
H5    C42   S    
C28   C32   A    
O2    V3    S    
O3    V2    S    
O15   C7    A    
C43   C44   S    
O2    C6    A    
O6    C2    A    
O10   V2    S    
C1    C35   S    
C17   C21   A    
C11   C31   A    
O24   C48   S    
C47   H20   S    
C3    C33   S    
C50   H33   S    
H2    C17   S    
C52   H38   S    
C2    C36   S    
C24   O28   S    
O6    V2    S    
C10   O22   S    
C45   H14   S    
C46   H17   S    
C48   H24   S    
O28   C52   S    
C26   C30   A    
O14   C6    A    
C21   O25   S    
C15   H27   S    
C11   C15   A    
C45   H15   S    
O25   C49   S    
C18   C22   A    
C51   H37   S    
C39   C43   D    
C49   H30   S    
C30   C33   A    
C21   C25   A    
C47   H19   S    
C13   H25   S    
C50   H34   S    
C23   C27   A    
C47   H21   S    
C9    C13   A    
C23   O27   S    
C52   H39   S    
C16   C20   A    
C12   C16   A    
O12   C1    A    
C45   H13   S    
C46   H18   S    
C13   C17   A    
H7    C44   S    
C20   C24   A    
C15   C19   A    
C9    C29   A    
C24   C28   A    
O19   V2    S    
C49   H31   S    
