data_mof_unit_7743.cif
_audit_creation_date              2012-12-10T18:09:33-0500
_audit_creation_method            fapswitch 2.2
_symmetry_space_group_name_H-M    P1
_symmetry_Int_Tables_number       1
_space_group_crystal_system       triclinic
_cell_length_a                    15.885293
_cell_length_b                    15.875512
_cell_length_c                    9.770906
_cell_angle_alpha                 89.353446
_cell_angle_beta                  90.555804
_cell_angle_gamma                 89.997979
_cell_volume                      2463.82418855

loop_
_atom_site_label
_atom_site_type_symbol
_atom_type_description
_atom_site_fract_x
_atom_site_fract_y
_atom_site_fract_z
_atom_type_partial_charge
C1    C     C_R   0.122344 0.383719 0.500610 1.027836
C2    C     C_R   0.122767 0.615600 0.499199 0.875543
C3    C     C_R   0.621460 0.882549 0.500142 0.990717
C4    C     C_R   0.622204 0.116396 0.499494 0.871367
C5    C     C_3   0.083747 0.468582 0.087779 0.572521
C6    C     C_3   0.088365 0.482991 0.920280 0.516961
C7    C     C_3   0.581833 0.963875 0.088527 0.632952
C8    C     C_3   0.587615 0.979544 0.921967 0.519039
C9    C     C_R   0.882589 0.377138 0.500462 0.962677
C10   C     C_R   0.880707 0.620956 0.500435 0.876746
C11   C     C_R   0.383027 0.876599 0.500394 0.959655
C12   C     C_R   0.380002 0.120454 0.500168 0.841387
C13   C     C_3   0.838648 0.224530 0.603505 0.097095
C14   C     C_3   0.804204 0.263418 0.348622 0.165721
C15   C     C_3   0.848701 0.780883 0.560951 0.205904
C16   C     C_3   0.776344 0.709479 0.350012 0.142658
C17   C     C_3   0.341724 0.721283 0.597527 0.103933
C18   C     C_3   0.302434 0.764813 0.346469 0.175649
C19   C     C_3   0.348340 0.278889 0.568718 0.167560
C20   C     C_3   0.280164 0.215219 0.347827 0.167614
C21   C     C_3   0.261167 0.659873 0.613617 0.590782
C22   C     C_3   0.245934 0.680994 0.356349 0.582860
C23   C     C_3   0.281450 0.354743 0.546718 0.561016
C24   C     C_3   0.204996 0.281584 0.351638 0.597264
C25   C     C_3   0.757745 0.163681 0.619555 0.573808
C26   C     C_3   0.747715 0.179863 0.360927 0.579591
C27   C     C_3   0.782267 0.855162 0.533482 0.565004
C28   C     C_3   0.700090 0.774916 0.352111 0.620461
C29   C     C_3   0.726593 0.341083 0.548114 0.593496
C30   C     C_3   0.733147 0.665962 0.596243 0.444738
C31   C     C_3   0.228362 0.837732 0.554358 0.605830
C32   C     C_3   0.228562 0.164480 0.587013 0.445290
C33   C     C_3   0.814360 0.304522 0.501144 -0.221109
C34   C     C_3   0.810895 0.691883 0.503495 -0.208595
C35   C     C_3   0.315393 0.803073 0.500675 -0.225373
C36   C     C_3   0.310448 0.191912 0.502693 -0.239553
C37   C     C_3   0.194315 0.681273 0.496917 -0.269536
C38   C     C_3   0.192887 0.316642 0.501369 -0.229805
C39   C     C_3   0.693363 0.182744 0.498556 -0.262857
C40   C     C_3   0.691813 0.815013 0.499366 -0.252001
C41   C     C_3   0.155907 0.772679 0.521767 0.407820
C42   C     C_3   0.166274 0.241659 0.600828 0.576754
C43   C     C_3   0.654407 0.274762 0.518307 0.406981
C44   C     C_3   0.667635 0.741220 0.603777 0.539620
C45   C     C_3   0.986866 0.586615 0.079561 0.628279
C46   C     C_3   0.975931 0.584213 0.914331 0.506962
C47   C     C_3   0.935194 0.441559 0.081075 0.485818
C48   C     C_3   0.942503 0.435709 0.914082 0.701444
C49   C     C_3   0.494482 0.088095 0.077925 0.614950
C50   C     C_3   0.477328 0.085100 0.914183 0.612146
C51   C     C_3   0.432890 0.945025 0.079106 0.445003
C52   C     C_3   0.440947 0.937553 0.913053 0.637392
Cu1   Cu    Cu3+1 0.000100 0.500000 0.642410 1.152821
Cu2   Cu    Cu3+1 0.000100 0.500000 0.357590 1.162357
Cu3   Cu    Cu3+1 0.500100 0.000000 0.642410 1.136169
Cu4   Cu    Cu3+1 0.500100 0.000000 0.357590 1.155805
N1    N     N_3   0.001260 0.500000 0.143650 -0.257780
N2    N     N_3   0.001260 0.500000 0.856350 -0.251372
N3    N     N_3   0.501260 0.000000 0.143650 -0.273597
N4    N     N_3   0.501260 1.000000 0.856350 -0.251307
O1    O     O_R   0.091250 0.408820 0.620260 -0.474736
O2    O     O_R   0.091250 0.408820 0.379740 -0.447389
O3    O     O_R   0.091250 0.591180 0.620260 -0.516620
O4    O     O_R   0.091250 0.591180 0.379740 -0.496946
O5    O     O_R   0.591250 0.908820 0.620260 -0.500879
O6    O     O_R   0.591250 0.908820 0.379740 -0.441197
O7    O     O_R   0.591250 0.091180 0.620260 -0.520236
O8    O     O_R   0.591250 0.091180 0.379740 -0.501107
O9    O     O_R   0.908940 0.408800 0.620260 -0.503409
O10   O     O_R   0.908940 0.408800 0.379740 -0.540870
O11   O     O_R   0.908940 0.591200 0.620260 -0.565162
O12   O     O_R   0.908940 0.591200 0.379740 -0.530887
O13   O     O_R   0.408940 0.908800 0.620260 -0.503260
O14   O     O_R   0.408940 0.908800 0.379740 -0.534278
O15   O     O_R   0.408940 0.091200 0.620260 -0.583734
O16   O     O_R   0.408940 0.091200 0.379740 -0.543766
C53   C     C_2   0.872730 0.240653 0.748100 1.003773
O17   O     O_2   0.832464 0.279800 0.831696 -0.474778
O18   O     O_R   0.945451 0.198084 0.792950 -0.767822
H1    H     H_    0.953120 0.198227 0.896069 0.337303
C54   C     C_2   0.767924 0.318500 0.228747 0.921855
O19   O     O_2   0.769504 0.290001 0.112773 -0.540843
O20   O     O_R   0.727990 0.395369 0.244835 -0.631603
H2    H     H_    0.701266 0.418011 0.157130 0.367806
C55   C     C_2   0.873926 0.783767 0.714558 0.871205
O21   O     O_2   0.820840 0.780001 0.803743 -0.552689
O22   O     O_R   0.954846 0.808889 0.753337 -0.742599
H3    H     H_    0.961977 0.814956 0.856042 0.357936
C56   C     C_2   0.747333 0.632515 0.267079 0.836399
O23   O     O_2   0.748580 0.561477 0.314903 -0.523846
O24   O     O_R   0.716388 0.645066 0.133541 -0.770908
H4    H     H_    0.698582 0.590662 0.088223 0.348929
C57   C     C_2   0.378160 0.735109 0.741577 1.005499
O25   O     O_2   0.336828 0.767012 0.831654 -0.534385
O26   O     O_R   0.455257 0.697977 0.777914 -0.767224
H5    H     H_    0.465406 0.694901 0.880430 0.332281
C58   C     C_2   0.264418 0.823107 0.232467 0.904029
O27   O     O_2   0.261236 0.797055 0.114913 -0.567021
O28   O     O_R   0.229881 0.901738 0.255835 -0.633765
H6    H     H_    0.200938 0.926961 0.171883 0.376436
C59   C     C_2   0.376566 0.274686 0.720805 0.842923
O29   O     O_2   0.329505 0.250451 0.810665 -0.491698
O30   O     O_R   0.451864 0.313368 0.761070 -0.742330
H7    H     H_    0.461211 0.312215 0.863922 0.366673
C60   C     C_2   0.251017 0.143187 0.254016 0.809045
O31   O     O_2   0.248517 0.070392 0.292700 -0.557773
O32   O     O_R   0.225723 0.162500 0.119396 -0.743903
H8    H     H_    0.207487 0.110976 0.066345 0.363519
O33   O     O_3   0.904798 0.181398 0.537626 -0.596569
H9    H     H_    0.919180 0.127634 0.584783 0.374494
O34   O     O_3   0.886298 0.241154 0.307259 -0.588067
H10   H     H_    0.883148 0.207017 0.222877 0.349501
O35   O     O_3   0.922771 0.797454 0.486618 -0.682631
H11   H     H_    0.946733 0.852468 0.514683 0.375941
O36   O     O_3   0.845241 0.745980 0.279659 -0.594031
H12   H     H_    0.835192 0.747757 0.179454 0.362653
O37   O     O_3   0.406774 0.679597 0.526600 -0.592646
H13   H     H_    0.422828 0.625741 0.572064 0.366476
O38   O     O_3   0.383538 0.743103 0.300010 -0.582550
H14   H     H_    0.378532 0.710992 0.213721 0.350557
O39   O     O_3   0.422156 0.297673 0.494874 -0.670069
H15   H     H_    0.446333 0.352033 0.525381 0.376257
O40   O     O_3   0.351160 0.252642 0.284564 -0.593015
H16   H     H_    0.344186 0.257027 0.183836 0.368170
O41   O     O_3   0.286214 0.575419 0.600553 -0.613763
H17   H     H_    0.319165 0.559815 0.684077 0.361822
O42   O     O_3   0.298701 0.609142 0.355867 -0.589441
H18   H     H_    0.309692 0.591927 0.260238 0.373914
O43   O     O_3   0.310632 0.408953 0.441728 -0.574651
H19   H     H_    0.352371 0.448924 0.480356 0.385052
O44   O     O_3   0.225300 0.349432 0.264101 -0.588584
H20   H     H_    0.234164 0.327443 0.171167 0.340740
O45   O     O_3   0.782861 0.078910 0.612401 -0.619202
H21   H     H_    0.813601 0.064852 0.698797 0.357623
O46   O     O_3   0.800349 0.107947 0.366249 -0.596277
H22   H     H_    0.812756 0.088898 0.272043 0.373474
O47   O     O_3   0.808934 0.904323 0.420353 -0.584689
H23   H     H_    0.850489 0.947026 0.451178 0.391170
O48   O     O_3   0.717672 0.839171 0.256877 -0.598556
H24   H     H_    0.722698 0.813324 0.165724 0.339689
O49   O     O_3   0.223677 0.663067 0.744216 -0.643873
H25   H     H_    0.203996 0.719456 0.767074 0.415515
O50   O     O_3   0.193224 0.672423 0.240645 -0.645933
H26   H     H_    0.151970 0.718159 0.236915 0.359055
O51   O     O_3   0.271965 0.407228 0.661346 -0.707462
H27   H     H_    0.264197 0.374327 0.744742 0.367719
O52   O     O_3   0.127094 0.249155 0.302856 -0.626405
H28   H     H_    0.116251 0.192733 0.342374 0.376185
O53   O     O_3   0.717405 0.169871 0.747856 -0.639452
H29   H     H_    0.702109 0.227842 0.769518 0.416378
O54   O     O_3   0.696913 0.169431 0.243967 -0.633942
H30   H     H_    0.655006 0.214571 0.239449 0.350607
O55   O     O_3   0.780739 0.911554 0.644201 -0.731126
H31   H     H_    0.734039 0.898503 0.704201 0.395595
O56   O     O_3   0.621366 0.740439 0.311218 -0.620171
H32   H     H_    0.613917 0.683061 0.349370 0.371022
O57   O     O_3   0.731715 0.360816 0.687950 -0.683770
H33   H     H_    0.681541 0.394120 0.713967 0.370671
O58   O     O_3   0.709375 0.416986 0.479742 -0.650840
H34   H     H_    0.650882 0.434365 0.501340 0.389200
O59   O     O_3   0.761145 0.643688 0.728999 -0.656859
H35   H     H_    0.714293 0.615016 0.777561 0.347232
O60   O     O_3   0.692876 0.595312 0.542163 -0.750045
H36   H     H_    0.729337 0.547163 0.567974 0.391435
O61   O     O_3   0.235651 0.853071 0.695388 -0.712474
H37   H     H_    0.185730 0.884955 0.726628 0.374250
O62   O     O_3   0.209599 0.915237 0.493213 -0.672088
H38   H     H_    0.151746 0.931785 0.520320 0.386225
O63   O     O_3   0.249209 0.133834 0.719559 -0.643412
H39   H     H_    0.265430 0.073588 0.717310 0.377960
O64   O     O_3   0.184724 0.100809 0.519474 -0.736416
H40   H     H_    0.223696 0.053021 0.519205 0.379024
O65   O     O_3   0.099903 0.771980 0.631972 -0.681682
H41   H     H_    0.049014 0.741462 0.602274 0.358563
O66   O     O_3   0.111085 0.802239 0.405275 -0.724271
H42   H     H_    0.063374 0.763555 0.386947 0.357479
O67   O     O_3   0.166603 0.270164 0.736754 -0.659184
H43   H     H_    0.136924 0.228644 0.795765 0.387960
O68   O     O_3   0.082652 0.218101 0.568270 -0.664392
H44   H     H_    0.067081 0.169588 0.627722 0.390361
O69   O     O_3   0.598183 0.276056 0.628387 -0.682917
H45   H     H_    0.548383 0.242804 0.602081 0.356076
O70   O     O_3   0.609580 0.301647 0.400222 -0.722448
H46   H     H_    0.561837 0.262576 0.384344 0.362398
O71   O     O_3   0.666061 0.772727 0.737461 -0.659490
H47   H     H_    0.633365 0.734025 0.797175 0.366875
O72   O     O_3   0.585224 0.713694 0.572028 -0.660390
H48   H     H_    0.572658 0.663489 0.629559 0.379215
O73   O     O_3   0.055561 0.638057 0.111038 -0.629487
H49   H     H_    0.039812 0.697585 0.090482 0.371022
O74   O     O_3   0.026219 0.648638 0.857742 -0.668396
H50   H     H_    0.002322 0.663692 0.767789 0.390251
O75   O     O_3   0.942988 0.361047 0.140587 -0.597546
H51   H     H_    0.910152 0.321410 0.084406 0.365049
O76   O     O_3   0.972229 0.357072 0.871087 -0.641915
H52   H     H_    0.010802 0.330502 0.937776 0.333034
O77   O     O_3   0.570535 0.131084 0.097561 -0.569351
H53   H     H_    0.561405 0.191924 0.076334 0.380551
O78   O     O_3   0.527999 0.147697 0.853804 -0.606615
H54   H     H_    0.501706 0.165264 0.766813 0.386052
O79   O     O_3   0.435331 0.864387 0.138753 -0.598895
H55   H     H_    0.401585 0.826556 0.080731 0.361914
O80   O     O_3   0.467111 0.858067 0.868610 -0.643589
H56   H     H_    0.503420 0.829392 0.936039 0.332625
O81   O     O_3   0.918541 0.626299 0.140251 -0.705373
H57   H     H_    0.864994 0.608647 0.099765 0.348903
O82   O     O_3   0.892334 0.601872 0.877433 -0.717342
H58   H     H_    0.881722 0.661035 0.901933 0.377797
O83   O     O_3   0.854440 0.468848 0.113744 -0.769058
H59   H     H_    0.855689 0.486923 0.209112 0.418567
O84   O     O_3   0.862531 0.443650 0.849310 -0.553122
H60   H     H_    0.821266 0.478497 0.897490 0.384509
O85   O     O_3   0.435696 0.138218 0.143510 -0.685605
H61   H     H_    0.379541 0.116520 0.128493 0.338281
O86   O     O_3   0.393560 0.107142 0.878862 -0.662462
H62   H     H_    0.351075 0.080973 0.937548 0.367784
O87   O     O_3   0.353598 0.977566 0.108052 -0.788921
H63   H     H_    0.353704 0.988167 0.206578 0.419908
O88   O     O_3   0.361270 0.950603 0.852191 -0.638871
H64   H     H_    0.320838 0.911604 0.896259 0.407666
O89   O     O_3   0.150531 0.509803 0.154570 -0.581177
H65   H     H_    0.203764 0.486039 0.119232 0.333248
O90   O     O_3   0.144351 0.548258 0.882139 -0.587744
H66   H     H_    0.156097 0.587256 0.957644 0.400415
O91   O     O_3   0.090789 0.382825 0.126290 -0.613528
H67   H     H_    0.123346 0.348408 0.063185 0.330900
O92   O     O_3   0.123457 0.411752 0.862405 -0.640064
H68   H     H_    0.182080 0.408437 0.897955 0.326099
O93   O     O_3   0.650826 0.001945 0.155036 -0.557715
H69   H     H_    0.702704 0.973098 0.125023 0.329088
O94   O     O_3   0.643579 0.046732 0.893655 -0.561933
H70   H     H_    0.702479 0.029956 0.914541 0.339111
O95   O     O_3   0.584242 0.877808 0.126933 -0.623709
H71   H     H_    0.612008 0.841334 0.060916 0.322806
O96   O     O_3   0.621538 0.908211 0.861869 -0.686856
H72   H     H_    0.678491 0.898562 0.902078 0.303885

loop_
_geom_bond_atom_site_label_1
_geom_bond_atom_site_label_2
_ccdc_geom_bond_type
C27   O55   S    
C5    O89   S    
O80   H56   S    
C7    O95   S    
C16   C28   S    
C57   O25   D    
Cu4   O16   S    
Cu1   N2    S    
C29   C33   S    
O33   H9    S    
C19   C59   S    
O63   H39   S    
C6    N2    S    
C60   O31   D    
O26   H5    S    
C2    C37   S    
C46   O74   S    
C32   O63   S    
Cu1   O9    S    
C1    O2    A    
C14   C33   S    
O59   H35   S    
O71   H47   S    
O46   H22   S    
C29   O58   S    
C49   O77   S    
C55   O21   D    
C51   O87   S    
O84   H60   S    
C60   O32   S    
C45   N1    S    
O61   H37   S    
C32   C36   S    
C26   O54   S    
C9    O9    A    
C38   C42   S    
C19   C36   S    
O58   H34   S    
O51   H27   S    
C5    C6    S    
C8    O94   S    
C26   C39   S    
C28   C40   S    
C42   O67   S    
O50   H26   S    
C11   O14   A    
C49   O85   S    
Cu3   O7    S    
C23   O43   S    
C25   O53   S    
O79   H55   S    
O92   H68   S    
C20   O40   S    
C13   O33   S    
C26   O46   S    
C52   N4    S    
C58   O28   S    
Cu1   O1    S    
C11   C35   S    
O57   H33   S    
O52   H28   S    
Cu1   Cu2   S    
C22   O50   S    
C28   O56   S    
C24   C38   S    
O96   H72   S    
C48   O84   S    
C18   C58   S    
C12   C36   S    
C25   O45   S    
C18   C35   S    
C27   C40   S    
C15   C34   S    
C17   O37   S    
C44   O71   S    
C15   C55   S    
Cu3   O15   S    
C10   O11   A    
C55   O22   S    
C41   O66   S    
C16   C56   S    
C59   O30   S    
C18   C22   S    
Cu3   N4    S    
C46   N2    S    
C9    C33   S    
C30   C44   S    
C13   C25   S    
C3    O5    A    
C28   O48   S    
C30   O60   S    
C7    N3    S    
C54   O20   S    
O62   H38   S    
C2    O4    A    
C58   O27   D    
C51   N3    S    
C53   O18   S    
C32   C42   S    
C14   O34   S    
O48   H24   S    
C13   C53   S    
Cu4   O14   S    
C30   C34   S    
O82   H58   S    
C59   O29   D    
C20   C24   S    
O40   H16   S    
C9    O10   A    
O90   H66   S    
C30   O59   S    
C11   O13   A    
O24   H4    S    
C4    O8    A    
C39   C43   S    
Cu2   O2    S    
O87   H63   S    
O81   H57   S    
C22   C37   S    
C43   O69   S    
C54   O19   D    
C51   C52   S    
C20   C36   S    
C56   O24   S    
O69   H45   S    
C19   C23   S    
O86   H62   S    
O70   H46   S    
C13   C33   S    
O93   H69   S    
C47   N1    S    
O89   H65   S    
C23   O51   S    
C25   C39   S    
C15   C27   S    
O20   H2    S    
Cu2   O10   S    
C4    C39   S    
O85   H61   S    
C42   O68   S    
O54   H30   S    
C16   C34   S    
C6    O92   S    
Cu3   Cu4   S    
C15   O35   S    
O83   H59   S    
C21   C37   S    
O73   H49   S    
C10   C34   S    
C27   O47   S    
C14   C26   S    
O38   H14   S    
C48   N2    S    
O64   H40   S    
O39   H15   S    
C1    C38   S    
O67   H43   S    
C45   O73   S    
O94   H70   S    
C32   O64   S    
C31   O62   S    
C3    C40   S    
C49   C50   S    
C47   O83   S    
C48   O76   S    
O45   H21   S    
C31   C35   S    
O18   H1    S    
C3    O6    A    
C17   C57   S    
O32   H8    S    
C21   O41   S    
O44   H20   S    
Cu1   O11   S    
C16   O36   S    
O56   H32   S    
C2    O3    A    
O35   H11   S    
C7    O93   S    
O74   H50   S    
O88   H64   S    
C41   O65   S    
C19   O39   S    
C52   O88   S    
C45   O81   S    
C31   C41   S    
O34   H10   S    
O91   H67   S    
Cu3   O5    S    
C47   O75   S    
C47   C48   S    
C24   O52   S    
C1    O1    A    
C4    O7    A    
C29   O57   S    
C50   O78   S    
Cu4   N3    S    
C31   O61   S    
O68   H44   S    
C23   C38   S    
O47   H23   S    
C49   N3    S    
O28   H6    S    
C5    N1    S    
C52   O80   S    
C50   N4    S    
C12   O16   A    
O43   H19   S    
C21   O49   S    
O72   H48   S    
O66   H42   S    
Cu4   O8    S    
O53   H29   S    
C8    N4    S    
Cu1   O3    S    
C24   O44   S    
C22   O42   S    
O41   H17   S    
Cu2   O4    S    
C50   O86   S    
Cu4   O6    S    
C43   O70   S    
C5    O91   S    
O78   H54   S    
C37   C41   S    
O77   H53   S    
C17   C21   S    
O49   H25   S    
O60   H36   S    
C7    C8    S    
C44   O72   S    
O65   H41   S    
O76   H52   S    
Cu3   O13   S    
C8    O96   S    
C45   C46   S    
C40   C44   S    
Cu2   O12   S    
O22   H3    S    
C57   O26   S    
O75   H51   S    
C12   O15   A    
C51   O79   S    
O30   H7    S    
C6    O90   S    
C20   C60   S    
C53   O17   D    
C46   O82   S    
C17   C35   S    
C14   C54   S    
O36   H12   S    
C56   O23   D    
O37   H13   S    
C18   O38   S    
C29   C43   S    
O42   H18   S    
O95   H71   S    
O55   H31   S    
Cu2   N1    S    
C10   O12   A    
