data_mof_unit_17912.cif
_audit_creation_date              2012-10-26T18:49:32-0400
_audit_creation_method            fapswitch 2.2
_symmetry_space_group_name_H-M    P1
_symmetry_Int_Tables_number       1
_space_group_crystal_system       triclinic
_cell_length_a                    19.332177
_cell_length_b                    11.013443
_cell_length_c                    9.886234
_cell_angle_alpha                 109.503955
_cell_angle_beta                  98.792535
_cell_angle_gamma                 92.501855
_cell_volume                      1950.66010473

loop_
_atom_site_label
_atom_site_type_symbol
_atom_type_description
_atom_site_fract_x
_atom_site_fract_y
_atom_site_fract_z
_atom_type_partial_charge
C1    C     C_R   0.497116 0.254553 0.443582 0.556889
C2    C     C_R   0.632843 0.499763 0.500235 0.577278
C3    C     C_R   0.259911 0.476098 0.595892 -0.088975
C4    C     C_R   0.733566 0.493464 0.371218 -0.091449
C5    C     C_R   0.187910 0.480210 0.596806 -0.012899
C6    C     C_R   0.805175 0.498984 0.363452 -0.006980
C7    C     C_R   0.146925 0.527571 0.498021 -0.001115
C8    C     C_R   0.854852 0.507131 0.487645 0.003222
C9    C     C_R   0.178265 0.572986 0.400999 0.018836
C10   C     C_R   0.832330 0.510081 0.618622 0.015405
C11   C     C_R   0.251434 0.567767 0.401603 -0.013197
C12   C     C_R   0.508962 0.744106 0.556747 0.641875
C13   C     C_R   0.759971 0.512221 0.626919 -0.007527
C14   C     C_R   0.292057 0.518252 0.500044 -0.027817
C15   C     C_R   0.709890 0.500904 0.500708 -0.005918
C16   C     C_R   0.930467 0.516280 0.483401 0.352096
C17   C     C_R   0.070779 0.524316 0.491922 0.349285
C18   C     C_2   0.156007 0.432623 0.700132 0.281652
C19   C     C_2   0.827092 0.500617 0.225909 0.279249
C20   C     C_2   0.135162 0.629647 0.302697 0.282910
C21   C     C_2   0.883504 0.503818 0.745381 0.283544
C22   C     C_2   0.286939 0.622654 0.308389 0.269216
C23   C     C_2   0.493173 0.115966 0.423989 0.003515
C24   C     C_2   0.737534 0.522078 0.766768 0.274789
C25   C     C_2   0.416937 0.950059 0.566464 0.273061
C26   C     C_2   0.578745 0.162043 0.658960 0.251331
C27   C     C_2   0.614105 0.887313 0.573380 0.208381
C28   C     C_2   0.447824 0.025348 0.289068 0.222265
C29   C     C_2   0.423355 0.418451 0.838037 0.286145
C30   C     C_2   0.548847 0.638222 0.179342 0.299711
C31   C     C_2   0.537310 0.873827 0.577382 0.026418
C32   C     C_2   0.521700 0.080052 0.539006 -0.029088
C33   C     C_2   0.493482 0.961779 0.558769 -0.042256
C34   C     C_2   0.501440 0.521863 0.083350 0.087228
C35   C     C_2   0.488699 0.499103 0.922749 0.129396
C36   C     C_R   0.367842 0.505465 0.500699 0.542926
Cu1   Cu    Cu3+1 0.512140 0.521810 0.644910 1.105220
Cu2   Cu    Cu3+1 0.487860 0.478190 0.355090 1.004482
H1    H     H_    0.291017 0.435747 0.667546 0.175313
H2    H     H_    0.704995 0.442925 0.774586 0.183937
H3    H     H_    0.383188 0.016240 0.535740 0.148939
H4    H     H_    0.581809 0.158541 0.768139 0.132751
H5    H     H_    0.636445 0.956306 0.531366 0.161221
H6    H     H_    0.417723 0.063505 0.213098 0.140323
H7    H     H_    0.373472 0.451797 0.863904 0.125691
H8    H     H_    0.587312 0.635891 0.269049 0.149407
H9    H     H_    0.695774 0.486967 0.275489 0.174913
H10   H     H_    0.577396 0.603629 0.924524 0.249146
H11   H     H_    0.438478 0.363947 0.067018 0.228801
H12   H     H_    0.099972 0.432061 0.701001 0.163682
H13   H     H_    0.881937 0.520455 0.221466 0.151784
H14   H     H_    0.145023 0.614145 0.193671 0.185482
H15   H     H_    0.875845 0.552427 0.856197 0.176227
H16   H     H_    0.334570 0.688459 0.355803 0.176407
N1    N     N_R   0.027424 0.423441 0.392855 -0.188211
N2    N     N_R   0.973983 0.617508 0.581868 -0.161276
N3    N     N_R   0.958269 0.419132 0.389118 -0.194042
N4    N     N_R   0.043131 0.621488 0.586127 -0.154395
N5    N     N_2   0.469620 0.445420 0.137370 -0.375614
N6    N     N_2   0.530380 0.554580 0.862630 -0.330390
O1    O     O_R   0.506480 0.332340 0.577400 -0.428078
O2    O     O_2   0.783791 0.480582 0.115075 -0.479365
O3    O     O_2   0.088489 0.696529 0.343553 -0.454612
O4    O     O_2   0.933546 0.439934 0.727183 -0.466880
O5    O     O_2   0.265978 0.589141 0.177202 -0.480184
O6    O     O_2   0.754126 0.620518 0.873208 -0.452107
O7    O     O_2   0.391344 0.871419 0.612148 -0.513378
O8    O     O_2   0.624810 0.226974 0.634306 -0.518787
O9    O     O_2   0.653454 0.818087 0.614837 -0.478496
O10   O     O_2   0.444320 0.908212 0.259547 -0.444123
O11   O     O_2   0.424611 0.309789 0.752049 -0.520678
O12   O     O_R   0.493520 0.667660 0.422600 -0.506497
O13   O     O_2   0.545788 0.740503 0.156945 -0.462693
O14   O     O_R   0.485980 0.295500 0.332650 -0.513865
O15   O     O_R   0.514020 0.704500 0.667350 -0.444738
O16   O     O_R   0.410390 0.518410 0.622410 -0.490082
O17   O     O_R   0.589610 0.481590 0.377590 -0.544068
O18   O     O_R   0.389900 0.481570 0.377660 -0.490801
O19   O     O_R   0.610100 0.518430 0.622340 -0.476038
O20   O     O_2   0.192121 0.393464 0.786487 -0.453729

loop_
_geom_bond_atom_site_label_1
_geom_bond_atom_site_label_2
_ccdc_geom_bond_type
C26   C32   S    
C25   O7    D    
C22   H16   S    
C6    C19   S    
Cu1   O19   S    
C18   H12   S    
C1    O14   A    
C14   C36   S    
C11   C14   A    
C19   O2    D    
C34   C35   S    
C21   O4    D    
C2    O19   A    
C36   O16   A    
C7    C17   S    
C31   C33   D    
C17   N1    A    
C27   O9    D    
C24   O6    D    
C17   N4    A    
Cu1   O15   S    
C3    H1    S    
C8    C16   S    
H10   N6    S    
C10   C21   S    
Cu2   O12   S    
C30   C34   S    
C27   C31   S    
C4    C6    A    
C25   H3    S    
C5    C7    A    
C30   O13   D    
C6    C8    A    
C5    C18   S    
Cu2   O18   S    
C28   H6    S    
C13   C24   S    
C29   H7    S    
C35   N6    D    
C16   N2    A    
C22   O5    D    
Cu1   Cu2   S    
C27   H5    S    
C9    C20   S    
C23   C28   S    
C2    C15   S    
C9    C11   A    
C3    C14   A    
C8    C10   A    
Cu1   O16   S    
C1    C23   S    
C13   C15   A    
C12   C31   S    
C34   N5    D    
C26   H4    S    
Cu2   O14   S    
C7    C9    A    
C30   H8    S    
C28   O10   D    
C3    C5    A    
C10   C13   A    
C1    O1    A    
Cu1   O1    S    
Cu2   O17   S    
C29   C35   S    
C11   C22   S    
H11   N5    S    
C26   O8    D    
C23   C32   D    
C4    C15   A    
N1    N3    A    
C20   H14   S    
C2    O17   A    
C36   O18   A    
C32   C33   S    
C21   H15   S    
C20   O3    D    
C24   H2    S    
N2    N4    A    
C16   N3    A    
C12   O12   A    
Cu1   N6    S    
Cu2   N5    S    
C19   H13   S    
C18   O20   D    
C12   O15   A    
C25   C33   S    
C29   O11   D    
C4    H9    S    
