data_mof_unit_49291.cif
_audit_creation_date              2012-12-11T17:24:10-0500
_audit_creation_method            fapswitch 2.2
_symmetry_space_group_name_H-M    P1
_symmetry_Int_Tables_number       1
_space_group_crystal_system       triclinic
_cell_length_a                    22.636452
_cell_length_b                    7.19949
_cell_length_c                    21.129622
_cell_angle_alpha                 89.741099
_cell_angle_beta                  93.542197
_cell_angle_gamma                 89.682368
_cell_volume                      3436.84153988

loop_
_atom_site_label
_atom_site_type_symbol
_atom_type_description
_atom_site_fract_x
_atom_site_fract_y
_atom_site_fract_z
_atom_type_partial_charge
O1    O     O_R   0.307200 0.614510 0.194080 -0.531805
O2    O     O_R   0.692800 0.385490 0.805920 -0.536666
O3    O     O_R   0.192800 0.114510 0.305920 -0.530079
O4    O     O_R   0.807200 0.885490 0.694080 -0.538599
O5    O     O_R   0.188140 0.283260 0.181690 -0.541017
O6    O     O_R   0.811860 0.716740 0.818310 -0.537994
O7    O     O_R   0.311860 0.783260 0.318310 -0.536959
O8    O     O_R   0.688140 0.216740 0.681690 -0.541722
C1    C     C_R   0.168363 0.453782 0.165736 0.806613
C2    C     C_R   0.831869 0.545750 0.833449 0.801232
C3    C     C_R   0.331869 0.952606 0.333508 0.801229
C4    C     C_R   0.668742 0.046711 0.665399 0.812715
O9    O     O_R   0.306460 0.284700 0.186400 -0.541332
O10   O     O_R   0.693540 0.715300 0.813600 -0.530212
O11   O     O_R   0.193540 0.784700 0.313600 -0.537054
O12   O     O_R   0.806460 0.215300 0.686400 -0.534633
O13   O     O_R   0.311970 0.115840 0.310660 -0.534623
O14   O     O_R   0.688030 0.884160 0.689340 -0.539448
O15   O     O_R   0.188030 0.615840 0.189340 -0.532188
O16   O     O_R   0.811970 0.384160 0.810660 -0.535340
C5    C     C_R   0.324804 0.453470 0.171146 0.728859
C6    C     C_R   0.675571 0.546484 0.829301 0.703761
C7    C     C_R   0.176221 0.953760 0.329988 0.706578
C8    C     C_R   0.825047 0.046521 0.671397 0.729106
O17   O     O_3   0.251670 0.448440 0.290760 -0.371625
O18   O     O_3   0.748330 0.551560 0.709240 -0.392030
O19   O     O_3   0.248330 0.948440 0.209240 -0.390026
O20   O     O_3   0.751670 0.051560 0.790760 -0.375060
V1    V     V_3+5 0.249690 0.173030 0.242440 1.428035
V2    V     V_3+5 0.750310 0.826970 0.757560 1.436598
V3    V     V_3+5 0.250310 0.673030 0.257560 1.451443
V4    V     V_3+5 0.749690 0.326970 0.742440 1.421424
H1    H     H_    0.039572 0.286617 0.452847 0.116092
H2    H     H_    0.963227 0.714290 0.550378 0.114577
H3    H     H_    0.449305 0.786220 0.034267 0.113330
H4    H     H_    0.549737 0.214150 0.964748 0.115280
C9    C     C_R   0.977924 0.174067 0.516371 -0.155252
C10   C     C_R   0.024897 0.826821 0.486856 -0.157702
C11   C     C_R   0.516172 0.673958 0.976817 -0.151629
C12   C     C_R   0.482820 0.326402 0.022131 -0.160799
H5    H     H_    0.960218 0.309449 0.527369 0.113451
H6    H     H_    0.042554 0.691419 0.475802 0.114083
H7    H     H_    0.528576 0.809448 0.959681 0.114865
H8    H     H_    0.470498 0.190964 0.039392 0.112163
C13   C     C_R   0.955738 0.013514 0.544259 0.134924
C14   C     C_R   0.047031 0.987361 0.458896 0.136162
C15   C     C_R   0.545098 0.513547 0.956744 0.135784
C16   C     C_R   0.453882 0.486808 0.042171 0.137386
C17   C     C_R   0.979620 0.839836 0.529282 -0.159883
C18   C     C_R   0.023211 0.161061 0.473964 -0.151636
C19   C     C_R   0.528055 0.339668 0.979676 -0.155450
C20   C     C_R   0.470924 0.660683 0.019255 -0.155524
C21   C     C_1   0.908976 0.026796 0.588397 -0.054156
C22   C     C_1   0.093437 0.973995 0.414316 -0.061363
C23   C     C_1   0.591727 0.526972 0.912428 -0.060479
C24   C     C_1   0.407510 0.473449 0.086765 -0.057811
C25   C     C_1   0.131632 0.963897 0.376443 -0.174328
C26   C     C_1   0.870352 0.036761 0.625771 -0.166213
C27   C     C_1   0.369395 0.463351 0.124728 -0.165048
C28   C     C_1   0.630285 0.536942 0.874972 -0.169803
C29   C     C_R   0.438727 0.907809 0.368469 0.340983
C30   C     C_R   0.564471 0.118751 0.624511 0.307010
C31   C     C_R   0.064492 0.549328 0.128881 0.311392
C32   C     C_R   0.938453 0.486001 0.865664 0.338550
C33   C     C_R   0.381091 0.960124 0.383079 -0.262296
C34   C     C_R   0.619662 0.034904 0.615149 -0.257221
C35   C     C_R   0.118536 0.462679 0.116015 -0.258285
C36   C     C_R   0.880965 0.530266 0.883015 -0.264356
C37   C     C_R   0.370348 0.023850 0.444330 0.359951
C38   C     C_R   0.626799 0.928953 0.559836 0.332589
C39   C     C_R   0.124099 0.378573 0.056256 0.336713
C40   C     C_R   0.869330 0.546854 0.947581 0.371673
C41   C     C_R   0.417989 0.042172 0.490973 -0.073376
C42   C     C_R   0.580394 0.922879 0.511076 -0.078470
C43   C     C_R   0.078082 0.401034 0.007531 -0.080174
C44   C     C_R   0.916431 0.532070 0.995421 -0.060243
C45   C     C_R   0.475434 0.979648 0.477135 -0.073753
C46   C     C_R   0.523770 0.994707 0.523264 -0.063946
C47   C     C_R   0.022049 0.468335 0.023710 -0.063051
C48   C     C_R   0.973941 0.482158 0.977474 -0.078698
C49   C     C_R   0.484913 0.904000 0.417007 -0.029580
C50   C     C_R   0.515277 0.081850 0.581614 -0.043221
C51   C     C_R   0.014341 0.526358 0.085965 -0.039417
C52   C     C_R   0.983785 0.447725 0.913255 -0.026728
C53   C     C_R   0.409816 0.118840 0.551446 0.436503
C54   C     C_R   0.588668 0.845439 0.450704 0.404874
C55   C     C_R   0.086242 0.358312 0.943303 0.408075
C56   C     C_R   0.907242 0.559341 0.060736 0.468041
C57   C     C_R   0.457652 0.128601 0.596546 -0.269170
C58   C     C_R   0.540792 0.829876 0.405931 -0.258485
C59   C     C_R   0.039171 0.378743 0.897518 -0.259180
C60   C     C_R   0.956943 0.560189 0.104586 -0.301081
H9    H     H_    0.449117 0.173118 0.643879 0.160482
H10   H     H_    0.548379 0.762727 0.361355 0.160313
H11   H     H_    0.046823 0.342598 0.848978 0.159757
H12   H     H_    0.951446 0.584278 0.154126 0.152076
O21   O     O_3   0.448581 0.858733 0.306422 -0.573531
C61   C     C_3   0.482839 0.996352 0.277343 0.042054
H13   H     H_    0.498987 0.935437 0.233342 0.145909
H14   H     H_    0.522986 0.036256 0.306948 0.115337
C62   C     C_3   0.446650 0.171487 0.259209 -0.319067
H15   H     H_    0.409486 0.134199 0.224989 0.204217
H16   H     H_    0.428338 0.232787 0.302022 0.194464
C63   C     C_3   0.485207 0.317719 0.229633 -0.811056
H17   H     H_    0.524392 0.349479 0.261954 0.229155
H18   H     H_    0.459473 0.448145 0.221551 0.243965
H19   H     H_    0.500266 0.267740 0.183611 0.228854
O22   O     O_3   0.558341 0.223588 0.678642 -0.568875
C64   C     C_3   0.546925 0.411566 0.661444 0.094821
H20   H     H_    0.499261 0.432957 0.647979 0.128954
H21   H     H_    0.572528 0.457293 0.620757 0.079168
C65   C     C_3   0.563643 0.535626 0.717987 -0.296110
H22   H     H_    0.552982 0.465336 0.762778 0.210441
H23   H     H_    0.611915 0.561505 0.718987 0.185541
C66   C     C_3   0.530755 0.720897 0.713300 -0.813389
H24   H     H_    0.534651 0.781875 0.665628 0.231607
H25   H     H_    0.549886 0.817932 0.749668 0.244148
H26   H     H_    0.483133 0.700495 0.721093 0.233085
O23   O     O_3   0.061008 0.649883 0.184457 -0.567657
C67   C     C_3   0.044471 0.836562 0.169615 0.087512
H27   H     H_    0.995624 0.851399 0.166117 0.136911
H28   H     H_    0.061882 0.886667 0.124255 0.088618
C68   C     C_3   0.068121 0.963540 0.222374 -0.300805
H29   H     H_    0.060642 0.898695 0.268937 0.204634
H30   H     H_    0.116201 0.982035 0.217411 0.198733
C69   C     C_3   0.037458 0.152747 0.218847 -0.813889
H31   H     H_    0.037434 0.208543 0.169942 0.227711
H32   H     H_    0.061055 0.250593 0.251946 0.245669
H33   H     H_    0.990917 0.140023 0.232118 0.230384
O24   O     O_3   0.948936 0.473916 0.801729 -0.575106
C70   C     C_3   0.984122 0.625549 0.783463 0.037868
H34   H     H_    0.006625 0.582998 0.740526 0.146401
H35   H     H_    0.019866 0.662795 0.819699 0.115627
C71   C     C_3   0.946069 0.797519 0.766970 -0.314321
H36   H     H_    0.912618 0.761933 0.728422 0.206428
H37   H     H_    0.922970 0.842474 0.809199 0.195538
C72   C     C_3   0.983748 0.958654 0.745584 -0.806410
H38   H     H_    0.018052 0.994576 0.783358 0.233325
H39   H     H_    0.955253 0.082759 0.735822 0.248346
H40   H     H_    0.005536 0.921397 0.701655 0.229357
O25   O     O_3   0.313511 0.077900 0.456994 -0.532986
C73   C     C_3   0.282938 0.920813 0.477741 -0.176787
H41   H     H_    0.238911 0.966319 0.492304 0.158736
H42   H     H_    0.306660 0.853546 0.519538 0.140097
H43   H     H_    0.275490 0.817938 0.439060 0.104881
O26   O     O_3   0.680793 0.842903 0.552320 -0.544720
C74   C     C_3   0.675739 0.651650 0.566352 -0.103977
H44   H     H_    0.719533 0.584536 0.562125 0.143187
H45   H     H_    0.643571 0.580949 0.532832 0.129238
H46   H     H_    0.662690 0.628144 0.615473 0.124310
O27   O     O_3   0.176492 0.288492 0.044651 -0.541411
C75   C     C_3   0.167571 0.094908 0.049376 -0.126660
H47   H     H_    0.210049 0.022930 0.042093 0.141665
H48   H     H_    0.134415 0.044575 0.012457 0.134762
H49   H     H_    0.153663 0.054217 0.097015 0.117506
O28   O     O_3   0.812176 0.587414 0.963208 -0.526853
C76   C     C_3   0.781016 0.419355 0.969104 -0.155872
H50   H     H_    0.739941 0.448512 0.993425 0.156339
H51   H     H_    0.806847 0.313366 0.997824 0.121628
H52   H     H_    0.767770 0.361214 0.921874 0.118174
O29   O     O_3   0.354623 0.179316 0.567876 -0.549963
C77   C     C_3   0.353581 0.375691 0.573552 0.125822
H53   H     H_    0.316995 0.429750 0.540963 0.153194
H54   H     H_    0.394785 0.446374 0.559736 0.082569
C78   C     C_3   0.341065 0.429149 0.641528 -0.336846
H55   H     H_    0.298816 0.365137 0.654314 0.210337
H56   H     H_    0.377023 0.375929 0.674957 0.189471
C79   C     C_3   0.336686 0.639428 0.649044 -0.827774
H57   H     H_    0.377895 0.707345 0.634990 0.236427
H58   H     H_    0.330240 0.673255 0.699385 0.237638
H59   H     H_    0.298297 0.694808 0.619452 0.229605
O30   O     O_3   0.643572 0.783177 0.434488 -0.559391
C80   C     C_3   0.670911 0.926006 0.401036 0.124251
H60   H     H_    0.673763 0.056175 0.429517 0.125453
H61   H     H_    0.645692 0.954366 0.354987 0.090847
C81   C     C_3   0.733621 0.864350 0.387734 -0.267475
H62   H     H_    0.759263 0.836168 0.433388 0.216531
H63   H     H_    0.731608 0.733989 0.359699 0.189166
C82   C     C_3   0.765342 0.012735 0.350981 -0.862418
H64   H     H_    0.740931 0.040808 0.304669 0.232207
H65   H     H_    0.810648 0.963638 0.342024 0.238300
H66   H     H_    0.768867 0.143465 0.378653 0.237838
O31   O     O_3   0.140324 0.297272 0.924233 -0.558020
C83   C     C_3   0.171511 0.451238 0.901899 0.123647
H67   H     H_    0.175697 0.562377 0.938534 0.120953
H68   H     H_    0.148491 0.508714 0.857875 0.092847
C84   C     C_3   0.233613 0.387954 0.886830 -0.265883
H69   H     H_    0.256898 0.329695 0.930426 0.217225
H70   H     H_    0.230263 0.277090 0.850352 0.191060
C85   C     C_3   0.269659 0.548618 0.862292 -0.852874
H71   H     H_    0.247739 0.606905 0.818018 0.231323
H72   H     H_    0.314434 0.497931 0.851870 0.238118
H73   H     H_    0.274480 0.659779 0.898512 0.235248
O32   O     O_3   0.850194 0.600213 0.078626 -0.544632
C86   C     C_3   0.836797 0.531398 0.139146 0.094157
H74   H     H_    0.789978 0.569720 0.145742 0.148156
H75   H     H_    0.862348 0.603212 0.178178 0.101971
C87   C     C_3   0.841611 0.318259 0.144674 -0.346821
H76   H     H_    0.810986 0.253561 0.108212 0.197964
H77   H     H_    0.887268 0.270099 0.136958 0.192920
C88   C     C_3   0.825576 0.251361 0.210024 -0.827627
H78   H     H_    0.856433 0.310883 0.247424 0.234978
H79   H     H_    0.828966 0.097514 0.212514 0.235374
H80   H     H_    0.779515 0.293056 0.218931 0.229849

loop_
_geom_bond_atom_site_label_1
_geom_bond_atom_site_label_2
_ccdc_geom_bond_type
O17   V3    S    
C39   C43   A    
O1    C5    A    
C85   H71   S    
C40   O28   S    
C58   H10   S    
C55   C59   A    
O19   V1    S    
O13   V1    S    
C88   H78   S    
O3    C7    A    
C74   H44   S    
C60   H12   S    
C40   C44   A    
C70   C71   S    
O15   V3    S    
C71   C72   S    
C65   H23   S    
O29   C77   S    
C68   H29   S    
C10   C17   A    
C80   H60   S    
C83   H67   S    
O7    C3    A    
C51   C60   A    
C72   H39   S    
C62   H15   S    
C50   C57   A    
C54   O30   S    
C32   C36   A    
C11   C15   A    
O28   C76   S    
C74   H45   S    
C5    C27   S    
C16   C20   A    
C64   H21   S    
C55   O31   S    
O4    C8    A    
C79   H58   S    
C68   H30   S    
C30   O22   S    
C37   O25   S    
C66   H24   S    
O1    V3    S    
C53   O29   S    
O22   C64   S    
O2    V4    S    
O3    V1    S    
C38   C42   A    
C65   H22   S    
C84   C85   S    
C85   H73   S    
C1    O15   A    
C79   H59   S    
C39   O27   S    
C56   C60   A    
C2    O16   A    
C66   H25   S    
O2    C6    A    
C69   H32   S    
O27   C75   S    
C37   C41   A    
C87   H76   S    
C38   O26   S    
C52   C59   A    
C13   C17   A    
C44   C56   A    
C77   H54   S    
C16   C24   S    
C67   C68   S    
C36   C40   A    
C82   H66   S    
O11   C7    A    
O32   C86   S    
C30   C50   A    
C13   C21   S    
O12   C8    A    
C23   C28   T    
C76   H50   S    
C88   H79   S    
C73   H43   S    
O10   V2    S    
C63   H18   S    
C63   H17   S    
C67   H28   S    
O21   C61   S    
O5    V1    S    
C80   H61   S    
C72   H40   S    
C31   C35   A    
O7    V3    S    
C30   C34   A    
C48   C52   A    
O8    V4    S    
C56   O32   S    
C74   H46   S    
C54   C58   A    
C64   C65   S    
C53   C57   A    
O18   V4    S    
C68   C69   S    
C11   H7    S    
C86   H74   S    
C69   H33   S    
H1    C18   S    
C45   C46   A    
C4    C34   S    
C77   H53   S    
C82   H64   S    
C31   C51   A    
C57   H9    S    
C76   H51   S    
O31   C83   S    
C1    C35   S    
O5    C1    A    
C15   C19   A    
C77   C78   S    
C31   O23   S    
C46   C50   A    
C75   H49   S    
C45   C49   A    
O8    C4    A    
C66   H26   S    
C14   C22   S    
C87   C88   S    
C67   H27   S    
O9    C5    A    
C42   C54   A    
O23   C67   S    
C41   C53   A    
H4    C19   S    
C83   C84   S    
C7    C25   S    
C49   C58   A    
C8    C26   S    
C79   H57   S    
O6    V2    S    
C75   H48   S    
C76   H52   S    
C61   H14   S    
O14   V2    S    
C88   H80   S    
C73   H42   S    
C9    C13   A    
C70   H34   S    
C12   C19   A    
O30   C80   S    
C15   C23   S    
O26   C74   S    
O16   V4    S    
C80   C81   S    
O9    V1    S    
C12   C16   A    
C3    O13   A    
H2    C17   S    
C85   H72   S    
C6    C28   S    
C29   O21   S    
C44   C48   A    
C32   O24   S    
C70   H35   S    
O6    C2    A    
C71   H37   S    
C21   C26   T    
C24   C27   T    
O11   V3    S    
C71   H36   S    
C2    C36   S    
O12   V4    S    
C61   C62   S    
C72   H38   S    
C14   C18   A    
C78   C79   S    
C62   H16   S    
C32   C52   A    
C81   C82   S    
C81   H62   S    
O24   C70   S    
C84   H69   S    
C29   C49   A    
O25   C73   S    
C10   C14   A    
C47   C51   A    
C9    C18   A    
O10   C6    A    
C34   C38   A    
C69   H31   S    
C33   C37   A    
O20   V2    S    
C83   H68   S    
C11   C20   A    
C35   C39   A    
C65   C66   S    
C9    H5    S    
C84   H70   S    
C59   H11   S    
C47   C48   A    
C10   H6    S    
C29   C33   A    
C78   H55   S    
C12   H8    S    
C75   H47   S    
C86   C87   S    
C78   H56   S    
C61   H13   S    
C42   C46   A    
C4    O14   A    
H3    C20   S    
C41   C45   A    
C73   H41   S    
C87   H77   S    
C62   C63   S    
C82   H65   S    
C64   H20   S    
C43   C47   A    
C63   H19   S    
O4    V2    S    
C43   C55   A    
C3    C33   S    
C81   H63   S    
C86   H75   S    
C22   C25   T    
