data_mof_unit_17092.cif
_audit_creation_date              2012-12-11T16:07:23-0500
_audit_creation_method            fapswitch 2.2
_symmetry_space_group_name_H-M    P1
_symmetry_Int_Tables_number       1
_space_group_crystal_system       triclinic
_cell_length_a                    17.168128
_cell_length_b                    17.167776
_cell_length_c                    17.230928
_cell_angle_alpha                 89.81866
_cell_angle_beta                  90.180349
_cell_angle_gamma                 90.003387
_cell_volume                      5078.56857744

loop_
_atom_site_label
_atom_site_type_symbol
_atom_type_description
_atom_site_fract_x
_atom_site_fract_y
_atom_site_fract_z
_atom_type_partial_charge
C1    C     C_R   0.420894 0.671805 0.644781 0.687997
C2    C     C_R   0.609124 0.699070 0.600865 0.776979
C3    C     C_3   0.752028 0.283786 0.731469 0.568999
C4    C     C_3   0.814081 0.774658 0.367071 0.616659
C5    C     C_3   0.185796 0.225411 0.632927 0.615400
C6    C     C_3   0.715765 0.245130 0.269510 0.570862
C7    C     C_3   0.244876 0.715488 0.730666 0.571461
C8    C     C_3   0.784073 0.746613 0.769124 0.571276
C9    C     C_3   0.216201 0.253156 0.230797 0.568728
C10   C     C_3   0.686226 0.276197 0.868156 0.615356
C11   C     C_3   0.276552 0.686485 0.131753 0.614854
C12   C     C_3   0.253143 0.216187 0.769196 0.568685
C13   C     C_R   0.671756 0.420930 0.355182 0.688254
C14   C     C_3   0.746695 0.783980 0.230829 0.571153
C15   C     C_3   0.314459 0.726911 0.865607 0.617194
C16   C     C_3   0.726585 0.314244 0.134280 0.616680
C17   C     C_R   0.330114 0.579613 0.646322 0.749304
C18   C     C_R   0.607541 0.699482 0.398580 0.743061
C19   C     C_R   0.392114 0.300531 0.601131 0.741360
C20   C     C_R   0.329161 0.578276 0.354321 0.691568
C21   C     C_R   0.668915 0.421315 0.647165 0.748498
C22   C     C_R   0.891159 0.198953 0.101377 0.780211
C23   C     C_R   0.107484 0.800661 0.898580 0.742874
C24   C     C_R   0.171457 0.078585 0.145310 0.691289
C25   C     C_R   0.579569 0.330150 0.353655 0.749016
C26   C     C_R   0.828532 0.921459 0.854702 0.688975
C27   C     C_R   0.109111 0.800767 0.100807 0.774882
C28   C     C_R   0.892157 0.199582 0.899082 0.739880
C29   C     C_R   0.830809 0.920753 0.146737 0.749480
C30   C     C_R   0.169150 0.079155 0.853248 0.747393
C31   C     C_R   0.920744 0.830801 0.853268 0.749627
C32   C     C_R   0.079164 0.169160 0.146746 0.747344
C33   C     C_R   0.198960 0.891142 0.898673 0.780453
C34   C     C_R   0.800677 0.107476 0.101479 0.743012
C35   C     C_R   0.078576 0.171447 0.854682 0.691356
C36   C     C_R   0.699483 0.607541 0.601408 0.743094
C37   C     C_R   0.921465 0.828542 0.145306 0.689006
C38   C     C_R   0.800760 0.109134 0.899252 0.775203
C39   C     C_R   0.199564 0.892164 0.100985 0.740015
C40   C     C_3   0.261779 0.263397 0.344586 0.095441
C41   C     C_3   0.738509 0.736357 0.655333 0.096969
C42   C     C_3   0.322018 0.674805 0.246948 0.081295
C43   C     C_3   0.674836 0.321949 0.753039 0.081484
C44   C     C_3   0.736360 0.738503 0.344647 0.096804
C45   C     C_3   0.263393 0.261776 0.655412 0.095464
C46   C     C_3   0.679659 0.323707 0.248753 0.079822
C47   C     C_R   0.300533 0.392117 0.398868 0.741239
C48   C     C_3   0.323664 0.679732 0.751215 0.080013
C49   C     C_3   0.820887 0.824686 0.747857 0.080573
C50   C     C_3   0.179070 0.175267 0.252171 0.080244
C51   C     C_3   0.763123 0.238810 0.845448 0.097241
C52   C     C_3   0.238768 0.763125 0.154673 0.096721
C53   C     C_3   0.175255 0.179060 0.747818 0.080230
C54   C     C_3   0.824697 0.820906 0.252152 0.080507
C55   C     C_3   0.235946 0.761923 0.843989 0.096214
C56   C     C_3   0.761949 0.235944 0.156108 0.095804
C57   C     C_R   0.362876 0.639296 0.688822 -0.367762
C58   C     C_R   0.578312 0.329107 0.645644 0.691189
C59   C     C_R   0.639208 0.362946 0.311120 -0.367835
C60   C     C_R   0.685998 0.684384 0.615317 -0.357406
C61   C     C_R   0.314296 0.315361 0.384608 -0.356770
C62   C     C_R   0.635532 0.362364 0.690277 -0.372429
C63   C     C_R   0.362457 0.635465 0.309670 -0.372564
C64   C     C_R   0.315360 0.314296 0.615395 -0.356861
C65   C     C_R   0.684382 0.685992 0.384662 -0.357365
C66   C     C_R   0.814331 0.184236 0.115875 -0.356355
C67   C     C_R   0.184252 0.814300 0.884234 -0.356168
C68   C     C_R   0.138563 0.136019 0.189636 -0.370230
C69   C     C_R   0.421358 0.668884 0.352816 0.748122
C70   C     C_R   0.861347 0.863960 0.810404 -0.370166
C71   C     C_R   0.186047 0.815265 0.114857 -0.358010
C72   C     C_R   0.815250 0.186086 0.885266 -0.357890
C73   C     C_R   0.863978 0.861369 0.189611 -0.370200
C74   C     C_R   0.136006 0.138550 0.810354 -0.370237
C75   C     C_3   0.815097 0.710362 0.694569 -0.170006
C76   C     C_3   0.185292 0.289630 0.305286 -0.173221
C77   C     C_3   0.648052 0.246013 0.793141 -0.187065
C78   C     C_3   0.353536 0.711576 0.171579 -0.311699
C79   C     C_3   0.227830 0.292389 0.731437 -0.328388
C80   C     C_R   0.300930 0.391248 0.601222 0.777062
C81   C     C_3   0.771828 0.707745 0.268624 -0.333719
C82   C     C_3   0.349551 0.756955 0.789135 -0.182961
C83   C     C_3   0.648360 0.290091 0.171863 -0.321170
C84   C     C_3   0.756686 0.349744 0.210546 -0.183235
C85   C     C_3   0.290461 0.648498 0.828312 -0.322487
C86   C     C_3   0.710322 0.815028 0.305314 -0.169841
C87   C     C_3   0.289620 0.185282 0.694708 -0.173113
C88   C     C_3   0.246315 0.647862 0.206526 -0.187465
C89   C     C_3   0.711149 0.353407 0.828651 -0.313245
C90   C     C_3   0.292397 0.227837 0.268561 -0.328280
C91   C     C_R   0.699067 0.609118 0.399124 0.776799
C92   C     C_3   0.707778 0.771701 0.731424 -0.333943
C93   C     C_3   0.255554 0.148887 0.291654 -0.186059
C94   C     C_3   0.744297 0.850831 0.708447 -0.184316
C95   C     C_3   0.208018 0.725839 0.230050 -0.326218
C96   C     C_3   0.789732 0.314765 0.805527 -0.175940
C97   C     C_3   0.789755 0.852424 0.328166 -0.319276
C98   C     C_3   0.210305 0.147684 0.671798 -0.314249
C99   C     C_3   0.792489 0.270081 0.232995 -0.334589
C100  C     C_3   0.210176 0.684706 0.806269 -0.167290
C101  C     C_3   0.269677 0.792395 0.766896 -0.336242
C102  C     C_R   0.391247 0.300929 0.398780 0.777026
C103  C     C_3   0.684924 0.210029 0.194118 -0.167624
C104  C     C_3   0.148882 0.255550 0.708339 -0.186008
C105  C     C_3   0.850888 0.744380 0.291657 -0.184251
C106  C     C_3   0.726285 0.208128 0.769830 -0.328091
C107  C     C_3   0.314491 0.789887 0.194924 -0.176429
C108  C     C_3   0.852379 0.789868 0.671775 -0.319537
C109  C     C_3   0.147689 0.210313 0.328190 -0.314229
C110  C     C_3   0.225410 0.185798 0.367065 0.615402
C111  C     C_3   0.774553 0.814147 0.632966 0.616811
C112  C     C_3   0.283458 0.751739 0.268732 0.568386
F1    F     F_    0.458977 0.738909 0.659961 -0.636900
F2    F     F_    0.579773 0.771060 0.586866 -0.541095
F3    F     F_    0.738885 0.458968 0.339996 -0.636720
F4    F     F_    0.264402 0.540575 0.665140 -0.613672
F5    F     F_    0.577050 0.770635 0.413735 -0.561043
F6    F     F_    0.421744 0.229290 0.584780 -0.560893
F7    F     F_    0.261598 0.540999 0.338899 -0.640195
F8    F     F_    0.734985 0.459763 0.666136 -0.619911
F9    F     F_    0.921053 0.270961 0.088831 -0.540050
F10   F     F_    0.077053 0.729424 0.913913 -0.561626
F11   F     F_    0.238896 0.041002 0.160730 -0.640572
F12   F     F_    0.540572 0.264406 0.334860 -0.613834
F13   F     F_    0.761290 0.959353 0.839202 -0.636925
F14   F     F_    0.079615 0.728897 0.086925 -0.542014
F15   F     F_    0.922115 0.270682 0.915652 -0.560686
F16   F     F_    0.764865 0.959306 0.165499 -0.618821
F17   F     F_    0.234951 0.040377 0.834466 -0.614717
F18   F     F_    0.959322 0.764873 0.834495 -0.618824
F19   F     F_    0.040401 0.234971 0.165520 -0.614734
F20   F     F_    0.270961 0.921050 0.911215 -0.539878
F21   F     F_    0.729428 0.077073 0.086151 -0.561414
F22   F     F_    0.040970 0.238873 0.839247 -0.640636
F23   F     F_    0.770632 0.577043 0.586247 -0.561090
F24   F     F_    0.959327 0.761279 0.160801 -0.636882
F25   F     F_    0.728896 0.079622 0.913129 -0.541821
F26   F     F_    0.270680 0.922091 0.084430 -0.560451
F27   F     F_    0.229294 0.421756 0.415206 -0.560882
F28   F     F_    0.540993 0.261565 0.661052 -0.640400
F29   F     F_    0.459752 0.734997 0.333875 -0.620064
F30   F     F_    0.229056 0.421438 0.588461 -0.540686
F31   F     F_    0.771055 0.579762 0.413112 -0.541134
F32   F     F_    0.421436 0.229053 0.411538 -0.540699
H1    H     H_    0.843643 0.652519 0.690943 0.239558
H2    H     H_    0.301309 0.589787 0.853233 0.187094
H3    H     H_    0.652440 0.843506 0.308848 0.239533
H4    H     H_    0.347597 0.156993 0.691187 0.238315
H5    H     H_    0.219149 0.589261 0.208516 0.227373
H6    H     H_    0.702577 0.412740 0.852545 0.186230
H7    H     H_    0.351218 0.236678 0.243352 0.205456
H8    H     H_    0.649001 0.762593 0.756646 0.201102
H9    H     H_    0.283733 0.090822 0.288920 0.229343
H10   H     H_    0.715892 0.908778 0.711330 0.230786
H11   H     H_    0.148845 0.733324 0.254821 0.202343
H12   H     H_    0.157004 0.347609 0.308806 0.238338
H13   H     H_    0.848061 0.342440 0.808496 0.237831
H14   H     H_    0.799471 0.911486 0.352353 0.186214
H15   H     H_    0.200764 0.088610 0.647574 0.187277
H16   H     H_    0.851069 0.260223 0.258754 0.204573
H17   H     H_    0.152764 0.655479 0.811213 0.240416
H18   H     H_    0.259503 0.850874 0.741026 0.204300
H19   H     H_    0.655918 0.152479 0.189474 0.240356
H20   H     H_    0.090819 0.283733 0.711073 0.229335
H21   H     H_    0.908877 0.716053 0.288851 0.230624
H22   H     H_    0.734127 0.149060 0.744915 0.202028
H23   H     H_    0.589599 0.218556 0.790873 0.227855
H24   H     H_    0.341905 0.848357 0.192287 0.237696
H25   H     H_    0.911407 0.799681 0.647546 0.186158
H26   H     H_    0.088614 0.200774 0.352409 0.187261
H27   H     H_    0.201399 0.103987 0.438857 0.303705
H28   H     H_    0.798262 0.896140 0.561279 0.304354
H29   H     H_    0.257490 0.834920 0.338043 0.319999
H30   H     H_    0.835648 0.258411 0.662466 0.320184
H31   H     H_    0.895950 0.798542 0.438836 0.304308
H32   H     H_    0.104008 0.201382 0.561118 0.303720
H33   H     H_    0.738378 0.159261 0.337381 0.323897
H34   H     H_    0.412976 0.703364 0.147822 0.186425
H35   H     H_    0.158638 0.737573 0.663089 0.324110
H36   H     H_    0.760578 0.661623 0.837661 0.323297
H37   H     H_    0.240131 0.337888 0.162092 0.320778
H38   H     H_    0.605548 0.301523 0.940245 0.303266
H39   H     H_    0.302430 0.606224 0.059396 0.303160
H40   H     H_    0.337839 0.240168 0.837925 0.320772
H41   H     H_    0.661910 0.760154 0.162158 0.323146
H42   H     H_    0.397882 0.704691 0.936260 0.304899
H43   H     H_    0.703869 0.397306 0.063357 0.304780
H44   H     H_    0.236673 0.351208 0.756651 0.205472
H45   H     H_    0.762816 0.648935 0.243445 0.201193
H46   H     H_    0.407024 0.786182 0.785145 0.233216
H47   H     H_    0.589548 0.300621 0.147047 0.187262
H48   H     H_    0.785661 0.407364 0.214282 0.232807
N1    N     N_R   0.424590 0.632770 0.578330 -0.146789
N2    N     N_R   0.575410 0.632770 0.578330 -0.205680
N3    N     N_R   0.632770 0.424590 0.421670 -0.146742
N4    N     N_R   0.367230 0.575410 0.578330 -0.150889
N5    N     N_R   0.575410 0.632770 0.421670 -0.204587
N6    N     N_R   0.424590 0.367230 0.578330 -0.201960
N7    N     N_R   0.367230 0.575410 0.421670 -0.144725
N8    N     N_R   0.632770 0.424590 0.578330 -0.147969
N9    N     N_R   0.924590 0.132770 0.078330 -0.208915
N10   N     N_R   0.075410 0.867230 0.921670 -0.204534
N11   N     N_R   0.132770 0.075410 0.078330 -0.145308
N12   N     N_R   0.575410 0.367230 0.421670 -0.150774
N13   N     N_R   0.867230 0.924590 0.921670 -0.146294
N14   N     N_R   0.075410 0.867230 0.078330 -0.205436
N15   N     N_R   0.924590 0.132770 0.921670 -0.201632
N16   N     N_R   0.867230 0.924590 0.078330 -0.148730
N17   N     N_R   0.132770 0.075410 0.921670 -0.149682
N18   N     N_R   0.924590 0.867230 0.921670 -0.148747
N19   N     N_R   0.075410 0.132770 0.078330 -0.149679
N20   N     N_R   0.132770 0.924590 0.921670 -0.208951
N21   N     N_R   0.867230 0.075410 0.078330 -0.204592
N22   N     N_R   0.075410 0.132770 0.921670 -0.145284
N23   N     N_R   0.632770 0.575410 0.578330 -0.204545
N24   N     N_R   0.924590 0.867230 0.078330 -0.146269
N25   N     N_R   0.867230 0.075410 0.921670 -0.205461
N26   N     N_R   0.132770 0.924590 0.078330 -0.201685
N27   N     N_R   0.367230 0.424590 0.421670 -0.202038
N28   N     N_R   0.575410 0.367230 0.578330 -0.144776
N29   N     N_R   0.424590 0.632770 0.421670 -0.147847
N30   N     N_R   0.367230 0.424590 0.578330 -0.208242
N31   N     N_R   0.632770 0.575410 0.421670 -0.205740
N32   N     N_R   0.424590 0.367230 0.421670 -0.208273
Ni1   Ni    Ni4+2 0.500000 0.631570 0.500000 0.307887
Ni2   Ni    Ni4+2 0.500000 0.368430 0.500000 0.307922
Ni3   Ni    Ni4+2 0.631570 0.500000 0.500000 0.307902
Ni4   Ni    Ni4+2 0.368430 0.500000 0.500000 0.307942
Ni5   Ni    Ni4+2 0.000000 0.131570 0.000000 0.307981
Ni6   Ni    Ni4+2 0.000000 0.868430 0.000000 0.307871
Ni7   Ni    Ni4+2 0.131570 0.000000 0.000000 0.307997
Ni8   Ni    Ni4+2 0.868430 0.000000 0.000000 0.307881
O1    O     O_3   0.233043 0.152233 0.440636 -0.648863
O2    O     O_3   0.211351 0.288056 0.157441 -0.669842
O3    O     O_3   0.653466 0.269371 0.941951 -0.650652
O4    O     O_3   0.270076 0.654010 0.057803 -0.651105
O5    O     O_3   0.288039 0.211329 0.842553 -0.669844
O6    O     O_3   0.711784 0.788855 0.157480 -0.669789
O7    O     O_3   0.349247 0.735687 0.938436 -0.646683
O8    O     O_3   0.735047 0.348781 0.061295 -0.647200
O9    O     O_3   0.766786 0.847787 0.559442 -0.648858
O10   O     O_3   0.287110 0.785536 0.342452 -0.671855
O11   O     O_3   0.786127 0.287779 0.657905 -0.671470
O12   O     O_3   0.847643 0.766994 0.440639 -0.648999
O13   O     O_3   0.152237 0.233053 0.559355 -0.648833
O14   O     O_3   0.710061 0.209308 0.342326 -0.667984
O15   O     O_3   0.208796 0.709483 0.658001 -0.667613
O16   O     O_3   0.789045 0.711623 0.842430 -0.669750

loop_
_geom_bond_atom_site_label_1
_geom_bond_atom_site_label_2
_ccdc_geom_bond_type
C58   C62   A    
N4    Ni4   S    
C24   N11   A    
N6    Ni2   S    
C7    O15   S    
C46   C59   S    
N14   Ni6   S    
C107  C112  S    
C39   N26   A    
C53   C74   S    
C25   N12   A    
C86   H3    S    
C34   C66   A    
C30   N17   A    
H43   O8    S    
N20   Ni7   S    
C24   F11   S    
C102  N32   A    
C48   C57   S    
C35   C74   A    
C32   C68   A    
N14   N26   A    
C18   C65   A    
C3    C43   S    
C10   O3    S    
C43   C89   S    
C29   N16   A    
C83   C103  S    
C22   F9    S    
C106  H22   S    
N2    Ni1   S    
C83   H47   S    
C77   C106  S    
N6    N30   A    
C21   F8    S    
C7    C101  S    
C95   C112  S    
C36   N23   A    
C30   C74   A    
C33   N20   A    
N31   Ni3   S    
C46   C83   S    
C29   C73   A    
C53   C104  S    
C69   F29   S    
C12   C79   S    
C15   O7    S    
C94   C111  S    
C16   C84   S    
C4    O12   S    
C52   C95   S    
C69   N29   A    
N17   Ni7   S    
C23   C67   A    
C86   C97   S    
C42   C112  S    
C22   C66   A    
C11   C52   S    
C41   C60   S    
H41   O6    S    
C4    C97   S    
N27   N32   A    
C53   C98   S    
C58   N28   A    
H29   O10   S    
C52   C107  S    
C31   C70   A    
C63   C69   A    
C10   C89   S    
C105  H21   S    
C76   C109  S    
C55   C100  S    
C92   H8    S    
N24   Ni6   S    
C56   C66   S    
C54   C97   S    
H38   O3    S    
C3    C96   S    
C8    C92   S    
C9    C76   S    
C16   C83   S    
C49   C94   S    
C15   C82   S    
N19   Ni5   S    
N7    Ni4   S    
C11   C88   S    
C37   N24   A    
N23   Ni3   S    
C12   C53   S    
C54   C105  S    
C28   F15   S    
C51   C96   S    
N10   Ni6   S    
C87   C98   S    
C112  O10   S    
C96   H13   S    
C5    C104  S    
C75   C108  S    
C111  O9    S    
C99   H16   S    
C82   H46   S    
C64   C80   A    
C38   N25   A    
N11   N19   A    
C44   C65   S    
C28   C72   A    
C2    C60   A    
C102  F32   S    
C44   C86   S    
C10   C51   S    
H37   O2    S    
C35   F22   S    
C50   C68   S    
C25   F12   S    
C10   C77   S    
C49   C108  S    
C91   F31   S    
N25   Ni8   S    
C3    C106  S    
H31   O12   S    
C38   C72   A    
N15   N25   A    
C79   H44   S    
C17   F4    S    
C23   N10   A    
C19   F6    S    
C85   H2    S    
C14   C86   S    
C44   C81   S    
C87   H4    S    
C5    O13   S    
N2    N23   A    
C14   O6    S    
C32   N19   A    
C24   C68   A    
N15   Ni5   S    
C40   C110  S    
N3    N12   A    
C4    C44   S    
C34   F21   S    
C36   C60   A    
C13   F3    S    
C5    C45   S    
C76   H12   S    
C88   H5    S    
C75   H1    S    
C40   C61   S    
C40   C76   S    
N29   Ni1   S    
C78   C107  S    
C2    N2    A    
C26   F13   S    
C15   C55   S    
N27   Ni4   S    
C1    N1    A    
C16   C56   S    
C20   N7    A    
C104  H20   S    
C23   F10   S    
C11   C78   S    
C1    C57   A    
C41   C75   S    
C54   C73   S    
C55   C67   S    
H33   O14   S    
N30   Ni4   S    
C19   C64   A    
C94   H10   S    
N1    N4    A    
N9    N21   A    
C93   C110  S    
C18   N5    A    
C92   C94   S    
N18   Ni6   S    
C37   F24   S    
N28   Ni2   S    
C45   C79   S    
C3    O11   S    
C6    C103  S    
C98   H15   S    
C18   F5    S    
C81   H45   S    
C21   C62   A    
C100  H17   S    
N21   Ni8   S    
H30   O11   S    
N16   Ni8   S    
N7    N29   A    
H36   O16   S    
C33   F20   S    
C12   O5    S    
C14   C54   S    
H28   O9    S    
C42   C78   S    
C80   F30   S    
C49   C70   S    
C41   C111  S    
C26   C70   A    
C46   C84   S    
C79   C104  S    
C26   N13   A    
C43   C77   S    
C51   C72   S    
C21   N8    A    
C91   N31   A    
C36   F23   S    
C89   H6    S    
H40   O5    S    
C27   C71   A    
C109  H26   S    
C33   C67   A    
C90   C93   S    
H27   O1    S    
C58   F28   S    
C11   O4    S    
C65   C91   A    
C81   C105  S    
C37   C73   A    
C107  H24   S    
C101  H18   S    
C19   N6    A    
C6    C46   S    
C22   N9    A    
C45   C87   S    
C9    O2    S    
C78   H34   S    
C84   C99   S    
C6    O14   S    
C9    C50   S    
C56   C103  S    
N10   N20   A    
C90   H7    S    
N5    N31   A    
C34   N21   A    
N32   Ni2   S    
C9    C90   S    
C47   C61   A    
H35   O15   S    
C110  O1    S    
C50   C93   S    
C82   C101  S    
H32   O13   S    
C13   C59   A    
N3    Ni3   S    
C7    C100  S    
C77   H23   S    
C30   F17   S    
C4    C105  S    
C55   C101  S    
C45   C64   S    
C103  H19   S    
N17   N22   A    
C14   C81   S    
C108  C111  S    
C15   C85   S    
C39   F26   S    
C27   N14   A    
C7    C48   S    
H39   O4    S    
C20   C63   A    
C93   H9    S    
C61   C102  A    
N1    Ni1   S    
C12   C87   S    
C85   C100  S    
C109  C110  S    
C6    C99   S    
C97   H14   S    
N11   Ni7   S    
C2    F2    S    
C31   N18   A    
C47   N27   A    
N13   N18   A    
C89   C96   S    
C51   C106  S    
N8    N28   A    
C8    C49   S    
N9    Ni5   S    
C27   F14   S    
C38   F25   S    
C48   C82   S    
C84   H48   S    
C95   H11   S    
C50   C109  S    
C35   N22   A    
N26   Ni7   S    
C88   C95   S    
C1    F1    S    
C8    C75   S    
C80   N30   A    
H42   O7    S    
C31   F18   S    
C16   O8    S    
C41   C92   S    
C42   C88   S    
C5    C98   S    
C8    O16   S    
N16   N24   A    
C13   N3    A    
C29   F16   S    
C47   F27   S    
C52   C71   S    
C28   N15   A    
C39   C71   A    
C48   C85   S    
C17   N4    A    
N13   Ni8   S    
C25   C59   A    
C56   C99   S    
C40   C90   S    
C108  H25   S    
N22   Ni5   S    
N12   Ni2   S    
C42   C63   S    
N8    Ni3   S    
C20   F7    S    
C32   F19   S    
C43   C62   S    
C17   C57   A    
N5    Ni1   S    
