data_mof_unit_20377.cif
_audit_creation_date              2012-12-10T17:10:24-0500
_audit_creation_method            fapswitch 2.2
_symmetry_space_group_name_H-M    P1
_symmetry_Int_Tables_number       1
_space_group_crystal_system       triclinic
_cell_length_a                    10.780401
_cell_length_b                    12.980487
_cell_length_c                    11.663104
_cell_angle_alpha                 99.573973
_cell_angle_beta                  89.310047
_cell_angle_gamma                 92.82457
_cell_volume                      1607.3752774

loop_
_atom_site_label
_atom_site_type_symbol
_atom_type_description
_atom_site_fract_x
_atom_site_fract_y
_atom_site_fract_z
_atom_type_partial_charge
C1    C     C_R   0.499997 0.299278 0.478497 0.822289
C2    C     C_R   0.500289 0.700736 0.521472 0.824110
C3    C     C_R   0.502324 0.814255 0.533956 -0.031098
C4    C     C_R   0.498734 0.185771 0.465864 -0.029352
C5    C     C_R   0.455338 0.015141 0.350612 -0.187444
C6    C     C_R   0.546320 0.984865 0.649062 -0.189403
C7    C     C_R   0.463545 0.123349 0.360110 -0.197312
C8    C     C_R   0.537722 0.876660 0.639660 -0.199000
C9    C     C_R   0.528419 0.139393 0.561409 -0.189666
C10   C     C_R   0.473117 0.860641 0.438292 -0.185005
C11   C     C_R   0.519470 0.031302 0.552897 0.159207
C12   C     C_R   0.482263 0.968717 0.446760 0.156658
C13   C     C_R   0.410393 0.381046 0.026637 -0.293563
C14   C     C_R   0.589550 0.618937 0.973369 -0.323534
C15   C     C_R   0.415538 0.395078 0.148252 0.098908
C16   C     C_R   0.584568 0.604856 0.851754 0.101909
C17   C     C_R   0.532535 0.555353 0.154326 0.055690
C18   C     C_R   0.467150 0.444745 0.845657 0.086307
C19   C     C_R   0.530754 0.544285 0.032253 0.043446
C20   C     C_R   0.469040 0.455757 0.967734 0.055217
C21   C     C_R   0.261904 0.490856 0.504556 0.816428
C22   C     C_R   0.738128 0.509010 0.495444 0.811504
C23   C     C_R   0.088104 0.306391 0.537436 0.351407
C24   C     C_R   0.912096 0.693190 0.462784 0.400334
C25   C     C_R   0.020803 0.213356 0.493706 -0.178989
C26   C     C_R   0.978775 0.786326 0.507550 -0.165272
C27   C     C_R   0.905367 0.216377 0.443086 -0.208271
C28   C     C_R   0.094052 0.783321 0.558518 -0.202553
C29   C     C_R   0.854433 0.312328 0.440733 -0.150660
C30   C     C_R   0.145295 0.687383 0.560331 -0.148032
C31   C     C_R   0.925015 0.406687 0.476386 0.045828
C32   C     C_R   0.074969 0.592987 0.524083 0.043686
C33   C     C_R   0.049739 0.402542 0.509695 -0.052291
C34   C     C_R   0.950365 0.597098 0.490557 -0.050877
C35   C     C_R   0.872953 0.504432 0.479757 -0.081989
C36   C     C_R   0.127108 0.495254 0.520366 -0.093338
Cu1   Cu    Cu3+1 0.509250 0.507730 0.615930 0.993387
Cu2   Cu    Cu3+1 0.490750 0.492270 0.384070 0.996869
H1    H     H_    0.147947 0.855246 0.588076 0.174330
H2    H     H_    0.851154 0.144490 0.414158 0.173411
H3    H     H_    0.361629 0.312342 0.979253 0.173921
H4    H     H_    0.638372 0.687602 0.020773 0.164135
H5    H     H_    0.051114 0.138985 0.510641 0.185264
H6    H     H_    0.948298 0.860764 0.490994 0.177316
H7    H     H_    0.760962 0.311961 0.408064 0.144211
H8    H     H_    0.238708 0.687777 0.593155 0.144445
H9    H     H_    0.444819 0.812698 0.356729 0.158671
H10   H     H_    0.556643 0.187362 0.642980 0.153453
H11   H     H_    0.560779 0.841896 0.714430 0.155729
H12   H     H_    0.440237 0.158098 0.285398 0.155700
H13   H     H_    0.427097 0.967954 0.268690 0.147514
H14   H     H_    0.574596 0.032046 0.730977 0.144156
H15   H     H_    0.420327 0.377152 0.795178 0.195662
H16   H     H_    0.579169 0.623005 0.204780 0.187843
H17   H     H_    0.629286 0.662988 0.806617 0.127655
H18   H     H_    0.370975 0.336880 0.193390 0.127779
N1    N     N_R   0.523180 0.519350 0.790130 -0.192773
N2    N     N_R   0.476820 0.480650 0.209870 -0.184342
O1    O     O_R   0.506570 0.354460 0.582000 -0.561603
O2    O     O_R   0.493430 0.645540 0.418000 -0.556505
O3    O     O_R   0.490940 0.341410 0.386200 -0.620239
O4    O     O_R   0.509060 0.658590 0.613800 -0.619670
O5    O     O_R   0.327470 0.506520 0.597900 -0.524731
O6    O     O_R   0.672530 0.493480 0.402100 -0.514944
O7    O     O_R   0.311840 0.493460 0.402100 -0.585271
O8    O     O_R   0.688160 0.506540 0.597900 -0.595754
S1    S     S_3+6 0.169718 0.302434 0.666894 -0.025157
O9    O     O_2   0.292417 0.255430 0.637835 -0.315452
O10   O     O_2   0.187879 0.409023 0.739461 -0.299629
O11   O     O_3   0.088089 0.224917 0.745585 -0.513563
H19   H     H_    0.008378 0.259165 0.763292 0.348818
S2    S     S_3+6 0.831934 0.696464 0.332400 -0.028831
O12   O     O_2   0.707406 0.740492 0.359954 -0.340601
O13   O     O_2   0.904818 0.767661 0.264143 -0.299029
O14   O     O_3   0.817264 0.576860 0.250692 -0.530997
H20   H     H_    0.811542 0.589348 0.169453 0.363543

loop_
_geom_bond_atom_site_label_1
_geom_bond_atom_site_label_2
_ccdc_geom_bond_type
C27   C29   A    
C19   C20   A    
C25   H5    S    
C13   H3    S    
Cu1   O4    S    
C26   H6    S    
C21   C36   S    
C22   C35   S    
C32   C36   A    
C24   C26   A    
C1    O1    A    
C2    O2    A    
C33   C36   A    
C34   C35   A    
C23   S1    S    
C22   O8    A    
C18   H15   S    
Cu2   N2    S    
C23   C33   A    
C31   C33   A    
O11   H19   S    
C17   N2    A    
C14   H4    S    
Cu2   O3    S    
S2    O14   S    
Cu1   O5    S    
Cu2   O6    S    
S1    O9    D    
C5    C12   A    
S2    O13   D    
C3    C8    A    
C6    C11   A    
C5    C7    A    
C6    C8    A    
C28   H1    S    
C4    C7    A    
C24   C34   A    
C29   H7    S    
S1    O10   D    
C32   C34   A    
O14   H20   S    
Cu1   Cu2   S    
C18   N1    A    
Cu2   O7    S    
C27   H2    S    
Cu1   O8    S    
C9    C11   A    
Cu1   O1    S    
C10   C12   A    
Cu2   O2    S    
C13   C15   A    
C15   N2    A    
C14   C16   A    
C24   S2    S    
C13   C20   A    
C21   O7    A    
C14   C19   A    
C30   H8    S    
C7    H12   S    
S2    O12   D    
C1    O3    A    
C11   C12   A    
C25   C27   A    
C26   C28   A    
S1    O11   S    
C15   H18   S    
C1    C4    S    
C28   C30   A    
C2    C3    S    
C16   H17   S    
C29   C31   A    
C3    C10   A    
C30   C32   A    
C17   H16   S    
C31   C35   A    
C17   C19   A    
C18   C20   A    
C16   N1    A    
C23   C25   A    
C21   O5    A    
C22   O6    A    
C9    H10   S    
C10   H9    S    
C5    H13   S    
C6    H14   S    
C4    C9    A    
C8    H11   S    
Cu1   N1    S    
C2    O4    A    
