data_mof_unit_58928.cif
_audit_creation_date              2013-03-05T16:35:29-0500
_audit_creation_method            fapswitch 2.2
_symmetry_space_group_name_H-M    P1
_symmetry_Int_Tables_number       1
_space_group_crystal_system       triclinic
_cell_length_a                    10.696514
_cell_length_b                    14.852032
_cell_length_c                    14.148085
_cell_angle_alpha                 90.981133
_cell_angle_beta                  90.025217
_cell_angle_gamma                 89.741862
_cell_volume                      2247.28258706

loop_
_atom_site_label
_atom_site_type_symbol
_atom_site_description
_atom_site_fract_x
_atom_site_fract_y
_atom_site_fract_z
_atom_type_partial_charge
O1    O     O_R   0.500010 0.369070 0.579480 -0.614556
O2    O     O_R   0.499990 0.630930 0.420520 -0.633208
O3    O     O_R   0.500010 0.369060 0.420520 -0.590743
O4    O     O_R   0.499990 0.630940 0.579480 -0.562317
C1    C     C_R   0.502656 0.327310 0.499068 0.938888
C2    C     C_R   0.507547 0.672760 0.500907 0.918748
O5    O     O_R   0.316760 0.500010 0.579480 -0.639345
O6    O     O_R   0.683240 0.499990 0.420520 -0.605864
O7    O     O_R   0.316760 0.500000 0.420520 -0.611556
O8    O     O_R   0.683240 0.500000 0.579480 -0.632976
C3    C     C_R   0.260020 0.502517 0.499907 0.876328
C4    C     C_R   0.739973 0.497012 0.500050 0.868421
Zn1   Zn    Zn3+2 0.500000 0.500010 0.606140 0.970463
Zn2   Zn    Zn3+2 0.500000 0.499990 0.393860 0.968102
H1    H     H_    0.290937 0.735603 0.159384 0.129298
H2    H     H_    0.731701 0.237915 0.831592 0.141994
C5    C     C_R   0.233911 0.732757 0.304615 -0.178466
C6    C     C_R   0.751999 0.264251 0.683944 -0.180741
H3    H     H_    0.273153 0.798110 0.321375 0.147864
H4    H     H_    0.694326 0.208003 0.662456 0.168186
C7    C     C_R   0.174259 0.684047 0.374965 -0.140726
C8    C     C_R   0.805280 0.319141 0.615814 -0.128020
H5    H     H_    0.169173 0.711667 0.446222 0.125541
H6    H     H_    0.788963 0.304352 0.541662 0.141198
C9    C     C_R   0.121343 0.600024 0.353230 0.039806
C10   C     C_R   0.880193 0.392373 0.643304 0.050589
C11   C     C_R   0.128953 0.565062 0.260588 -0.115200
C12   C     C_R   0.903304 0.408575 0.739912 -0.204429
H7    H     H_    0.088877 0.499891 0.243593 0.157592
H8    H     H_    0.961963 0.464394 0.761984 0.149325
C13   C     C_R   0.190556 0.612826 0.190096 0.508284
C14   C     C_R   0.850462 0.353574 0.808540 0.505603
C15   C     C_R   0.243167 0.697286 0.212727 -0.240645
C16   C     C_R   0.773737 0.281325 0.779879 -0.225974
C17   C     C_R   0.932535 0.541958 0.428862 -0.246721
C18   C     C_R   0.067686 0.455965 0.570496 -0.259773
H9    H     H_    0.879436 0.577113 0.375356 0.166029
H10   H     H_    0.121429 0.420425 0.623346 0.156452
C19   C     C_R   0.872436 0.494500 0.499903 -0.077647
C20   C     C_R   0.127555 0.503647 0.499701 -0.074532
C21   C     C_R   0.939387 0.449649 0.571013 0.026194
C22   C     C_R   0.060681 0.547205 0.428002 0.015175
C23   C     C_R   0.488876 0.088283 0.568355 -0.192385
C24   C     C_R   0.549410 0.907203 0.418754 -0.176155
H11   H     H_    0.439034 0.047935 0.618972 0.195973
H12   H     H_    0.530938 0.944179 0.354819 0.184656
C25   C     C_R   0.465076 0.179533 0.565507 -0.316472
C26   C     C_R   0.526690 0.815983 0.418836 -0.319933
H13   H     H_    0.400433 0.209631 0.615984 0.189756
H14   H     H_    0.496243 0.783585 0.353726 0.192125
C27   C     C_R   0.522868 0.231363 0.496995 -0.216307
C28   C     C_R   0.537573 0.768159 0.502712 -0.233864
C29   C     C_R   0.606428 0.192246 0.430881 0.382447
C30   C     C_R   0.584847 0.810961 0.585406 0.434300
C31   C     C_R   0.637026 0.100949 0.438240 0.415482
C32   C     C_R   0.608307 0.903331 0.585353 0.432959
C33   C     C_R   0.573996 0.048887 0.504859 -0.030677
C34   C     C_R   0.584854 0.951669 0.502253 -0.014290
C35   C     C_R   0.447059 0.426908 0.103643 0.389892
C36   C     C_R   0.610520 0.520880 0.895743 0.360136
C37   C     C_R   0.447276 0.429937 0.203839 -0.107412
C38   C     C_R   0.606908 0.520393 0.795581 -0.078062
H15   H     H_    0.405809 0.375896 0.243122 0.120699
H16   H     H_    0.690236 0.535803 0.756078 0.125009
N1    N     N_R   0.500000 0.499980 0.252470 -0.099043
N2    N     N_R   0.500000 0.500020 0.747530 -0.096042
C39   C     C_R   0.550783 0.570108 0.205358 -0.007700
C40   C     C_R   0.393742 0.479750 0.795618 -0.016418
H17   H     H_    0.591257 0.625804 0.244748 0.141754
H18   H     H_    0.309200 0.463613 0.757160 0.144840
C41   C     C_R   0.550610 0.571272 0.106175 -0.292371
C42   C     C_R   0.392243 0.479671 0.894852 -0.272816
H19   H     H_    0.589524 0.628851 0.070879 0.191069
H20   H     H_    0.305674 0.464735 0.930850 0.222724
C43   C     C_R   0.499626 0.499050 0.053432 0.141219
C44   C     C_R   0.501167 0.499805 0.946768 0.103238
O9    O     O_3   0.721684 0.061323 0.376242 -0.611621
C45   C     C_3   0.843260 0.074343 0.412230 -0.281535
H21   H     H_    0.856961 0.036757 0.478637 0.137426
H22   H     H_    0.864791 0.146977 0.423823 0.182268
H23   H     H_    0.911330 0.047253 0.359786 0.192635
O10   O     O_3   0.639966 0.945804 0.670047 -0.578233
C46   C     C_3   0.761265 0.982386 0.663886 -0.305727
H24   H     H_    0.757639 0.050710 0.633715 0.161154
H25   H     H_    0.827346 0.938885 0.622545 0.124737
H26   H     H_    0.799765 0.989493 0.736416 0.199250
O11   O     O_3   0.399121 0.353825 0.054357 -0.775230
H27   H     H_    0.367179 0.309578 0.100054 0.325300
O12   O     O_3   0.719626 0.539701 0.944208 -0.743490
H28   H     H_    0.785904 0.554708 0.898129 0.343044
O13   O     O_3   0.197914 0.575367 0.100410 -0.772008
H29   H     H_    0.245456 0.616636 0.059546 0.322869
O14   O     O_3   0.875840 0.371810 0.902470 -0.737485
H30   H     H_    0.830618 0.327834 0.941669 0.338685
O15   O     O_3   0.667305 0.245228 0.365900 -0.603509
C47   C     C_3   0.615324 0.229024 0.275520 -0.197308
H31   H     H_    0.648453 0.282061 0.227404 0.184602
H32   H     H_    0.511236 0.232132 0.276384 0.121931
H33   H     H_    0.647082 0.163168 0.245725 0.194290
O16   O     O_3   0.601311 0.764416 0.668417 -0.556499
C48   C     C_3   0.725455 0.732052 0.671377 -0.229738
H34   H     H_    0.745668 0.684929 0.611244 0.134455
H35   H     H_    0.738602 0.694594 0.737762 0.174526
H36   H     H_    0.793990 0.788009 0.672347 0.150231

loop_
_geom_bond_atom_site_label_1
_geom_bond_atom_site_label_2
_geom_bond_distance
_ccdc_geom_bond_type
N2    C40   1.362393 A    
O11   H27   0.991639 S    
O14   H30   0.991785 S    
C29   O15   1.385053 S    
O15   C47   1.411446 S    
O7    Zn2   1.996154 S    
C25   H13   1.083823 S    
O9    C45   1.409285 S    
O5    C3    1.279770 A    
C48   H34   1.113009 S    
O1    C1    1.286657 A    
C17   H9    1.085692 S    
C26   C28   1.397957 A    
C31   O9    1.383465 S    
C45   H22   1.113477 S    
C11   H7    1.083564 S    
C47   H33   1.110301 S    
C36   C38   1.417497 A    
O4    Zn1   1.987150 S    
C37   H15   1.080992 S    
C17   C22   1.373355 A    
C38   H16   1.079753 S    
H2    C16   1.082676 S    
C24   C34   1.396649 A    
N1    C39   1.361379 A    
C47   H32   1.114193 S    
C13   C15   1.408961 A    
C39   C41   1.403658 A    
C42   C44   1.407579 A    
C28   C30   1.416168 A    
C20   C22   1.406012 A    
C14   O14   1.378802 S    
C48   H35   1.108382 S    
C30   O16   1.383734 S    
C18   C21   1.375998 A    
O2    C2    1.289256 A    
C5    C15   1.397734 A    
C24   H12   1.083840 S    
Zn1   N2    2.000395 S    
C29   C31   1.399050 A    
C30   C32   1.395765 A    
C35   C37   1.417520 A    
C38   N2    1.362643 A    
C11   C13   1.400404 A    
C12   C14   1.400471 A    
C42   H20   1.082677 S    
O13   H29   0.991837 S    
C41   H19   1.082567 S    
C45   H21   1.110365 S    
C25   C27   1.394497 A    
C36   O12   1.380580 S    
C36   C44   1.413890 A    
C5    C7    1.396618 A    
C40   C42   1.404089 A    
C27   C29   1.410250 A    
C14   C16   1.407882 A    
C17   C19   1.396139 A    
C43   C44   1.509425 S    
O7    C3    1.276798 A    
C46   H24   1.108108 S    
C18   C20   1.394188 A    
O6    C4    1.279510 A    
C47   H31   1.109317 S    
C6    C16   1.396100 A    
O3    Zn2   1.987150 S    
O8    C4    1.277411 A    
O4    C2    1.285411 A    
C46   H25   1.114651 S    
C48   H36   1.110572 S    
C13   O13   1.378875 S    
C31   C33   1.403926 A    
C8    H6    1.082422 S    
O1    Zn1   1.974615 S    
C18   H10   1.085629 S    
C35   C43   1.414452 A    
C39   H17   1.081418 S    
C7    C9    1.401897 A    
O6    Zn2   1.995829 S    
C6    C8    1.396457 A    
O3    C1    1.282071 A    
O8    Zn1   1.996153 S    
C9    C22   1.479583 S    
C32   O10   1.387119 S    
C9    C11   1.403777 A    
C10   C12   1.405771 A    
C4    C19   1.417215 S    
C7    H5    1.083178 S    
C12   H8    1.083590 S    
C23   H11   1.083553 S    
C41   C43   1.407942 A    
C45   H23   1.109129 S    
C33   C34   1.447872 S    
C26   H14   1.082645 S    
O16   C48   1.411027 S    
C5    H3    1.081765 S    
Zn2   N1    2.000395 S    
C32   C34   1.409833 A    
C6    H4    1.080120 S    
C3    C20   1.416943 S    
O2    Zn2   1.974615 S    
C35   O11   1.380630 S    
C23   C33   1.398679 A    
C37   N1    1.361641 A    
O5    Zn1   1.995830 S    
C46   H26   1.109078 S    
C19   C21   1.409528 A    
C40   H18   1.080887 S    
O10   C46   1.412204 S    
C8    C10   1.403362 A    
C1    C27   1.440157 S    
C2    C28   1.454016 S    
O12   H28   0.992019 S    
C23   C25   1.379089 A    
H1    C15   1.082673 S    
C24   C26   1.377532 A    
C10   C21   1.485205 S    
