data_mof_unit_23205.cif
_audit_creation_date              2012-12-10T16:53:00-0500
_audit_creation_method            fapswitch 2.2
_symmetry_space_group_name_H-M    P1
_symmetry_Int_Tables_number       1
_space_group_crystal_system       triclinic
_cell_length_a                    8.172954
_cell_length_b                    8.626586
_cell_length_c                    11.550506
_cell_angle_alpha                 100.749416
_cell_angle_beta                  82.063393
_cell_angle_gamma                 91.895002
_cell_volume                      792.388672611

loop_
_atom_site_label
_atom_site_type_symbol
_atom_type_description
_atom_site_fract_x
_atom_site_fract_y
_atom_site_fract_z
_atom_type_partial_charge
C1    C     C_R   0.542690 0.793000 0.498000 0.914610
C2    C     C_2   0.434504 0.044479 0.503679 -0.371663
C3    C     C_R   0.998099 0.343080 0.355777 0.245990
C4    C     C_R   0.874927 0.270242 0.287297 -0.111949
C5    C     C_R   0.906377 0.195259 0.168123 -0.201386
C6    C     C_R   0.067096 0.171102 0.114135 -0.082763
C7    C     C_R   0.191965 0.207883 0.183763 -0.195144
C8    C     C_R   0.155444 0.283428 0.302673 -0.132752
C9    C     C_R   0.001901 0.656920 0.644223 0.245990
C10   C     C_R   0.125073 0.729757 0.712703 -0.111949
C11   C     C_R   0.093623 0.804741 0.831877 -0.201386
C12   C     C_R   0.457310 0.207000 0.502000 0.914610
C13   C     C_R   0.932904 0.828897 0.885865 -0.082763
C14   C     C_R   0.808035 0.792117 0.816237 -0.195144
C15   C     C_R   0.844556 0.716572 0.697327 -0.132752
C16   C     C_R   0.496015 0.501219 0.717556 0.856418
C17   C     C_R   0.503985 0.498781 0.282444 0.856418
C18   C     C_1   0.489665 0.501421 0.839210 -0.162214
C19   C     C_1   0.510335 0.498578 0.160790 -0.162214
C20   C     C_1   0.494667 0.500668 0.941091 -0.001384
C21   C     C_1   0.505333 0.499332 0.058909 -0.001384
C22   C     C_2   0.565496 0.955521 0.496321 -0.371663
H1    H     H_    0.691261 0.001691 0.488673 0.190976
H2    H     H_    0.905889 0.886675 0.977764 0.131338
H3    H     H_    0.682471 0.826659 0.852933 0.126088
H4    H     H_    0.744200 0.719062 0.654692 0.195979
H5    H     H_    0.308739 0.998308 0.511327 0.190976
H6    H     H_    0.751219 0.259201 0.321653 0.195526
H7    H     H_    0.805169 0.151200 0.119386 0.129986
H8    H     H_    0.094111 0.113324 0.022236 0.131338
H9    H     H_    0.317528 0.173341 0.147067 0.126088
H10   H     H_    0.255800 0.280938 0.345308 0.195979
H11   H     H_    0.248781 0.740798 0.678347 0.195527
H12   H     H_    0.194831 0.848800 0.880614 0.129986
N1    N     N_2   0.950330 0.457960 0.469510 -0.109094
N2    N     N_2   0.049670 0.542040 0.530490 -0.109095
O1    O     O_R   0.389250 0.738570 0.507480 -0.641338
O2    O     O_R   0.610750 0.261430 0.492520 -0.641338
O3    O     O_R   0.678390 0.711630 0.487940 -0.644035
O4    O     O_R   0.321610 0.288370 0.512060 -0.644035
O5    O     O_R   0.355420 0.513450 0.675320 -0.629888
O6    O     O_R   0.644580 0.486550 0.324680 -0.629888
O7    O     O_R   0.644570 0.486510 0.655780 -0.618576
O8    O     O_R   0.355430 0.513490 0.344220 -0.618576
Zn1   Zn    Zn3+2 0.306940 0.517990 0.513050 0.915275
Zn2   Zn    Zn3+2 0.693060 0.482010 0.486950 0.915275

loop_
_geom_bond_atom_site_label_1
_geom_bond_atom_site_label_2
_ccdc_geom_bond_type
C12   O4    A    
C9    N2    S    
C2    C22   D    
C6    C7    A    
C1    O1    A    
C9    C10   A    
C5    H7    S    
N1    N2    D    
C3    N1    S    
C2    C12   S    
C17   O6    A    
C9    C15   A    
C17   O8    A    
C1    C22   S    
C13   C14   A    
C20   C21   S    
C11   C13   A    
C16   O7    A    
C2    H5    S    
O3    Zn2   S    
C4    H6    S    
C10   H11   S    
C18   C20   T    
C14   H3    S    
C12   O2    A    
C5    C6    A    
O7    Zn2   S    
O2    Zn2   S    
C7    H9    S    
C10   C11   A    
C1    O3    A    
O1    Zn1   S    
C3    C4    A    
C8    H10   S    
N2    Zn1   S    
O8    Zn1   S    
C16   C18   S    
C3    C8    A    
O6    Zn2   S    
C7    C8    A    
O5    Zn1   S    
C22   H1    S    
C15   H4    S    
O4    Zn1   S    
C17   C19   S    
C14   C15   A    
N1    Zn2   S    
C16   O5    A    
C6    H8    S    
C11   H12   S    
C13   H2    S    
C4    C5    A    
C19   C21   T    
