data_mof_unit_38884.cif
_audit_creation_date              2012-12-10T18:45:03-0500
_audit_creation_method            fapswitch 2.2
_symmetry_space_group_name_H-M    P1
_symmetry_Int_Tables_number       1
_space_group_crystal_system       triclinic
_cell_length_a                    10.604731
_cell_length_b                    9.990508
_cell_length_c                    10.712864
_cell_angle_alpha                 88.147642
_cell_angle_beta                  92.769192
_cell_angle_gamma                 89.786019
_cell_volume                      1133.05831978

loop_
_atom_site_label
_atom_site_type_symbol
_atom_type_description
_atom_site_fract_x
_atom_site_fract_y
_atom_site_fract_z
_atom_type_partial_charge
C1    C     C_R   0.260851 0.499705 0.502513 0.865712
C2    C     C_R   0.739271 0.499732 0.504241 0.870885
C3    C     C_R   0.930460 0.547150 0.406504 -0.218267
C4    C     C_R   0.059070 0.547846 0.406363 -0.232975
C5    C     C_R   0.589109 0.069338 0.569446 0.418925
C6    C     C_R   0.409611 0.074478 0.431867 0.380888
C7    C     C_R   0.586802 0.926732 0.573524 0.139221
C8    C     C_R   0.408167 0.931906 0.433178 0.099259
C9    C     C_R   0.501972 0.503446 0.259631 0.876720
C10   C     C_R   0.492530 0.497884 0.738712 0.844563
C11   C     C_R   0.435215 0.754588 0.095429 -0.447095
C12   C     C_R   0.337713 0.693382 0.859209 -0.412489
C13   C     C_R   0.367922 0.852894 0.021577 0.455932
C14   C     C_R   0.310312 0.818348 0.907435 0.495681
C15   C     C_R   0.419761 0.602195 0.926516 0.060105
C16   C     C_R   0.451976 0.623078 0.052202 0.077914
C17   C     C_R   0.503199 0.511602 0.125164 -0.084615
C18   C     C_R   0.475807 0.493287 0.869990 -0.068209
C19   C     C_R   0.543489 0.396199 0.067850 -0.200178
C20   C     C_R   0.534660 0.389455 0.940453 -0.198874
C21   C     C_R   0.072174 0.446895 0.619368 0.128834
C22   C     C_R   0.939904 0.453315 0.622184 0.158075
C23   C     C_R   0.872146 0.499543 0.512261 -0.060191
C24   C     C_R   0.128591 0.498368 0.510910 -0.056148
H1    H     H_    0.585776 0.312268 0.121474 0.175459
H2    H     H_    0.576450 0.304521 0.897018 0.171391
H3    H     H_    0.480657 0.787230 0.180842 0.192740
H4    H     H_    0.298201 0.669647 0.767540 0.168653
H5    H     H_    0.875930 0.583252 0.323829 0.151835
H6    H     H_    0.104821 0.584531 0.323625 0.150487
N1    N     N_R   0.500000 0.857200 0.500000 -0.172516
N2    N     N_R   0.500000 0.142810 0.500000 -0.212346
O1    O     O_R   0.316770 0.614620 0.499990 -0.634690
O2    O     O_R   0.683230 0.614620 0.500010 -0.640300
O3    O     O_R   0.316800 0.385290 0.500000 -0.609408
O4    O     O_R   0.683200 0.385290 0.500000 -0.608714
O5    O     O_R   0.500010 0.614690 0.316770 -0.641456
O6    O     O_R   0.499990 0.614690 0.683230 -0.616816
O7    O     O_R   0.500040 0.385360 0.316770 -0.638177
O8    O     O_R   0.499960 0.385360 0.683230 -0.651344
Zn1   Zn    Zn3+2 0.500000 0.653120 0.500000 0.907208
Zn2   Zn    Zn3+2 0.500000 0.346880 0.500000 0.941898
O9    O     O_3   0.359123 0.983976 0.057334 -0.724310
H7    H     H_    0.418605 0.997305 0.130093 0.321058
O10   O     O_3   0.236220 0.912206 0.840708 -0.743420
H8    H     H_    0.203850 0.872848 0.761719 0.317070
C25   C     C_3   0.152145 0.383824 0.728119 -0.457455
C26   C     C_3   0.161128 0.231902 0.717897 -0.701830
H9    H     H_    0.066362 0.185516 0.720641 0.248898
H10   H     H_    0.203935 0.205168 0.629508 0.275938
H11   H     H_    0.221352 0.189778 0.797398 0.290740
H12   H     H_    0.248459 0.425230 0.731653 0.197574
H13   H     H_    0.115447 0.407646 0.819766 0.220961
C27   C     C_3   0.872387 0.420868 0.742155 -0.412796
C28   C     C_3   0.875255 0.539978 0.828124 -0.897386
H14   H     H_    0.973287 0.568621 0.855891 0.262496
H15   H     H_    0.827941 0.627444 0.779906 0.256977
H16   H     H_    0.824414 0.514174 0.913824 0.261434
H17   H     H_    0.772169 0.395708 0.723017 0.207450
H18   H     H_    0.913496 0.331112 0.792441 0.230950
O11   O     O_3   0.683398 0.131697 0.637840 -0.783929
H19   H     H_    0.651642 0.220271 0.658052 0.371917
O12   O     O_3   0.315821 0.141231 0.361199 -0.765787
H20   H     H_    0.343331 0.233049 0.344139 0.394181
C29   C     C_3   0.677642 0.856533 0.667967 -0.307186
C30   C     C_3   0.645670 0.883523 0.802720 -0.812557
H21   H     H_    0.667187 0.988063 0.827684 0.285354
H22   H     H_    0.544345 0.864474 0.815395 0.268033
H23   H     H_    0.701912 0.815865 0.868390 0.235159
H24   H     H_    0.676002 0.748787 0.660331 0.251903
H25   H     H_    0.776002 0.888413 0.651909 0.213026
C31   C     C_3   0.297998 0.867142 0.363984 -0.301026
C32   C     C_3   0.178984 0.872567 0.439182 -0.771739
H26   H     H_    0.194402 0.821639 0.532198 0.252870
H27   H     H_    0.150951 0.977872 0.453743 0.279309
H28   H     H_    0.099749 0.823899 0.387108 0.237261
H29   H     H_    0.276570 0.920880 0.273482 0.238664
H30   H     H_    0.319707 0.764912 0.337030 0.232624

loop_
_geom_bond_atom_site_label_1
_geom_bond_atom_site_label_2
_ccdc_geom_bond_type
C15   C18   A    
C30   H22   S    
C28   H14   S    
C32   H26   S    
C3    C23   A    
C19   C20   A    
C1    O1    A    
C22   C27   S    
C27   H18   S    
O10   H8    S    
C12   H4    S    
C4    C24   A    
C30   H23   S    
C15   C16   A    
C9    O7    A    
C10   O8    A    
C3    H5    S    
O3    Zn2   S    
C31   H30   S    
O4    Zn2   S    
C26   H11   S    
C16   C17   A    
C6    N2    A    
C14   O10   S    
C25   H13   S    
C5    N2    A    
C2    O2    A    
C26   H10   S    
C30   H21   S    
C21   C22   A    
C32   H27   S    
O2    Zn1   S    
O7    Zn2   S    
C27   H17   S    
C8    C31   S    
C7    N1    A    
O6    Zn1   S    
C5    C7    A    
C6    C8    A    
C29   H25   S    
C6    O12   S    
O9    H7    S    
C31   H29   S    
C7    C29   S    
C11   C16   A    
C25   C26   S    
C12   C15   A    
C11   H3    S    
C9    O5    A    
C5    O11   S    
C9    C17   S    
C26   H9    S    
C12   C14   A    
C28   H15   S    
C32   H28   S    
C28   H16   S    
C3    C4    A    
C13   O9    S    
C1    O3    A    
C2    O4    A    
C27   C28   S    
N1    Zn1   S    
C8    N1    A    
C31   C32   S    
C25   H12   S    
C10   O6    A    
O1    Zn1   S    
C11   C13   A    
C20   H2    S    
C10   C18   S    
O8    Zn2   S    
C17   C19   A    
C18   C20   A    
O5    Zn1   S    
O11   H19   S    
C19   H1    S    
O12   H20   S    
C1    C24   S    
C29   C30   S    
C21   C24   A    
C2    C23   S    
N2    Zn2   S    
C22   C23   A    
C13   C14   A    
C4    H6    S    
C29   H24   S    
C21   C25   S    
