data_mof_unit_13742.cif
_audit_creation_date              2012-12-10T20:03:08-0500
_audit_creation_method            fapswitch 2.2
_symmetry_space_group_name_H-M    P1
_symmetry_Int_Tables_number       1
_space_group_crystal_system       triclinic
_cell_length_a                    8.587213
_cell_length_b                    19.307943
_cell_length_c                    18.543312
_cell_angle_alpha                 89.956635
_cell_angle_beta                  98.406153
_cell_angle_gamma                 90.080648
_cell_volume                      3041.47341792

loop_
_atom_site_label
_atom_site_type_symbol
_atom_type_description
_atom_site_fract_x
_atom_site_fract_y
_atom_site_fract_z
_atom_type_partial_charge
C1    C     C_R   0.499570 0.365698 0.499997 0.887866
C2    C     C_R   0.500676 0.634297 0.500106 0.888830
C3    C     C_R   0.391405 0.964295 0.535405 -0.119473
C4    C     C_R   0.617039 0.035612 0.469353 -0.122168
C5    C     C_R   0.390428 0.036020 0.534236 -0.210033
C6    C     C_R   0.617846 0.963896 0.470401 -0.209449
C7    C     C_R   0.502687 0.071616 0.500838 0.158785
C8    C     C_R   0.505210 0.928304 0.503536 0.159064
C9    C     C_R   0.537378 0.557592 0.730426 -0.167633
C10   C     C_R   0.397769 0.454675 0.274253 -0.139638
C11   C     C_R   0.528610 0.557351 0.805526 0.387463
C12   C     C_R   0.365029 0.454913 0.198003 0.336391
C13   C     C_R   0.484991 0.496028 0.839074 -0.045425
C14   C     C_R   0.461363 0.494553 0.156239 -0.049681
C15   C     C_R   0.442531 0.437120 0.795254 0.332843
C16   C     C_R   0.562198 0.545018 0.196532 0.355747
C17   C     C_R   0.454375 0.440750 0.720013 -0.160145
C18   C     C_R   0.577171 0.546468 0.273994 -0.171754
C19   C     C_R   0.344879 0.470915 0.945401 -0.356623
C20   C     C_R   0.605830 0.503564 0.045722 -0.314784
C21   C     C_R   0.339918 0.461171 0.020223 0.472334
C22   C     C_R   0.614867 0.506928 0.970673 0.521226
C23   C     C_R   0.201121 0.499964 0.481006 0.974629
C24   C     C_R   0.798879 0.499989 0.518985 0.976072
C25   C     C_R   0.465072 0.486169 0.073502 -0.005376
C26   C     C_R   0.480588 0.493616 0.919521 0.025940
C27   C     C_2   0.036179 0.499980 0.470687 -0.393424
C28   C     C_2   0.963820 0.499903 0.529276 -0.388477
C29   C     C_R   0.489447 0.746668 0.435711 -0.195561
C30   C     C_R   0.512500 0.254119 0.565762 -0.198685
C31   C     C_R   0.491796 0.818293 0.437213 -0.258782
C32   C     C_R   0.512334 0.182499 0.565441 -0.260315
C33   C     C_R   0.505088 0.853242 0.503896 0.013065
C34   C     C_R   0.501145 0.146683 0.499381 0.013045
C35   C     C_R   0.515510 0.816917 0.570093 0.502322
C36   C     C_R   0.490645 0.182246 0.432715 0.499730
C37   C     C_R   0.517441 0.744506 0.568018 -0.322073
C38   C     C_R   0.486699 0.254618 0.433476 -0.319882
C39   C     C_R   0.502137 0.709519 0.501076 -0.082180
C40   C     C_R   0.499803 0.290466 0.499820 -0.081528
H1    H     H_    0.974733 0.500099 0.415027 0.175962
H2    H     H_    0.025283 0.499773 0.584928 0.179692
H3    H     H_    0.427382 0.396223 0.685421 0.146028
H4    H     H_    0.646314 0.585808 0.305379 0.138155
H5    H     H_    0.244998 0.454656 0.906819 0.201271
H6    H     H_    0.713389 0.512726 0.082287 0.201661
H7    H     H_    0.477930 0.720507 0.383541 0.167830
H8    H     H_    0.522441 0.280888 0.617551 0.157896
H9    H     H_    0.481794 0.846681 0.386308 0.161933
H10   H     H_    0.522309 0.154822 0.616776 0.160141
H11   H     H_    0.533466 0.715532 0.618485 0.150163
H12   H     H_    0.470916 0.282752 0.382440 0.158813
H13   H     H_    0.302970 0.936817 0.560377 0.137502
H14   H     H_    0.705644 0.063055 0.444489 0.135323
H15   H     H_    0.301567 0.063781 0.558503 0.138242
H16   H     H_    0.706507 0.936123 0.446009 0.138946
H17   H     H_    0.573098 0.604183 0.704851 0.158685
H18   H     H_    0.329730 0.421637 0.305104 0.170845
N1    N     N_R   0.500020 0.499980 0.689440 -0.122532
N2    N     N_R   0.499980 0.500020 0.310560 -0.126582
O1    O     O_R   0.500010 0.398180 0.560840 -0.634559
O2    O     O_R   0.499990 0.601820 0.439160 -0.622542
O3    O     O_R   0.499930 0.398180 0.439210 -0.626935
O4    O     O_R   0.500070 0.601820 0.560790 -0.629125
O5    O     O_R   0.271780 0.500000 0.546590 -0.608985
O6    O     O_R   0.728220 0.500000 0.453410 -0.610218
O7    O     O_R   0.271710 0.499990 0.424960 -0.633332
O8    O     O_R   0.728290 0.500010 0.575040 -0.615904
Zn1   Zn    Zn3+2 0.500050 0.500000 0.581210 0.936862
Zn2   Zn    Zn3+2 0.499950 0.500000 0.418790 0.933722
O9    O     O_3   0.402193 0.376252 0.828728 -0.618040
C41   C     C_3   0.284406 0.338103 0.784102 0.090720
H19   H     H_    0.339499 0.305178 0.745657 0.146370
H20   H     H_    0.193693 0.372426 0.753174 0.133230
C42   C     C_3   0.200631 0.290527 0.831391 -0.855405
H21   H     H_    0.134971 0.321716 0.867134 0.247082
H22   H     H_    0.115595 0.257150 0.796267 0.214897
H23   H     H_    0.287236 0.257046 0.865460 0.259383
O10   O     O_3   0.624406 0.598307 0.158634 -0.592773
C43   C     C_3   0.779366 0.616429 0.190076 0.062731
H24   H     H_    0.850137 0.570291 0.210832 0.114419
H25   H     H_    0.775453 0.654061 0.235094 0.151101
C44   C     C_3   0.862539 0.651466 0.132759 -0.790249
H26   H     H_    0.795402 0.697869 0.110766 0.265340
H27   H     H_    0.982506 0.667772 0.157605 0.200602
H28   H     H_    0.873118 0.615174 0.087339 0.267111
O11   O     O_3   0.220283 0.419651 0.037287 -0.583906
C45   C     C_3   0.266741 0.349596 0.031234 0.168292
H29   H     H_    0.361905 0.336116 0.076503 0.156814
H30   H     H_    0.310685 0.339099 0.978713 0.146946
C46   C     C_3   0.127268 0.301763 0.034963 -0.846302
H31   H     H_    0.024970 0.318428 0.995042 0.238231
H32   H     H_    0.159212 0.247974 0.021906 0.206063
H33   H     H_    0.094706 0.302089 0.090642 0.279293
O12   O     O_3   0.755674 0.525074 0.947965 -0.575615
C47   C     C_3   0.834931 0.464633 0.930143 0.069782
H34   H     H_    0.756568 0.418860 0.916042 0.129538
H35   H     H_    0.924110 0.450302 0.977255 0.192191
C48   C     C_3   0.918260 0.479720 0.864880 -0.781733
H36   H     H_    0.002639 0.523189 0.877537 0.256480
H37   H     H_    0.982434 0.432917 0.850916 0.194373
H38   H     H_    0.831287 0.493885 0.816897 0.254810
O13   O     O_3   0.539503 0.853605 0.635349 -0.612637
C49   C     C_3   0.441550 0.828837 0.684795 0.072182
H39   H     H_    0.496136 0.782952 0.714616 0.152308
H40   H     H_    0.321332 0.815237 0.656922 0.129740
C50   C     C_3   0.424360 0.884989 0.740520 -0.810844
H41   H     H_    0.369662 0.931798 0.712676 0.251130
H42   H     H_    0.348539 0.866009 0.780028 0.205637
H43   H     H_    0.541667 0.898892 0.770620 0.261556
O14   O     O_3   0.468330 0.145082 0.367905 -0.612570
C51   C     C_3   0.578916 0.165284 0.322389 0.075846
H44   H     H_    0.698455 0.173966 0.353793 0.128146
H45   H     H_    0.538652 0.213150 0.291938 0.151000
C52   C     C_3   0.592041 0.108166 0.267178 -0.809127
H46   H     H_    0.475639 0.098917 0.233763 0.260748
H47   H     H_    0.677693 0.123541 0.230634 0.205067
H48   H     H_    0.633026 0.059504 0.295795 0.251127
O15   O     O_3   0.568522 0.616300 0.846253 -0.558742
C53   C     C_3   0.434872 0.659479 0.841035 0.091085
H49   H     H_    0.336242 0.632787 0.862759 0.143729
H50   H     H_    0.395388 0.675412 0.783488 0.112225
C54   C     C_3   0.476562 0.724502 0.885977 -0.784053
H51   H     H_    0.572962 0.752965 0.864839 0.252690
H52   H     H_    0.371978 0.758774 0.882587 0.198423
H53   H     H_    0.515218 0.710418 0.943924 0.271079
O16   O     O_3   0.233224 0.418746 0.167843 -0.571719
C55   C     C_3   0.097466 0.458070 0.176392 0.188801
H54   H     H_    0.085783 0.502836 0.138110 0.158648
H55   H     H_    0.100394 0.478046 0.232979 0.099706
C56   C     C_3   0.951190 0.412906 0.160171 -0.860495
H56   H     H_    0.968080 0.363847 0.191623 0.255511
H57   H     H_    0.848257 0.440369 0.176355 0.192457
H58   H     H_    0.926306 0.401123 0.101088 0.258352

loop_
_geom_bond_atom_site_label_1
_geom_bond_atom_site_label_2
_ccdc_geom_bond_type
C30   C32   A    
O11   C45   S    
C21   O11   S    
C11   C13   A    
C22   O12   S    
O12   C47   S    
C56   H58   S    
C11   O15   S    
C55   H54   S    
C49   H40   S    
C54   H51   S    
C12   O16   S    
C29   H7    S    
C44   H26   S    
C30   H8    S    
C10   H18   S    
C35   O13   S    
C41   C42   S    
C37   H11   S    
C54   H52   S    
C38   H12   S    
C20   C25   A    
O1    Zn1   S    
C52   H46   S    
C47   C48   S    
O2    Zn2   S    
C23   O7    A    
C19   C26   A    
C51   H44   S    
C1    C40   S    
C33   C35   A    
C2    C39   S    
O14   C51   S    
C53   H50   S    
O8    Zn1   S    
C52   H47   S    
C47   H35   S    
C48   H38   S    
C50   H41   S    
C31   C33   A    
C23   C27   S    
C34   C36   A    
C53   C54   S    
C24   O6    A    
C4    H14   S    
C50   H42   S    
C31   H9    S    
C4    C7    A    
C1    O3    A    
C51   H45   S    
C49   H39   S    
C2    O4    A    
O3    Zn2   S    
C43   H25   S    
C3    C8    A    
C46   H31   S    
C5    C7    A    
C43   H24   S    
C54   H53   S    
C6    C8    A    
C56   H57   S    
C1    O1    A    
C9    N1    A    
C32   C34   A    
C10   N2    A    
C42   H21   S    
C17   H3    S    
C18   H4    S    
C46   H32   S    
C9    C11   A    
C27   H1    S    
C48   H36   S    
C45   C46   S    
N2    Zn2   S    
C29   C31   A    
C52   H48   S    
C47   H34   S    
C29   C39   A    
C36   O14   S    
C30   C40   A    
O4    Zn1   S    
C42   H22   S    
C32   H10   S    
C10   C12   A    
C17   N1    A    
C41   H20   S    
C44   H27   S    
C45   H30   S    
C13   C15   A    
C7    C34   S    
C14   C16   A    
C13   C26   S    
C4    C6    A    
C20   C22   A    
O16   C55   S    
C55   C56   S    
O13   C49   S    
C53   H49   S    
C43   C44   S    
N1    Zn1   S    
C18   N2    A    
C15   C17   A    
C21   C25   A    
C35   C37   A    
C5    H15   S    
C24   C28   S    
C6    H16   S    
C41   H19   S    
C3    C5    A    
C55   H55   S    
O15   C53   S    
C19   H5    S    
C15   O9    S    
C16   O10   S    
O7    Zn2   S    
C36   C38   A    
C12   C14   A    
O9    C41   S    
C37   C39   A    
C46   H33   S    
C38   C40   A    
C3    H13   S    
C23   O5    A    
O6    Zn2   S    
O5    Zn1   S    
C28   H2    S    
C50   H43   S    
C9    H17   S    
C8    C33   S    
C49   C50   S    
C14   C25   S    
C42   H23   S    
C24   O8    A    
O10   C43   S    
C2    O2    A    
C44   H28   S    
C45   H29   S    
C16   C18   A    
C22   C26   A    
C27   C28   D    
C48   H37   S    
C51   C52   S    
C20   H6    S    
C56   H56   S    
C19   C21   A    
