data_mof_unit_35944.cif
_audit_creation_date              2012-12-10T18:30:27-0500
_audit_creation_method            fapswitch 2.2
_symmetry_space_group_name_H-M    P1
_symmetry_Int_Tables_number       1
_space_group_crystal_system       triclinic
_cell_length_a                    14.999521
_cell_length_b                    14.166995
_cell_length_c                    15.494072
_cell_angle_alpha                 89.745116
_cell_angle_beta                  82.512571
_cell_angle_gamma                 104.030642
_cell_volume                      3164.77529773

loop_
_atom_site_label
_atom_site_type_symbol
_atom_type_description
_atom_site_fract_x
_atom_site_fract_y
_atom_site_fract_z
_atom_type_partial_charge
C1    C     C_R   0.557951 0.511068 0.337896 0.873489
C2    C     C_R   0.388518 0.400071 0.076465 -0.222387
C3    C     C_R   0.674238 0.469060 0.980617 -0.226552
C4    C     C_R   0.322313 0.386028 0.019916 -0.228654
C5    C     C_R   0.161512 0.359126 0.360068 -0.222158
C6    C     C_R   0.832099 0.618762 0.654278 -0.217486
C7    C     C_R   0.250099 0.386966 0.382584 -0.006711
C8    C     C_R   0.747883 0.604781 0.623064 -0.008362
C9    C     C_R   0.202913 0.486642 0.492771 -0.016314
C10   C     C_R   0.795283 0.509211 0.509358 -0.011021
C11   C     C_R   0.110468 0.458978 0.475211 -0.020945
C12   C     C_R   0.441950 0.485479 0.662151 0.873107
C13   C     C_R   0.882092 0.518743 0.538534 -0.023272
C14   C     C_R   0.090190 0.395327 0.405481 0.016189
C15   C     C_R   0.900493 0.575399 0.613031 0.012395
C16   C     C_R   0.498718 0.329168 0.499789 0.887440
C17   C     C_R   0.501288 0.670833 0.500203 0.890270
C18   C     C_R   0.039062 0.494073 0.523656 0.007171
C19   C     C_R   0.950320 0.474466 0.495909 0.009169
C20   C     C_R   0.931824 0.409824 0.427582 -0.300876
C21   C     C_R   0.053472 0.546083 0.600231 -0.298081
C22   C     C_R   0.999543 0.369381 0.383285 0.461154
C23   C     C_R   0.552507 0.462102 0.101767 0.081721
C24   C     C_R   0.985900 0.586191 0.645000 0.476840
C25   C     C_1   0.496556 0.227042 0.499207 -0.186594
C26   C     C_1   0.503493 0.772978 0.500730 -0.189175
C27   C     C_1   0.496984 0.141853 0.499249 0.010925
C28   C     C_1   0.503119 0.858185 0.500646 0.009620
C29   C     C_1   0.499021 0.042393 0.499691 0.028168
C30   C     C_1   0.501126 0.957660 0.500176 0.027561
C31   C     C_R   0.592025 0.505381 0.245747 -0.079092
C32   C     C_R   0.407081 0.462904 0.754403 -0.079954
C33   C     C_R   0.715907 0.510918 0.126613 0.010473
C34   C     C_R   0.444992 0.435038 0.898371 0.081431
C35   C     C_R   0.282073 0.401679 0.872317 0.006637
C36   C     C_R   0.686469 0.520233 0.215095 -0.222256
C37   C     C_R   0.312368 0.430033 0.784468 -0.221269
C38   C     C_R   0.526831 0.479281 0.188715 -0.261613
C39   C     C_R   0.471732 0.466823 0.811648 -0.257799
C40   C     C_R   0.816973 0.538655 0.096159 0.061800
C41   C     C_R   0.854990 0.619052 0.038031 -0.127653
C42   C     C_R   0.950799 0.648234 0.012510 -0.046167
C43   C     C_R   0.009289 0.597668 0.044888 -0.155898
C44   C     C_R   0.972108 0.518119 0.103199 -0.106872
C45   C     C_R   0.648539 0.480904 0.069263 0.112328
C46   C     C_R   0.876324 0.488747 0.129115 -0.148709
C47   C     C_R   0.180734 0.368674 0.900646 0.082714
C48   C     C_R   0.122945 0.431256 0.889990 -0.146355
C49   C     C_R   0.027217 0.399990 0.915244 -0.107314
C50   C     C_R   0.988535 0.306294 0.951670 -0.101528
C51   C     C_R   0.045406 0.243234 0.961814 -0.077191
C52   C     C_R   0.141095 0.273894 0.935809 -0.154332
C53   C     C_R   0.348789 0.406076 0.930425 0.113084
C54   C     C_R   0.484245 0.433166 0.045475 0.082580
C55   C     C_R   0.512644 0.439260 0.955023 0.078251
C56   C     C_R   0.607808 0.450412 0.924194 -0.226167
H1    H     H_    0.745989 0.476639 0.953587 0.181328
H2    H     H_    0.362627 0.382587 0.144400 0.147288
H3    H     H_    0.775072 0.469713 0.453143 0.127926
H4    H     H_    0.226046 0.538153 0.540832 0.132930
H5    H     H_    0.694115 0.635835 0.655926 0.141174
H6    H     H_    0.304983 0.358292 0.348643 0.136560
H7    H     H_    0.150460 0.309408 0.307725 0.218645
H8    H     H_    0.841681 0.662464 0.710777 0.220046
H9    H     H_    0.810482 0.659489 0.013135 0.146097
H10   H     H_    0.979730 0.710179 0.967718 0.170955
H11   H     H_    0.083408 0.620081 0.024786 0.138205
H12   H     H_    0.250186 0.363639 0.047917 0.178187
H13   H     H_    0.017700 0.479450 0.128289 0.197261
H14   H     H_    0.848423 0.427371 0.174765 0.181564
H15   H     H_    0.152238 0.504298 0.862668 0.171160
H16   H     H_    0.983034 0.448516 0.906948 0.193111
H17   H     H_    0.914490 0.282479 0.971757 0.137538
H18   H     H_    0.015306 0.170464 0.989563 0.146785
H19   H     H_    0.184328 0.224056 0.943258 0.141793
H20   H     H_    0.845534 0.231105 0.237531 0.383750
H21   H     H_    0.120688 0.673950 0.822703 0.372497
H22   H     H_    0.863760 0.386591 0.408788 0.199332
H23   H     H_    0.116289 0.553759 0.628745 0.197498
H24   H     H_    0.543738 0.498317 0.788013 0.163863
H25   H     H_    0.455373 0.475233 0.212970 0.164356
H26   H     H_    0.261908 0.425501 0.739551 0.172981
H27   H     H_    0.737467 0.541800 0.259413 0.168206
H28   H     H_    0.632514 0.442723 0.856570 0.158550
N1    N     N_R   0.268300 0.449640 0.447270 -0.096794
N2    N     N_R   0.731700 0.550360 0.552730 -0.098002
O1    O     O_R   0.616880 0.525390 0.394380 -0.612712
O2    O     O_2   0.982892 0.189212 0.324793 -0.283761
O3    O     O_3   0.854812 0.271915 0.288899 -0.586173
O4    O     O_2   0.007897 0.752549 0.730591 -0.298899
O5    O     O_2   0.938607 0.600253 0.815911 -0.373463
O6    O     O_3   0.116234 0.644005 0.765268 -0.592186
O7    O     O_R   0.383120 0.474610 0.605620 -0.610831
O8    O     O_R   0.468100 0.493070 0.360490 -0.620534
O9    O     O_R   0.531900 0.506930 0.639510 -0.621782
O10   O     O_R   0.574410 0.389880 0.516950 -0.590066
O11   O     O_R   0.425590 0.610120 0.483050 -0.590444
O12   O     O_R   0.425630 0.357560 0.483060 -0.595342
O13   O     O_R   0.574370 0.642440 0.516940 -0.592672
O14   O     O_2   0.025936 0.323568 0.215472 -0.366426
S1    S     S_3+6 0.967231 0.286205 0.300566 -0.020716
S2    S     S_3+6 0.010776 0.647940 0.741882 -0.031490
Zn1   Zn    Zn3+2 0.599340 0.521580 0.522630 0.948306
Zn2   Zn    Zn3+2 0.400660 0.478420 0.477370 0.948636

loop_
_geom_bond_atom_site_label_1
_geom_bond_atom_site_label_2
_ccdc_geom_bond_type
C1    O1    A    
O13   Zn1   S    
C55   C56   A    
H21   O6    S    
C23   C45   A    
C4    C53   A    
C35   C53   A    
C18   C21   A    
C33   C45   A    
C41   C42   A    
C19   C20   A    
C51   H18   S    
C52   H19   S    
C35   C47   S    
O2    S1    D    
C11   C18   A    
C40   C46   A    
C22   S1    S    
C17   C26   S    
C35   C37   A    
C11   C14   A    
C27   C29   S    
C36   H27   S    
C1    C31   S    
C33   C36   A    
C5    H7    S    
C18   C19   A    
C32   C39   A    
C6    H8    S    
O4    S2    D    
C9    N1    A    
C6    C15   A    
C10   N2    A    
O9    Zn1   S    
C1    O8    A    
C49   H16   S    
C12   O9    A    
C24   S2    S    
O6    S2    S    
C8    H5    S    
O8    Zn2   S    
C34   C55   A    
C12   C32   S    
N2    Zn1   S    
O7    Zn2   S    
C44   C46   A    
C56   H28   S    
C16   O10   A    
C33   C40   S    
C13   C19   A    
C51   C52   A    
C2    C54   A    
C50   H17   S    
C5    C7    A    
C6    C8    A    
C3    C45   A    
C34   C39   A    
C2    C4    A    
C43   C44   A    
C7    H6    S    
C29   C30   T    
C9    C11   A    
C3    C56   A    
C47   C48   A    
C21   H23   S    
C50   C51   A    
C44   H13   S    
C15   C24   A    
C32   C37   A    
C17   O13   A    
C5    C14   A    
N1    Zn2   S    
O1    Zn1   S    
C3    H1    S    
C48   C49   A    
C20   C22   A    
C13   C15   A    
C38   H25   S    
C37   H26   S    
O10   Zn1   S    
C42   C43   A    
C48   H15   S    
C23   C54   A    
C4    H12   S    
C16   C25   S    
C54   C55   A    
C40   C41   A    
O3    S1    S    
C10   C13   A    
C41   H9    S    
C2    H2    S    
C47   C52   A    
C25   C27   T    
C23   C38   A    
H20   O3    S    
C26   C28   T    
C31   C38   A    
C20   H22   S    
C9    H4    S    
C39   H24   S    
C14   C22   A    
C28   C30   S    
C10   H3    S    
C16   O12   A    
C7    N1    A    
O12   Zn2   S    
O14   S1    D    
C8    N2    A    
C12   O7    A    
C46   H14   S    
O11   Zn2   S    
C34   C53   A    
C43   H11   S    
C49   C50   A    
C21   C24   A    
C42   H10   S    
C31   C36   A    
O5    S2    D    
C17   O11   A    
