data_mof_unit_18211.cif
_audit_creation_date              2013-03-05T15:59:35-0500
_audit_creation_method            fapswitch 2.2
_symmetry_space_group_name_H-M    P1
_symmetry_Int_Tables_number       1
_space_group_crystal_system       triclinic
_cell_length_a                    8.452335
_cell_length_b                    12.953652
_cell_length_c                    17.599386
_cell_angle_alpha                 99.66474
_cell_angle_beta                  98.326872
_cell_angle_gamma                 97.559763
_cell_volume                      1855.40379009

loop_
_atom_site_label
_atom_site_type_symbol
_atom_site_description
_atom_site_fract_x
_atom_site_fract_y
_atom_site_fract_z
_atom_type_partial_charge
P1    P     P_3+3 0.996360 0.395990 0.320310 0.449316
O1    O     O_2   0.825360 0.427200 0.308020 -0.381600
O2    O     O_3   0.099050 0.435020 0.406000 -0.439986
O3    O     O_3   0.623690 0.628090 0.355970 -0.370102
O4    O     O_2   0.703010 0.531340 0.223636 -0.384247
O5    O     O_3   0.957476 0.256949 0.298537 -0.554056
O6    O     O_3   0.619439 0.707102 0.212976 -0.533309
H1    H     H_    0.490013 0.802227 0.276128 0.082500
C1    C     C_3   0.528522 0.852828 0.167101 -0.406498
H2    H     H_    0.640608 0.908046 0.197032 0.205354
P2    P     P_3+3 0.688190 0.753610 0.561600 0.414833
P3    P     P_3+3 0.107402 0.823508 0.401148 0.431463
O7    O     O_2   0.857620 0.767930 0.537920 -0.345628
O8    O     O_3   0.055170 0.686660 0.395490 -0.433854
O9    O     O_2   0.000401 0.877645 0.454574 -0.351704
O10   O     O_3   0.756334 0.800774 0.662975 -0.561212
O11   O     O_3   0.034903 0.851243 0.309473 -0.531742
C2    C     C_3   0.031500 0.760853 0.251870 0.535912
H3    H     H_    0.943030 0.693690 0.259464 0.177033
H4    H     H_    0.153235 0.736580 0.254643 -0.026714
C3    C     C_3   0.979559 0.785105 0.171013 -1.020174
H5    H     H_    0.848184 0.787325 0.159994 0.289145
H6    H     H_    0.041753 0.863733 0.166105 0.265620
C4    C     C_3   0.258250 0.776802 0.626430 0.431897
H7    H     H_    0.373288 0.754436 0.611997 0.053874
H8    H     H_    0.159519 0.741704 0.576389 0.151692
C5    C     C_3   0.269651 0.896970 0.637662 -0.974229
H9    H     H_    0.299874 0.933368 0.700550 0.272599
H10   H     H_    0.364559 0.931497 0.607896 0.228466
H11   H     H_    0.152888 0.918056 0.612629 0.276462
Ba1   Ba    Ba6+2 0.843240 0.548600 0.461650 1.477806
C6    C     C_3   0.935014 0.217064 0.366152 0.380474
H12   H     H_    0.821510 0.237497 0.384418 0.065372
H13   H     H_    0.038112 0.248427 0.414752 0.152421
C7    C     C_3   0.923210 0.096891 0.347954 -0.873660
H14   H     H_    0.817307 0.061309 0.301712 0.232789
H15   H     H_    0.909154 0.063518 0.401023 0.246120
H16   H     H_    0.035188 0.075365 0.327715 0.275859
C8    C     C_3   0.676602 0.742536 0.710306 0.348560
H17   H     H_    0.764068 0.699529 0.740367 0.065436
H18   H     H_    0.572665 0.687058 0.676656 0.152642
C9    C     C_3   0.618097 0.815692 0.773557 -0.955201
H19   H     H_    0.721726 0.867573 0.813769 0.249560
H20   H     H_    0.549165 0.767570 0.808162 0.244458
P4    P     P_3+3 0.193350 0.604100 0.679700 0.450031
O12   O     O_2   0.364350 0.572830 0.692030 -0.386817
O13   O     O_3   0.090660 0.565070 0.594010 -0.441788
O14   O     O_3   0.566030 0.372000 0.644040 -0.406651
O15   O     O_3   0.230067 0.743128 0.695890 -0.556771
P5    P     P_3+3 0.083772 0.174616 0.598327 0.429779
O16   O     O_3   0.601410 0.366560 0.460070 -0.496458
O17   O     O_3   0.134540 0.313430 0.604520 -0.406308
O18   O     O_2   0.188437 0.122571 0.542651 -0.362199
O19   O     O_3   0.164286 0.142800 0.687720 -0.521096
Ba2   Ba    Ba6+2 0.346590 0.451490 0.538360 1.474178
P6    P     P_3+3 0.573257 0.594218 0.251745 0.430663
C10   C     C_3   0.493463 0.766354 0.214484 0.328208
H21   H     H_    0.375125 0.717204 0.186884 0.055558
O20   O     O_3   0.588300 0.633530 0.539940 -0.505515
C11   C     C_3   0.499643 0.256217 0.290132 0.369136
H22   H     H_    0.397305 0.297812 0.273499 0.056747
H23   H     H_    0.607153 0.311275 0.322124 0.150783
C12   C     C_3   0.545095 0.203003 0.214327 -0.970543
H24   H     H_    0.602464 0.264399 0.185348 0.243895
H25   H     H_    0.632200 0.148302 0.226038 0.271034
P7    P     P_3+3 0.502835 0.229834 0.435104 0.389230
O21   O     O_2   0.332090 0.232110 0.462130 -0.348407
O22   O     O_3   0.448510 0.181063 0.333800 -0.580438
H26   H     H_    0.007481 0.723001 0.125463 0.230968
C13   C     C_3   0.082459 0.183454 0.747781 0.677605
H27   H     H_    0.955232 0.190306 0.725497 0.015105
C14   C     C_3   0.171903 0.292791 0.790526 -0.894446
H28   H     H_    0.186567 0.347366 0.749200 0.281047
H29   H     H_    0.293653 0.286932 0.821119 0.283109
P8    P     P_3+3 0.616357 0.395514 0.747370 0.429210
C15   C     C_3   0.579861 0.192786 0.720252 0.530511
H30   H     H_    0.693134 0.207172 0.695910 -0.000183
O23   O     O_2   0.501967 0.467854 0.781478 -0.374812
O24   O     O_3   0.566512 0.277000 0.779223 -0.529149
H31   H     H_    0.474296 0.179416 0.672118 0.162693
H32   H     H_    0.687025 0.105921 0.803245 0.269923
C16   C     C_3   0.582039 0.093834 0.755055 -1.081091
H33   H     H_    0.591843 0.026662 0.708765 0.233264
H34   H     H_    0.469574 0.076411 0.779294 0.281883
C17   C     C_2   0.245555 0.515376 0.268055 -0.179336
C18   C     C_3   0.368753 0.506043 0.213058 0.166253
C19   C     C_2   0.293897 0.512949 0.132145 -0.305204
C20   C     C_2   0.131318 0.488206 0.110413 0.130942
C21   C     C_2   0.031227 0.453127 0.170420 -0.326146
C22   C     C_1   0.097391 0.459566 0.245936 0.323491
C23   C     C_R   0.890746 0.483115 0.863466 -0.298237
C24   C     C_R   0.832943 0.456111 0.783716 0.213362
C25   C     C_R   0.086769 0.545223 0.755473 0.299885
C26   C     C_R   0.146461 0.569538 0.837480 -0.308268
C27   C     C_R   0.051978 0.532181 0.891835 0.135514
C28   C     C_2   0.053613 0.488214 0.027834 -0.164693
C29   C     C_2   0.122271 0.542703 0.977113 -0.165344
C30   C     C_R   0.937617 0.477255 0.730828 -0.182913
H35   H     H_    0.238142 0.593925 0.997437 0.127394
H36   H     H_    0.902858 0.423855 0.151604 0.174199
H37   H     H_    0.808149 0.464460 0.902382 0.156304
H38   H     H_    0.937223 0.437772 0.008836 0.133811
C31   C     C_R   0.768645 0.176887 0.523370 -0.506261
C32   C     C_R   0.423395 0.812370 0.473938 -0.502439
C33   C     C_R   0.388135 0.983223 0.442879 -0.204062
C34   C     C_R   0.324908 0.877114 0.440675 0.210679
C35   C     C_R   0.582536 0.850773 0.512621 0.317536
C36   C     C_R   0.646748 0.961055 0.517942 -0.049136
C37   C     C_R   0.547628 0.027333 0.481367 -0.053005
C38   C     C_R   0.610723 0.136398 0.485196 0.286812
C39   C     C_R   0.867529 0.114712 0.558808 0.193247
C40   C     C_R   0.805696 0.007596 0.557630 -0.197461
H39   H     H_    0.309852 0.030956 0.415610 0.196746
H40   H     H_    0.883630 0.961398 0.586570 0.183993
H41   H     H_    0.819071 0.257224 0.521466 0.146414
H42   H     H_    0.371017 0.732284 0.475000 0.145053
H43   H     H_    0.537649 0.865191 0.746894 0.271641
C41   C     C_3   0.388629 0.914855 0.154721 -0.424781
C42   C     C_3   0.352077 0.969147 0.232496 -0.774365
H44   H     H_    0.294294 0.910835 0.262969 0.244142
H45   H     H_    0.467016 0.008247 0.270992 0.285768
H46   H     H_    0.269128 0.027136 0.222869 0.271119
H47   H     H_    0.422694 0.975825 0.120027 0.222439
H48   H     H_    0.279903 0.860908 0.120126 0.215781
H49   H     H_    0.435042 0.159146 0.173875 0.248337
H50   H     H_    0.550420 0.815525 0.108659 0.180140
C43   C     C_3   0.079547 0.108887 0.807180 -0.445477
C44   C     C_3   0.987441 0.998415 0.771116 -0.815110
H51   H     H_    0.861807 0.002513 0.745252 0.261721
H52   H     H_    0.045923 0.959488 0.724622 0.288880
H53   H     H_    0.986401 0.949150 0.816951 0.249318
H54   H     H_    0.205432 0.101593 0.831963 0.217201
H55   H     H_    0.020518 0.142583 0.856153 0.182168
H56   H     H_    0.102586 0.326819 0.834764 0.195904
H57   H     H_    0.373310 0.530071 0.091157 0.154225
H58   H     H_    0.266083 0.615327 0.858620 0.154306
C45   C     C_3   0.312573 0.558888 0.350810 -0.366414
C46   C     C_3   0.413131 0.479171 0.379507 -0.504356
H59   H     H_    0.342067 0.402786 0.382120 0.226597
H60   H     H_    0.500622 0.456731 0.342257 0.187482
H61   H     H_    0.485669 0.515511 0.434889 0.299695
H62   H     H_    0.370851 0.640746 0.354394 0.160472
H63   H     H_    0.230387 0.578371 0.389749 0.244248
C47   C     C_3   0.873528 0.440136 0.647262 -0.349000
C48   C     C_3   0.775254 0.522442 0.622444 -0.495397
H64   H     H_    0.691148 0.543554 0.662181 0.190152
H65   H     H_    0.849031 0.598750 0.621935 0.230014
H66   H     H_    0.701067 0.488337 0.566554 0.301224
H67   H     H_    0.957715 0.422515 0.608950 0.242951
H68   H     H_    0.814919 0.357253 0.638308 0.154205

loop_
_geom_bond_atom_site_label_1
_geom_bond_atom_site_label_2
_geom_bond_distance
_ccdc_geom_bond_type
C13   C43   1.538394 S    
O14   Ba2   2.847117 S    
P7    O22   1.759829 S    
C45   H62   1.096398 S    
C12   H25   1.108587 S    
P1    C22   1.903000 S    
Ba2   O20   2.903301 S    
C5    H10   1.106325 S    
C2    C3    1.523771 S    
O4    P6    1.538771 D    
O5    C6    1.401825 S    
C39   C40   1.412539 A    
C15   O24   1.402154 S    
O8    Ba1   2.867619 S    
C19   C20   1.352065 D    
P4    C25   1.918404 S    
C44   H51   1.104801 S    
C32   C34   1.395140 A    
H32   C16   1.110009 S    
C24   C30   1.408740 A    
C8    H18   1.085924 S    
C17   C18   1.523672 S    
P5    O19   1.757702 S    
C31   C38   1.394948 A    
C31   C39   1.389603 A    
C7    H15   1.107926 S    
C4    H8    1.109766 S    
P1    O1    1.546554 D    
C28   H38   1.081093 S    
C32   H42   1.077327 S    
P1    Ba1   3.424203 S    
C36   C37   1.439430 A    
C2    H4    1.111629 S    
C11   H23   1.094478 S    
C2    H3    1.109398 S    
Ba1   O20   2.954133 S    
C43   H54   1.112286 S    
C47   H68   1.097076 S    
C29   H35   1.084086 S    
C41   C42   1.523183 S    
O2    Ba2   2.855445 S    
C7    H14   1.109291 S    
O12   Ba2   2.863633 S    
P5    O17   1.773967 S    
C35   C36   1.442384 A    
C4    C5    1.524179 S    
C13   H27   1.110289 S    
C1    H2    1.112344 S    
O16   Ba2   2.953278 S    
O17   Ba2   2.868227 S    
P4    O13   1.591451 S    
P7    O21   1.585942 D    
C45   H63   1.068567 S    
P2    Ba1   3.446606 S    
Ba1   O13   2.854829 S    
C3    H5    1.104263 S    
O3    P6    1.786886 S    
C5    H11   1.108214 S    
C1    C41   1.524895 S    
O14   P8    1.771075 S    
C9    H20   1.110680 S    
O6    P6    1.737261 S    
C23   H37   1.079152 S    
P2    O20   1.624744 S    
C40   H40   1.077188 S    
C48   H65   1.099276 S    
C48   H64   1.095510 S    
C8    C9    1.519954 S    
C42   H45   1.106363 S    
P5    O18   1.543852 D    
P6    C18   1.906446 S    
C21   H36   1.084539 S    
P1    O5    1.753513 S    
C6    C7    1.522579 S    
C19   H57   1.083933 S    
C7    H16   1.110930 S    
C4    H7    1.102197 S    
C14   H29   1.108344 S    
C15   C16   1.511648 S    
C8    H17   1.109440 S    
C18   C19   1.494268 S    
C47   C48   1.517151 S    
P4    O12   1.546905 D    
P7    C38   1.868022 S    
C36   C40   1.424772 A    
C3    H26   1.110736 S    
C11   H22   1.107455 S    
P1    O2    1.591450 S    
O16   P7    1.807887 S    
C6    H13   1.109198 S    
P3    O11   1.753259 S    
C31   H41   1.079300 S    
C47   H67   1.069167 S    
H1    C10   1.112305 S    
P2    O10   1.769728 S    
C26   H58   1.082440 S    
O19   C13   1.411985 S    
P3    O9    1.544539 D    
P4    O15   1.753806 S    
C17   C22   1.329888 D    
C28   C29   1.373181 D    
O11   C2    1.408428 S    
C25   C26   1.425289 A    
C41   H48   1.108914 S    
C15   H30   1.110664 S    
C14   H56   1.108408 S    
O2    Ba1   2.960665 S    
P4    Ba2   3.424769 S    
C12   H49   1.108252 S    
C46   H60   1.092770 S    
P8    C24   1.868358 S    
P3    O8    1.751945 S    
C16   H34   1.108989 S    
C11   C12   1.520518 S    
P2    C35   1.887244 S    
C15   H31   1.111263 S    
C9    H19   1.107067 S    
C43   C44   1.521684 S    
C44   H53   1.109711 S    
C17   C45   1.470088 S    
C23   C24   1.386565 A    
C48   H66   1.076315 S    
O13   Ba2   2.961519 S    
C45   C46   1.524966 S    
C42   H46   1.109695 S    
C33   H39   1.079698 S    
C4    O15   1.406225 S    
C33   C37   1.416169 A    
C30   C47   1.466585 S    
O7    Ba1   2.910316 S    
C43   H55   1.112582 S    
Ba1   O16   2.903904 S    
C14   H28   1.104452 S    
C46   H61   1.069770 S    
C44   H52   1.101075 S    
Ba2   O21   2.910535 S    
C42   H44   1.100697 S    
C27   C29   1.508584 S    
C9    H43   1.103191 S    
C33   C34   1.399702 A    
C1    H50   1.112396 S    
C6    H12   1.105160 S    
C3    H6    1.105899 S    
C37   C38   1.429792 A    
P3    C34   1.864795 S    
P2    O7    1.545273 D    
C10   H21   1.108891 S    
P5    C39   1.871891 S    
C20   C28   1.505716 S    
C1    C10   1.528351 S    
C41   H47   1.110173 S    
C26   C27   1.435984 A    
P8    O23   1.546254 D    
O3    Ba1   2.847678 S    
C46   H59   1.099480 S    
O10   C8    1.398926 S    
C23   C27   1.406736 A    
C12   H24   1.110902 S    
C20   C21   1.535016 S    
C11   O22   1.400674 S    
C16   H33   1.108235 S    
C5    H9    1.106229 S    
O1    Ba1   2.863179 S    
C13   C14   1.529455 S    
Ba1   Ba2   4.674317 S    
C21   C22   1.349544 D    
P8    O24   1.742343 S    
C25   C30   1.404982 A    
O6    C10   1.392833 S    
C32   C35   1.401883 A    
