data_mof_unit_27206.cif
_audit_creation_date              2012-12-10T17:53:25-0500
_audit_creation_method            fapswitch 2.2
_symmetry_space_group_name_H-M    P1
_symmetry_Int_Tables_number       1
_space_group_crystal_system       triclinic
_cell_length_a                    23.421487
_cell_length_b                    10.625349
_cell_length_c                    9.913418
_cell_angle_alpha                 89.925421
_cell_angle_beta                  89.966668
_cell_angle_gamma                 91.705112
_cell_volume                      2465.97285176

loop_
_atom_site_label
_atom_site_type_symbol
_atom_type_description
_atom_site_fract_x
_atom_site_fract_y
_atom_site_fract_z
_atom_type_partial_charge
C1    C     C_R   0.501470 0.260729 0.500105 0.862900
C2    C     C_R   0.121157 0.597888 0.472534 0.505436
C3    C     C_R   0.237871 0.494523 0.377713 -0.097481
C4    C     C_R   0.389386 0.498827 0.500063 0.868013
C5    C     C_R   0.297142 0.497988 0.377527 -0.220339
C6    C     C_R   0.327099 0.494765 0.500092 -0.044864
C7    C     C_R   0.297040 0.486544 0.622568 -0.183503
C8    C     C_R   0.237754 0.482876 0.622313 -0.090698
C9    C     C_R   0.208296 0.487434 0.500014 0.313940
C10   C     C_R   0.762276 0.502719 0.378291 -0.102030
C11   C     C_R   0.703067 0.505133 0.377894 -0.207412
C12   C     C_R   0.966531 0.267144 0.557301 -0.157656
C13   C     C_R   0.672829 0.498109 0.500126 -0.038284
C14   C     C_R   0.702524 0.488366 0.622547 -0.241323
C15   C     C_R   0.761728 0.485808 0.622530 -0.105747
C16   C     C_R   0.501661 0.739450 0.499881 0.877652
C17   C     C_R   0.791499 0.493115 0.500509 0.324044
C18   C     C_R   0.597360 0.137439 0.623716 -0.175174
C19   C     C_R   0.642258 0.074623 0.683549 -0.111394
C20   C     C_R   0.642313 0.943656 0.683371 -0.119659
C21   C     C_R   0.597494 0.875049 0.623265 -0.189364
C22   C     C_R   0.551274 0.937327 0.563428 0.094993
C23   C     C_R   0.025966 0.266291 0.557187 -0.157555
C24   C     C_R   0.551192 0.069261 0.563686 0.096246
C25   C     C_R   0.505367 0.128694 0.499917 -0.085817
C26   C     C_R   0.462119 0.061856 0.432758 -0.187944
C27   C     C_R   0.462211 0.933295 0.432499 -0.183569
C28   C     C_R   0.610606 0.500015 0.499968 0.840595
C29   C     C_R   0.505543 0.872010 0.499407 -0.102329
C30   C     C_R   0.424913 0.335516 0.140289 -0.213790
C31   C     C_R   0.387754 0.254577 0.070565 -0.324910
C32   C     C_R   0.387495 0.254011 0.929803 0.467228
C33   C     C_R   0.424898 0.335314 0.860316 -0.171597
C34   C     C_R   0.057986 0.376997 0.528994 -0.016699
C35   C     C_R   0.462975 0.418841 0.927925 0.079983
C36   C     C_R   0.462982 0.418925 0.072411 0.177576
C37   C     C_R   0.535474 0.577502 0.071327 -0.107353
C38   C     C_R   0.535458 0.577482 0.928202 -0.096055
C39   C     C_R   0.882232 0.601341 0.473188 0.501941
C40   C     C_R   0.878580 0.381956 0.528536 0.503308
C41   C     C_R   0.938155 0.378723 0.529249 -0.014855
C42   C     C_R   0.969917 0.490317 0.500757 -0.021409
C43   C     C_R   0.941853 0.602802 0.472408 -0.014682
C44   C     C_R   0.029888 0.489448 0.500601 -0.021246
C45   C     C_R   0.061618 0.601063 0.472057 -0.016108
C46   C     C_R   0.033261 0.712666 0.444119 -0.155923
C47   C     C_R   0.973855 0.713532 0.444309 -0.159345
C48   C     C_R   0.117644 0.378556 0.528116 0.505351
H1    H     H_    0.942960 0.180288 0.579364 0.194549
H2    H     H_    0.427768 0.881184 0.382580 0.159518
H3    H     H_    0.564460 0.640836 0.124922 0.145403
H4    H     H_    0.046678 0.178805 0.579169 0.194173
H5    H     H_    0.422495 0.329783 0.247244 0.219351
H6    H     H_    0.359150 0.192083 0.126869 0.158512
H7    H     H_    0.422786 0.330055 0.753319 0.222495
H8    H     H_    0.564418 0.640830 0.874257 0.140114
H9    H     H_    0.056822 0.799535 0.422056 0.195736
H10   H     H_    0.953153 0.801044 0.422382 0.193606
H11   H     H_    0.214817 0.497912 0.283174 0.142115
H12   H     H_    0.681107 0.512710 0.282240 0.161380
H13   H     H_    0.319368 0.503713 0.281767 0.169833
H14   H     H_    0.319195 0.483175 0.718324 0.169523
H15   H     H_    0.214617 0.477610 0.716863 0.142436
H16   H     H_    0.785555 0.508301 0.283947 0.139133
H17   H     H_    0.327616 0.123835 0.920524 0.342855
H18   H     H_    0.680134 0.482478 0.718075 0.162136
H19   H     H_    0.784579 0.478672 0.717041 0.139589
H20   H     H_    0.427625 0.109492 0.382943 0.146407
H21   H     H_    0.599751 0.239148 0.623305 0.152998
H22   H     H_    0.677381 0.127785 0.728977 0.153627
H23   H     H_    0.677473 0.895051 0.728694 0.149085
H24   H     H_    0.599982 0.773604 0.622417 0.143330
N1    N     N_R   0.852196 0.492058 0.500767 -0.360061
N2    N     N_R   0.147600 0.487833 0.500134 -0.360928
N3    N     N_R   0.499460 0.498800 0.142780 -0.113528
N4    N     N_R   0.499440 0.498720 0.857170 -0.110678
O1    O     O_R   0.500000 0.316780 0.614690 -0.636393
O2    O     O_R   0.583850 0.500050 0.614640 -0.636312
O3    O     O_R   0.583840 0.500030 0.385310 -0.615005
O4    O     O_2   0.854326 0.708094 0.447446 -0.552443
O5    O     O_3   0.351293 0.175152 0.856864 -0.754326
O6    O     O_2   0.847130 0.276155 0.554465 -0.554273
O7    O     O_2   0.145638 0.272006 0.554188 -0.541835
O8    O     O_2   0.152547 0.703761 0.446482 -0.545471
O9    O     O_R   0.500000 0.316750 0.385360 -0.629660
O10   O     O_R   0.416160 0.499970 0.614690 -0.634330
O11   O     O_R   0.416150 0.499950 0.385360 -0.640186
O12   O     O_R   0.500000 0.683250 0.614640 -0.610665
O13   O     O_R   0.500000 0.683220 0.385310 -0.611311
Zn1   Zn    Zn3+2 0.500000 0.500020 0.653130 0.940836
Zn2   Zn    Zn3+2 0.500000 0.499980 0.346870 0.945574

loop_
_geom_bond_atom_site_label_1
_geom_bond_atom_site_label_2
_ccdc_geom_bond_type
C33   H7    S    
C1    C25   S    
C22   C29   A    
O11   Zn2   S    
C27   C29   A    
C1    O1    A    
C41   C42   A    
C2    O8    S    
C35   C36   A    
C12   H1    S    
O9    Zn2   S    
C7    C8    A    
C4    O11   A    
C38   N4    A    
C45   C46   A    
O2    Zn1   S    
C32   O5    S    
C12   C23   A    
C26   C27   A    
C37   C38   A    
C18   C24   A    
C5    C6    A    
C37   H3    S    
C4    O10   A    
C10   C17   A    
C40   N1    A    
C18   C19   A    
C28   O3    A    
C19   C20   A    
C8    C9    A    
C13   C28   S    
O13   Zn2   S    
C28   O2    A    
O3    Zn2   S    
C2    N2    A    
C27   H2    S    
N3    Zn2   S    
C18   H21   S    
C37   N3    A    
C16   O13   A    
C21   C22   A    
C17   N1    S    
C42   C44   A    
C2    C45   A    
C1    O9    A    
O1    Zn1   S    
C30   H5    S    
C35   N4    A    
C21   H24   S    
C48   N2    A    
C34   C44   A    
C24   C25   A    
C4    C6    S    
O10   Zn1   S    
C39   C43   A    
C16   C29   S    
C7    H14   S    
C12   C41   A    
C3    C9    A    
C36   N3    A    
C40   O6    S    
H17   O5    S    
C31   C32   A    
C23   C34   A    
C15   H19   S    
C14   H18   S    
C5    H13   S    
C20   H23   S    
C40   C41   A    
O12   Zn1   S    
C46   H9    S    
C22   C24   A    
C34   C48   A    
C42   C43   A    
C11   H12   S    
C44   C45   A    
C15   C17   A    
C46   C47   A    
C10   H16   S    
C3    C5    A    
C6    C7    A    
C48   O7    S    
C30   C36   A    
C26   H20   S    
C32   C33   A    
C25   C26   A    
C39   O4    S    
C47   H10   S    
C11   C13   A    
C23   H4    S    
C30   C31   A    
C33   C35   A    
C39   N1    A    
C31   H6    S    
C10   C11   A    
C8    H15   S    
C38   H8    S    
C20   C21   A    
C9    N2    S    
C16   O12   A    
C14   C15   A    
C19   H22   S    
C13   C14   A    
C43   C47   A    
N4    Zn1   S    
C3    H11   S    
