data_mof_unit_42098.cif
_audit_creation_date              2012-12-11T15:48:39-0500
_audit_creation_method            fapswitch 2.2
_symmetry_space_group_name_H-M    P1
_symmetry_Int_Tables_number       1
_space_group_crystal_system       triclinic
_cell_length_a                    10.944841
_cell_length_b                    10.931461
_cell_length_c                    18.804761
_cell_angle_alpha                 90.629653
_cell_angle_beta                  90.470775
_cell_angle_gamma                 60.219724
_cell_volume                      1952.60775828

loop_
_atom_site_label
_atom_site_type_symbol
_atom_type_description
_atom_site_fract_x
_atom_site_fract_y
_atom_site_fract_z
_atom_type_partial_charge
C1    C     C_R   0.239730 0.645595 0.610463 0.541249
C2    C     C_3   0.673941 0.548324 0.799541 -0.253352
C3    C     C_3   0.698000 0.673637 0.812408 0.049571
C4    C     C_3   0.669834 0.647977 0.676404 0.057664
C5    C     C_3   0.813328 0.637680 0.690577 -0.249221
C6    C     C_3   0.660623 0.531407 0.719250 -0.212102
C7    C     C_R   0.682233 0.151886 0.822264 0.016182
C8    C     C_R   0.778609 0.175414 0.785273 -0.006798
C9    C     C_R   0.772988 0.184345 0.711214 0.012043
C10   C     C_R   0.579515 0.139149 0.709273 -0.180104
C11   C     C_R   0.575596 0.145684 0.782407 -0.171094
C12   C     C_R   0.653816 0.622294 0.600987 0.538632
C13   C     C_3   0.934490 0.095022 0.786944 -0.271940
C14   C     C_3   0.929787 0.102510 0.706410 -0.281756
C15   C     C_R   0.674921 0.163642 0.672111 0.015509
C16   C     C_R   0.180684 0.667172 0.835078 0.012303
C17   C     C_R   0.154068 0.575723 0.793806 0.017566
C18   C     C_R   0.162804 0.573484 0.720046 -0.004098
C19   C     C_R   0.213427 0.763557 0.726171 -0.171811
C20   C     C_R   0.213222 0.759830 0.800062 -0.178841
C21   C     C_3   0.227883 0.418940 0.797129 -0.283237
C22   C     C_3   0.235103 0.417092 0.716680 -0.271228
C23   C     C_R   0.630420 0.225515 0.601874 0.535961
C24   C     C_R   0.195073 0.665557 0.684800 0.012470
C25   C     C_R   0.678121 0.695242 0.175562 0.030710
C26   C     C_R   0.719143 0.561582 0.202110 0.021533
C27   C     C_R   0.714684 0.543878 0.273349 0.029732
C28   C     C_R   0.593473 0.793837 0.293912 -0.165056
C29   C     C_R   0.606783 0.813031 0.221185 -0.145240
C30   C     C_3   0.847834 0.419273 0.193195 -0.274783
C31   C     C_3   0.848887 0.406592 0.273478 -0.270685
C32   C     C_R   0.658417 0.656588 0.321078 0.017823
C33   C     C_R   0.655939 0.168901 0.173575 0.015730
C34   C     C_R   0.218429 0.651551 0.402380 0.544452
C35   C     C_R   0.524041 0.244559 0.204811 -0.005821
C36   C     C_R   0.513920 0.255107 0.277420 0.035186
C37   C     C_R   0.766106 0.131800 0.290208 -0.181194
C38   C     C_R   0.777048 0.124746 0.216670 -0.172418
C39   C     C_3   0.390863 0.238948 0.196965 -0.280423
C40   C     C_3   0.382674 0.245100 0.277560 -0.265440
C41   C     C_R   0.633612 0.191494 0.321124 0.028342
C42   C     C_R   0.054062 0.729424 0.194746 0.009823
C43   C     C_R   0.094212 0.816920 0.229510 0.031032
C44   C     C_R   0.125874 0.804077 0.299916 -0.012098
C45   C     C_R   0.644049 0.624849 0.393732 0.541466
C46   C     C_R   0.077110 0.612448 0.307721 -0.166733
C47   C     C_R   0.035145 0.633374 0.235797 -0.177340
C48   C     C_3   0.198130 0.864767 0.212345 0.023270
C49   C     C_3   0.229426 0.855731 0.291238 -0.206304
C50   C     C_R   0.134533 0.690921 0.338051 0.014869
C51   C     C_R   0.701934 0.099994 0.895276 0.545174
C52   C     C_R   0.722696 0.687677 0.888390 0.550875
C53   C     C_R   0.119190 0.705336 0.906011 0.547043
C54   C     C_R   0.675674 0.108300 0.103502 0.538059
C55   C     C_R   0.723042 0.711508 0.106070 0.535454
C56   C     C_R   0.615402 0.230038 0.394822 0.544607
C57   C     C_R   0.027700 0.747194 0.118823 0.545308
C58   C     C_3   0.568808 0.808721 0.783009 -0.233947
C59   C     C_3   0.552877 0.794161 0.702693 -0.238055
C60   C     C_3   0.830952 0.649401 0.770937 -0.216829
Cr1   Cr    Cr6+3 0.392960 0.397920 0.502240 1.003189
Cr2   Cr    Cr6+3 0.398340 0.708480 0.501250 0.999326
Cr3   Cr    Cr6+3 0.708670 0.393570 0.496460 1.005515
Cr4   Cr    Cr6+3 0.937650 0.938540 0.007610 0.990866
Cr5   Cr    Cr6+3 0.625330 0.937370 0.994520 0.996096
Cr6   Cr    Cr6+3 0.937940 0.625230 0.001190 0.997696
H1    H     H_    0.583981 0.900071 0.792639 0.144195
H2    H     H_    0.748511 0.427452 0.702670 0.148882
H3    H     H_    0.923027 0.549591 0.788886 0.143481
H4    H     H_    0.900698 0.535559 0.670546 0.131799
H5    H     H_    0.498775 0.126721 0.681923 0.128385
H6    H     H_    0.493182 0.133926 0.807192 0.136630
H7    H     H_    0.972861 0.987849 0.807787 0.175015
H8    H     H_    0.973797 0.166931 0.685039 0.131791
H9    H     H_    0.967709 0.998843 0.679587 0.146073
H10   H     H_    0.232730 0.841194 0.701680 0.132043
H11   H     H_    0.471027 0.829093 0.810852 0.115853
H12   H     H_    0.228445 0.836954 0.829557 0.129180
H13   H     H_    0.159610 0.378964 0.817859 0.131903
H14   H     H_    0.331555 0.376185 0.824031 0.143940
H15   H     H_    0.343040 0.372874 0.695876 0.179667
H16   H     H_    0.169458 0.378030 0.690520 0.123578
H17   H     H_    0.540393 0.884342 0.328966 0.116659
H18   H     H_    0.571307 0.917937 0.201823 0.128316
H19   H     H_    0.942151 0.418480 0.171967 0.146087
H20   H     H_    0.822440 0.344624 0.165158 0.144736
H21   H     H_    0.834986 0.319627 0.292389 0.162469
H22   H     H_    0.447730 0.807010 0.691968 0.138538
H23   H     H_    0.936369 0.414269 0.299540 0.130345
H24   H     H_    0.860304 0.092176 0.322652 0.121234
H25   H     H_    0.881495 0.074039 0.194166 0.137802
H26   H     H_    0.404537 0.138935 0.174332 0.156293
H27   H     H_    0.305952 0.335552 0.171528 0.139737
H28   H     H_    0.291361 0.342364 0.298247 0.150119
H29   H     H_    0.398650 0.145798 0.301702 0.130920
H30   H     H_    0.073757 0.530110 0.337564 0.115983
H31   H     H_    0.997397 0.569419 0.211421 0.123754
H32   H     H_    0.147568 0.974662 0.192272 0.115033
H33   H     H_    0.559182 0.879038 0.673794 0.112379
H34   H     H_    0.339257 0.777047 0.305711 0.181788
H35   H     H_    0.852623 0.737190 0.781943 0.126442
H36   H     H_    0.819713 0.723471 0.662518 0.115909
H37   H     H_    0.763320 0.449875 0.821265 0.131557
O1    O     O_R   0.507380 0.255700 0.581440 -0.536117
O2    O     O_R   0.524480 0.695810 0.424040 -0.511708
O3    O     O_R   0.736390 0.504290 0.414790 -0.518770
O4    O     O_R   0.691300 0.277290 0.422170 -0.506634
O5    O     O_3   0.499990 0.499990 0.499980 -0.245543
O6    O     O_R   0.089400 0.825690 0.930570 -0.528154
O7    O     O_R   0.818460 0.054440 0.929850 -0.497836
O8    O     O_R   0.606060 0.077150 0.915510 -0.533474
O9    O     O_R   0.646550 0.806680 0.917570 -0.505115
O10   O     O_R   0.837170 0.593410 0.915250 -0.523541
O11   O     O_R   0.065200 0.635530 0.931570 -0.493928
O12   O     O_R   0.280320 0.527350 0.578930 -0.503418
O13   O     O_R   0.068260 0.828890 0.091840 -0.520262
O14   O     O_R   0.798870 0.057410 0.079340 -0.529330
O15   O     O_R   0.584930 0.080350 0.076780 -0.527148
O16   O     O_R   0.626960 0.809650 0.067060 -0.498655
O17   O     O_R   0.816040 0.596610 0.076510 -0.527633
O18   O     O_R   0.045610 0.638500 0.081060 -0.519262
O19   O     O_3   0.833640 0.833710 0.001100 -0.277206
O20   O     O_R   0.260510 0.739590 0.584590 -0.533086
O21   O     O_R   0.532300 0.695080 0.573820 -0.510700
O22   O     O_R   0.744840 0.503500 0.576370 -0.529935
O23   O     O_R   0.699120 0.276560 0.571960 -0.500588
O24   O     O_R   0.498940 0.256500 0.419860 -0.521542
O25   O     O_R   0.272500 0.528080 0.429150 -0.504411
O26   O     O_R   0.252060 0.740380 0.423010 -0.525300
H38   H     H_    0.979982 0.155857 0.812286 0.127479
N1    N     N_2   0.320230 0.766473 0.170034 -0.496166
H39   H     H_    0.316590 0.796620 0.117958 0.277300
C61   C     C_3   0.382991 0.615007 0.178560 -0.259356
H40   H     H_    0.487015 0.561174 0.152108 0.145902
H41   H     H_    0.317667 0.576203 0.152305 0.160946
H42   H     H_    0.398392 0.584805 0.235399 0.151192
H43   H     H_    0.191054 0.960910 0.316548 0.100386
H44   H     H_    0.576403 0.566517 0.826888 0.120706
H45   H     H_    0.559906 0.532872 0.707651 0.128011

loop_
_geom_bond_atom_site_label_1
_geom_bond_atom_site_label_2
_ccdc_geom_bond_type
C44   C49   S    
C8    C13   S    
Cr4   O13   S    
Cr6   O10   S    
C49   H43   S    
C59   H33   S    
C32   C45   S    
C35   C36   A    
C9    C14   S    
Cr2   O21   S    
C5    H36   S    
C7    C8    A    
C56   O4    A    
Cr2   O2    S    
C55   O16   A    
C52   O10   A    
C53   O11   A    
C7    C11   A    
C26   C27   A    
C5    H4    S    
C37   H24   S    
C18   C24   A    
C14   H8    S    
C28   C29   A    
C10   C15   A    
C30   C31   S    
Cr2   O5    S    
C52   O9    A    
C53   O6    A    
C4    C59   S    
C56   O24   A    
C6    H45   S    
Cr1   O5    S    
C16   C53   S    
Cr5   O8    S    
C58   H11   S    
C59   H22   S    
C39   H27   S    
C19   C20   A    
C34   O26   A    
C16   C17   A    
C31   H23   S    
Cr1   O12   S    
C61   H42   S    
C13   H38   S    
Cr6   O19   S    
C48   N1    S    
C30   H20   S    
C43   C48   S    
C3    C60   S    
C15   C23   S    
Cr6   O17   S    
C21   C22   S    
C28   H17   S    
C37   C41   A    
Cr2   O26   S    
C36   C41   A    
C2    C6    S    
C42   C57   S    
Cr2   O20   S    
C45   O2    A    
C57   O13   A    
C55   O17   A    
C25   C29   A    
C34   C50   S    
C31   H21   S    
C27   C31   S    
C2    H44   S    
C22   H15   S    
C28   C32   A    
Cr1   O1    S    
C1    O12   A    
C29   H18   S    
C4    C6    S    
C39   C40   S    
C11   H6    S    
C8    C9    A    
C12   O22   A    
C25   C26   A    
C38   H25   S    
C17   C21   S    
Cr4   O14   S    
Cr3   O3    S    
C35   C39   S    
C43   C44   A    
C1    O20   A    
C41   C56   S    
C37   C38   A    
Cr4   O7    S    
C23   O1    A    
C12   O21   A    
C36   C40   S    
C16   C20   A    
C21   H13   S    
C17   C18   A    
Cr5   O16   S    
Cr6   O18   S    
Cr1   O24   S    
Cr5   O19   S    
C30   H19   S    
Cr3   O22   S    
C23   O23   A    
C48   C49   S    
C13   H7    S    
C26   C30   S    
Cr5   O15   S    
C54   O15   A    
C61   H40   S    
C4    C12   S    
C42   C43   A    
Cr5   O9    S    
Cr3   O4    S    
C60   H35   S    
C22   H16   S    
C39   H26   S    
C45   O3    A    
C44   C50   A    
C33   C54   S    
C46   C47   A    
C19   H10   S    
C51   O8    A    
Cr6   O11   S    
C5    C60   S    
C27   C32   A    
C18   C22   S    
C25   C55   S    
C40   H28   S    
C4    C5    S    
N1    C61   S    
C3    C52   S    
C51   O7    A    
C48   H32   S    
C46   C50   A    
C33   C38   A    
C47   H31   S    
C20   H12   S    
C14   H9    S    
C19   C24   A    
C58   C59   S    
C7    C51   S    
C10   H5    S    
C49   H34   S    
Cr4   O6    S    
C60   H3    S    
Cr4   O19   S    
C21   H14   S    
C6    H2    S    
C33   C35   A    
C2    C3    S    
Cr1   O25   S    
C42   C47   A    
C9    C15   A    
C2    H37   S    
Cr3   O23   S    
C10   C11   A    
C57   O18   A    
C3    C58   S    
C58   H1    S    
C46   H30   S    
C1    C24   S    
C34   O25   A    
C54   O14   A    
C61   H41   S    
C40   H29   S    
Cr3   O5    S    
C13   C14   S    
N1    H39   S    
