data_mof_unit_51385.cif
_audit_creation_date              2012-12-10T17:25:33-0500
_audit_creation_method            fapswitch 2.2
_symmetry_space_group_name_H-M    P1
_symmetry_Int_Tables_number       1
_space_group_crystal_system       triclinic
_cell_length_a                    10.195144
_cell_length_b                    10.782409
_cell_length_c                    23.506245
_cell_angle_alpha                 90.24513
_cell_angle_beta                  80.030526
_cell_angle_gamma                 96.037988
_cell_volume                      2530.60676495

loop_
_atom_site_label
_atom_site_type_symbol
_atom_type_description
_atom_site_fract_x
_atom_site_fract_y
_atom_site_fract_z
_atom_type_partial_charge
C1    C     C_R   0.556485 0.732792 0.497939 0.937010
C2    C     C_R   0.572577 0.430926 0.288309 0.109104
C3    C     C_R   0.594864 0.543241 0.757416 -0.147380
C4    C     C_R   0.563929 0.436124 0.230050 -0.145433
C5    C     C_R   0.475899 0.499083 0.793405 0.224506
C6    C     C_R   0.477176 0.510621 0.210120 0.219798
C7    C     C_2   0.588379 0.865523 0.502480 -0.386134
C8    C     C_2   0.411019 0.134552 0.514612 -0.388108
C9    C     C_2   0.487681 0.933647 0.520777 -0.140412
C10   C     C_2   0.510946 0.066575 0.519133 -0.138644
C11   C     C_2   0.934177 0.526652 0.493296 0.295945
C12   C     C_R   0.443385 0.267215 0.505648 0.938413
C13   C     C_2   0.061029 0.478639 0.506613 0.275420
C14   C     C_R   0.498474 0.498274 0.610649 0.900132
C15   C     C_R   0.501316 0.502695 0.389353 0.900053
C16   C     C_R   0.434224 0.401427 0.124592 0.510582
C17   C     C_R   0.488497 0.611965 0.881028 0.512005
C18   C     C_R   0.510814 0.618812 0.118151 0.524986
C19   C     C_R   0.458403 0.389171 0.883970 0.523335
C20   C     C_R   0.501883 0.622635 0.058970 -0.031871
C21   C     C_R   0.449020 0.387357 0.944579 -0.032360
C22   C     C_R   0.470074 0.507745 0.032105 -0.058904
C23   C     C_R   0.362685 0.451374 0.770227 0.237085
C24   C     C_R   0.470128 0.503472 0.972218 -0.058900
C25   C     C_R   0.438642 0.396645 0.065057 -0.050011
C26   C     C_R   0.491973 0.615726 0.939996 -0.052505
C27   C     C_R   0.523370 0.735306 0.025664 0.171339
C28   C     C_R   0.419439 0.275564 0.978596 0.167712
C29   C     C_R   0.516256 0.729770 0.966899 -0.153610
C30   C     C_R   0.412471 0.282732 0.038364 -0.154823
C31   C     C_3   0.549038 0.863076 0.050812 -0.783502
C32   C     C_3   0.391331 0.147755 0.953867 -0.777693
C33   C     C_3   0.125074 0.650774 0.563661 -0.671806
C34   C     C_R   0.400024 0.586652 0.248408 0.234134
C35   C     C_3   0.877223 0.409342 0.417058 -0.644092
C36   C     C_3   0.229600 0.417007 0.809583 -0.841301
C37   C     C_3   0.292757 0.654424 0.228519 -0.837554
C38   C     C_3   0.261783 0.367976 0.684570 -0.835184
C39   C     C_3   0.359635 0.695535 0.344445 -0.831960
C40   C     C_3   0.732137 0.605025 0.661728 -0.853934
C41   C     C_3   0.655945 0.337073 0.307634 -0.848441
C42   C     C_3   0.078946 0.342170 0.499158 -0.866472
C43   C     C_3   0.934617 0.663739 0.479927 -0.872241
C44   C     C_R   0.374325 0.439500 0.709829 0.104756
C45   C     C_R   0.421356 0.595664 0.306024 0.106102
C46   C     C_R   0.493169 0.492966 0.673424 -0.118738
C47   C     C_R   0.501708 0.511643 0.326935 -0.121236
C48   C     C_R   0.604073 0.545008 0.697769 0.122159
H1    H     H_    0.531824 0.815677 0.941704 0.191936
H2    H     H_    0.647125 0.872506 0.065672 0.274399
H3    H     H_    0.552867 0.939046 0.018590 0.204418
H4    H     H_    0.305520 0.146408 0.930446 0.265594
H5    H     H_    0.481898 0.122205 0.924663 0.270988
H6    H     H_    0.364269 0.073984 0.987980 0.203806
H7    H     H_    0.182774 0.646014 0.599310 0.233585
H8    H     H_    0.155487 0.742657 0.541624 0.204144
H9    H     H_    0.017627 0.642527 0.583961 0.186336
H10   H     H_    0.868955 0.486205 0.387047 0.214261
H11   H     H_    0.980327 0.381865 0.406264 0.186026
H12   H     H_    0.388757 0.197746 0.064231 0.190686
H13   H     H_    0.806770 0.327651 0.409794 0.227017
H14   H     H_    0.148037 0.455215 0.791668 0.234673
H15   H     H_    0.226925 0.456583 0.853340 0.232301
H16   H     H_    0.208690 0.314056 0.813986 0.257376
H17   H     H_    0.327302 0.755299 0.222222 0.261298
H18   H     H_    0.199335 0.642297 0.261118 0.231303
H19   H     H_    0.265762 0.617205 0.187536 0.232218
H20   H     H_    0.302807 0.312724 0.646901 0.235228
H21   H     H_    0.200181 0.298800 0.715509 0.240346
H22   H     H_    0.195480 0.433758 0.671320 0.249599
H23   H     H_    0.680164 0.578975 0.776719 0.162532
H24   H     H_    0.424505 0.729051 0.375934 0.236360
H25   H     H_    0.349848 0.779689 0.319209 0.239667
H26   H     H_    0.259005 0.658366 0.367715 0.248520
H27   H     H_    0.786063 0.533135 0.636326 0.252782
H28   H     H_    0.709455 0.677079 0.632292 0.238961
H29   H     H_    0.801091 0.651795 0.688893 0.228734
H30   H     H_    0.598016 0.281195 0.344997 0.239969
H31   H     H_    0.687231 0.270722 0.272862 0.238364
H32   H     H_    0.748080 0.386585 0.319184 0.245202
H33   H     H_    0.984883 0.284342 0.494739 0.213670
H34   H     H_    0.622503 0.378999 0.199553 0.168048
H35   H     H_    0.155121 0.329106 0.460379 0.255371
H36   H     H_    0.108223 0.305716 0.538684 0.250561
H37   H     H_    0.038106 0.708311 0.465634 0.214534
H38   H     H_    0.882889 0.676934 0.442947 0.256235
H39   H     H_    0.885671 0.712041 0.518363 0.239515
H40   H     H_    0.613631 0.108184 0.517238 0.190949
H41   H     H_    0.384675 0.892114 0.533073 0.186294
H42   H     H_    0.308628 0.092459 0.516445 0.151210
H43   H     H_    0.691122 0.907543 0.490196 0.151725
H44   H     H_    0.467047 0.878290 0.087071 0.260503
N1    N     N_R   0.472014 0.510707 0.149633 -0.341738
N2    N     N_R   0.473071 0.500137 0.854426 -0.343207
N3    N     N_2   0.842710 0.448880 0.476480 -0.067607
N4    N     N_2   0.157290 0.551120 0.523520 -0.052058
O1    O     O_R   0.431060 0.692470 0.504730 -0.605938
O2    O     O_2   0.500825 0.719210 0.850166 -0.559176
O3    O     O_2   0.559338 0.720635 0.144405 -0.565057
O4    O     O_2   0.453972 0.282243 0.854123 -0.560123
O5    O     O_R   0.568940 0.307530 0.495270 -0.606571
O6    O     O_R   0.651120 0.659650 0.489640 -0.614868
O7    O     O_R   0.348880 0.340350 0.510360 -0.619377
O8    O     O_R   0.389950 0.516450 0.591390 -0.611970
O9    O     O_R   0.610050 0.483550 0.408610 -0.610789
O10   O     O_R   0.610020 0.483630 0.576300 -0.605197
O11   O     O_R   0.389980 0.516370 0.423700 -0.604356
O12   O     O_2   0.393406 0.297439 0.157433 -0.566861
Zn1   Zn    Zn3+2 0.353060 0.521920 0.510080 0.933779
Zn2   Zn    Zn3+2 0.646940 0.478080 0.489920 0.932543

loop_
_geom_bond_atom_site_label_1
_geom_bond_atom_site_label_2
_ccdc_geom_bond_type
C33   H7    S    
O9    Zn2   S    
C38   H22   S    
C27   C29   A    
C34   C37   S    
C2    C4    A    
C15   C47   S    
C41   H32   S    
C5    N2    S    
C14   C46   S    
C29   H1    S    
C10   H40   S    
C16   N1    A    
C35   H10   S    
C17   C26   A    
C19   C21   A    
C24   C26   A    
O10   Zn2   S    
O8    Zn1   S    
C38   H20   S    
C2    C41   S    
C3    C48   A    
C25   C30   A    
C35   H11   S    
C39   H26   S    
C15   O11   A    
C40   C48   S    
C32   H4    S    
C22   C25   A    
C30   H12   S    
C39   H24   S    
C11   C43   S    
C36   H15   S    
C17   O2    S    
C39   C45   S    
C33   H8    S    
C38   H21   S    
O11   Zn1   S    
C42   H33   S    
C36   H14   S    
C32   H6    S    
C13   C42   S    
C44   C46   A    
C45   C47   A    
C46   C48   A    
C13   N4    D    
C27   C31   S    
C43   H37   S    
C28   C32   S    
C42   H36   S    
C12   O7    A    
C4    C6    A    
C9    H41   S    
C41   H30   S    
O5    Zn2   S    
C23   C44   A    
C6    C34   A    
C37   H17   S    
C3    H23   S    
C38   C44   S    
O1    Zn1   S    
C14   O8    A    
C5    C23   A    
C8    C12   S    
C6    N1    S    
C7    H43   S    
C37   H18   S    
C35   H13   S    
C34   C45   A    
C19   N2    A    
C21   C28   A    
C20   C22   A    
C23   C36   S    
C22   C24   A    
O6    Zn2   S    
C8    H42   S    
C18   O3    S    
C31   H2    S    
C1    O1    A    
C33   N4    S    
C32   H5    S    
C9    C10   S    
C11   N3    D    
C16   C25   A    
C7    C9    D    
C33   H9    S    
C1    C7    S    
C43   H38   S    
C42   H35   S    
C31   H3    S    
C3    C5    A    
N3    Zn2   S    
C41   H31   S    
C19   O4    S    
C20   C27   A    
C35   N3    S    
C2    C47   A    
N4    Zn1   S    
C40   H27   S    
O7    Zn1   S    
C43   H39   S    
C15   O9    A    
C28   C30   A    
C12   O5    A    
C11   C13   S    
C37   H19   S    
C18   C20   A    
C39   H25   S    
C16   O12   S    
C40   H28   S    
C14   O10   A    
C4    H34   S    
C26   C29   A    
C8    C10   D    
C31   H44   S    
C21   C24   A    
C18   N1    A    
C40   H29   S    
C17   N2    A    
C36   H16   S    
C1    O6    A    
