data_mof_unit_27884.cif
_audit_creation_date              2012-12-10T18:57:10-0500
_audit_creation_method            fapswitch 2.2
_symmetry_space_group_name_H-M    P1
_symmetry_Int_Tables_number       1
_space_group_crystal_system       triclinic
_cell_length_a                    10.716411
_cell_length_b                    9.836394
_cell_length_c                    10.676889
_cell_angle_alpha                 90.012649
_cell_angle_beta                  90.085761
_cell_angle_gamma                 90.021198
_cell_volume                      1125.45848192

loop_
_atom_site_label
_atom_site_type_symbol
_atom_type_description
_atom_site_fract_x
_atom_site_fract_y
_atom_site_fract_z
_atom_type_partial_charge
C1    C     C_R   0.259884 0.499932 0.499900 0.868005
C2    C     C_R   0.523209 0.623644 0.936187 0.126656
C3    C     C_R   0.524013 0.500753 0.128576 -0.104633
C4    C     C_R   0.524199 0.500790 0.871467 -0.104733
C5    C     C_R   0.549138 0.379141 0.064800 -0.226344
C6    C     C_R   0.549272 0.379166 0.935268 -0.228007
C7    C     C_3   0.433792 0.740059 0.928888 -0.472815
C8    C     C_3   0.433702 0.740055 0.070904 -0.495933
C9    C     C_R   0.063916 0.379008 0.525288 -0.196487
C10   C     C_R   0.936072 0.379048 0.525435 -0.195769
C11   C     C_R   0.872563 0.499974 0.500061 -0.010285
C12   C     C_R   0.740121 0.499966 0.500070 0.862486
C13   C     C_R   0.127438 0.499907 0.499833 -0.014088
C14   C     C_R   0.936083 0.620868 0.474573 -0.196439
C15   C     C_R   0.063927 0.620829 0.474426 -0.199563
C16   C     C_R   0.573164 0.072018 0.582097 -0.078731
C17   C     C_R   0.426798 0.071906 0.417941 -0.079453
C18   C     C_R   0.573133 0.928082 0.582124 -0.080358
C19   C     C_R   0.426794 0.927974 0.417941 -0.080695
C20   C     C_R   0.503849 0.500049 0.259859 0.882250
C21   C     C_R   0.503965 0.500069 0.740139 0.883169
C22   C     C_R   0.523121 0.623628 0.063926 0.142814
H1    H     H_    0.559851 0.283423 0.113829 0.171438
H2    H     H_    0.368259 0.126426 0.352378 0.127702
H3    H     H_    0.112615 0.285081 0.545858 0.157618
H4    H     H_    0.887364 0.285150 0.546127 0.153618
H5    H     H_    0.631565 0.873538 0.647775 0.125841
H6    H     H_    0.368232 0.873350 0.352406 0.122145
H7    H     H_    0.560101 0.283467 0.886216 0.166420
H8    H     H_    0.477477 0.832419 0.887929 0.201657
H9    H     H_    0.342220 0.710968 0.112087 0.199464
H10   H     H_    0.342355 0.710938 0.887347 0.206096
H11   H     H_    0.477331 0.832430 0.112047 0.203374
H12   H     H_    0.887381 0.714793 0.453997 0.157426
H13   H     H_    0.112636 0.714727 0.453728 0.153431
H14   H     H_    0.631675 0.126633 0.647685 0.119558
N1    N     N_R   0.500000 0.857200 0.500000 -0.077028
N2    N     N_R   0.500000 0.142810 0.500000 -0.077741
O1    O     O_R   0.316770 0.614620 0.499990 -0.626801
O2    O     O_R   0.683230 0.614620 0.500010 -0.627995
O3    O     O_R   0.316800 0.385290 0.500000 -0.624321
O4    O     O_R   0.683200 0.385290 0.500000 -0.627656
O5    O     O_R   0.500000 0.614690 0.316780 -0.619338
O6    O     O_R   0.500000 0.614690 0.683220 -0.618717
O7    O     O_R   0.500020 0.385360 0.316780 -0.625166
O8    O     O_R   0.499980 0.385360 0.683220 -0.625518
Zn1   Zn    Zn3+2 0.500000 0.653120 0.500000 0.941842
Zn2   Zn    Zn3+2 0.500000 0.346880 0.500000 0.941603

loop_
_geom_bond_atom_site_label_1
_geom_bond_atom_site_label_2
_ccdc_geom_bond_type
C6    H7    S    
C14   H12   S    
O2    Zn1   S    
C8    C22   S    
C11   C12   S    
C2    C22   A    
C4    C21   S    
N1    Zn1   S    
C21   O6    A    
C9    C10   A    
C2    C4    A    
C2    C7    S    
C5    H1    S    
O6    Zn1   S    
C8    H11   S    
C10   H4    S    
C9    H3    S    
C7    C8    S    
C7    H8    S    
O4    Zn2   S    
C16   H14   S    
C19   H6    S    
C8    H9    S    
C1    O3    A    
C17   C19   A    
C18   N1    A    
N2    Zn2   S    
C17   N2    A    
C13   C15   A    
C5    C6    A    
C11   C14   A    
O8    Zn2   S    
C17   H2    S    
C1    C13   S    
C10   C11   A    
C1    O1    A    
C3    C20   S    
C20   O5    A    
C4    C6    A    
C21   O8    A    
O7    Zn2   S    
C15   H13   S    
C9    C13   A    
C14   C15   A    
C3    C22   A    
C12   O4    A    
C7    H10   S    
C19   N1    A    
O1    Zn1   S    
O5    Zn1   S    
O3    Zn2   S    
C16   C18   A    
C18   H5    S    
C20   O7    A    
C16   N2    A    
C3    C5    A    
C12   O2    A    
