data_mof_unit_56543.cif
_audit_creation_date              2012-10-26T19:45:31-0400
_audit_creation_method            fapswitch 2.2
_symmetry_space_group_name_H-M    P1
_symmetry_Int_Tables_number       1
_space_group_crystal_system       triclinic
_cell_length_a                    10.794507
_cell_length_b                    9.588544
_cell_length_c                    10.741675
_cell_angle_alpha                 89.798161
_cell_angle_beta                  91.529292
_cell_angle_gamma                 89.701342
_cell_volume                      1111.38352287

loop_
_atom_site_label
_atom_site_type_symbol
_atom_type_description
_atom_site_fract_x
_atom_site_fract_y
_atom_site_fract_z
_atom_type_partial_charge
Br1   Br    Br    0.863242 0.298527 0.707695 -0.543459
Br2   Br    Br    0.850849 0.711182 0.301723 -0.484780
Br3   Br    Br    0.305003 0.170354 0.311260 -0.424515
Br4   Br    Br    0.309812 0.834759 0.307484 -0.458566
C1    C     C_R   0.262599 0.500172 0.500202 0.560095
C2    C     C_R   0.421925 0.926922 0.421345 0.304907
C3    C     C_R   0.577304 0.925047 0.578666 -0.002461
C4    C     C_R   0.577242 0.073275 0.578670 -0.008740
C5    C     C_R   0.501275 0.499883 0.259816 0.564809
C6    C     C_R   0.737669 0.499826 0.500795 0.591153
C7    C     C_R   0.501959 0.499560 0.739979 0.539115
C8    C     C_3   0.379041 0.559415 0.067339 -0.229084
C9    C     C_3   0.518684 0.347901 0.071806 -0.229976
C10   C     C_3   0.378378 0.556968 0.923812 -0.238094
C11   C     C_3   0.520556 0.347804 0.929224 -0.234430
C12   C     C_3   0.610486 0.589449 0.930459 -0.234767
C13   C     C_3   0.611372 0.587856 0.074205 -0.226256
C14   C     C_3   0.502571 0.498908 0.121498 0.017053
C15   C     C_3   0.502974 0.498441 0.877816 0.032768
C16   C     C_R   0.068176 0.410913 0.581410 -0.087623
C17   C     C_R   0.062520 0.589106 0.420741 -0.082268
C18   C     C_R   0.939686 0.411622 0.583591 0.129628
C19   C     C_R   0.934253 0.589509 0.419764 0.124729
C20   C     C_R   0.871854 0.499929 0.501196 0.038535
C21   C     C_R   0.129119 0.500123 0.500807 -0.030403
C22   C     C_R   0.421306 0.075038 0.421767 0.301721
Cu1   Cu    Cu3+1 0.500020 0.640660 0.500000 1.034378
Cu2   Cu    Cu3+1 0.500020 0.359340 0.500000 1.032087
H1    H     H_    0.367105 0.668793 0.098216 0.184181
H2    H     H_    0.610226 0.303547 0.898450 0.166036
H3    H     H_    0.604076 0.696752 0.108895 0.180585
H4    H     H_    0.700921 0.543756 0.110224 0.166802
H5    H     H_    0.599881 0.698887 0.896775 0.140563
H6    H     H_    0.700764 0.549528 0.897223 0.156132
H7    H     H_    0.120673 0.343656 0.644929 0.163921
H8    H     H_    0.109970 0.655740 0.356551 0.203566
H9    H     H_    0.606400 0.301016 0.109928 0.153314
H10   H     H_    0.639429 0.869034 0.642000 0.136521
H11   H     H_    0.638829 0.127888 0.642381 0.171386
H12   H     H_    0.299381 0.498332 0.101681 0.154444
H13   H     H_    0.441039 0.281284 0.101966 0.186308
H14   H     H_    0.300380 0.491329 0.888436 0.131383
H15   H     H_    0.445248 0.278991 0.892700 0.146434
H16   H     H_    0.362474 0.664529 0.887207 0.147340
N1    N     N_R   0.500030 0.852070 0.500030 -0.239116
N2    N     N_R   0.500030 0.147930 0.500030 -0.249728
O1    O     O_R   0.319660 0.618740 0.499990 -0.471080
O2    O     O_R   0.319660 0.381260 0.499990 -0.464508
O3    O     O_R   0.499990 0.618790 0.317690 -0.461189
O4    O     O_R   0.499990 0.381210 0.317690 -0.480233
O5    O     O_R   0.680370 0.618830 0.500010 -0.473502
O6    O     O_R   0.680370 0.381170 0.500010 -0.471275
O7    O     O_R   0.500030 0.618780 0.682310 -0.522106
O8    O     O_R   0.500030 0.381220 0.682310 -0.511736

loop_
_geom_bond_atom_site_label_1
_geom_bond_atom_site_label_2
_ccdc_geom_bond_type
C8    H12   S    
C19   C20   A    
Cu1   O7    S    
C2    N1    A    
C12   H5    S    
C1    O1    A    
C9    H9    S    
C7    O7    A    
C9    C11   S    
C10   H14   S    
C6    O6    A    
Cu1   N1    S    
C9    H13   S    
C13   C14   S    
C11   H15   S    
C3    C4    A    
C17   H8    S    
C11   C15   S    
Cu1   O5    S    
Cu2   O6    S    
Cu2   N2    S    
C2    C22   A    
C7    O8    A    
C9    C14   S    
C12   C15   S    
C1    C21   S    
C6    O5    A    
C3    N1    A    
C10   H16   S    
C4    H11   S    
C3    H10   S    
C16   C18   A    
C18   C20   A    
C17   C19   A    
C13   H3    S    
C1    O2    A    
C4    N2    A    
C16   C21   A    
C22   N2    A    
Cu1   O1    S    
C5    C14   S    
Br1   C18   S    
C5    O3    A    
C11   H2    S    
Br4   C2    S    
C8    C14   S    
Br2   C19   S    
C13   H4    S    
C17   C21   A    
C7    C15   S    
C6    C20   S    
Cu2   O8    S    
C12   H6    S    
C16   H7    S    
Cu2   O4    S    
C10   C15   S    
Br3   C22   S    
Cu2   O2    S    
C5    O4    A    
Cu1   O3    S    
C8    C10   S    
C12   C13   S    
Cu1   Cu2   S    
C8    H1    S    
