data_mof_unit_7634.cif
_audit_creation_date              2012-12-10T17:37:20-0500
_audit_creation_method            fapswitch 2.2
_symmetry_space_group_name_H-M    P1
_symmetry_Int_Tables_number       1
_space_group_crystal_system       triclinic
_cell_length_a                    12.345437
_cell_length_b                    13.078604
_cell_length_c                    15.857163
_cell_angle_alpha                 77.656626
_cell_angle_beta                  101.218246
_cell_angle_gamma                 116.352935
_cell_volume                      2226.63402516

loop_
_atom_site_label
_atom_site_type_symbol
_atom_type_description
_atom_site_fract_x
_atom_site_fract_y
_atom_site_fract_z
_atom_type_partial_charge
C1    C     C_R   0.855080 0.285466 0.507859 0.783112
C2    C     C_R   0.225615 0.836579 0.475610 -0.041777
C3    C     C_R   0.813353 0.077605 0.567040 -0.009119
C4    C     C_R   0.999587 0.499830 0.659875 0.814159
C5    C     C_R   0.727917 0.969557 0.598451 -0.188689
C6    C     C_R   0.604490 0.939562 0.576761 -0.210894
C7    C     C_R   0.561318 0.013836 0.516728 0.087087
C8    C     C_R   0.647677 0.123541 0.483008 0.072072
C9    C     C_R   0.435445 0.981231 0.486972 0.080531
C10   C     C_R   0.398121 0.058062 0.424198 0.153837
C11   C     C_R   0.484617 0.162799 0.389111 -0.232240
C12   C     C_3   0.997220 0.500783 0.915965 -0.056354
C13   C     C_R   0.607286 0.192999 0.415560 -0.173243
C14   C     C_R   0.345808 0.871712 0.513608 -0.249348
C15   C     C_R   0.188827 0.915425 0.418022 -0.175600
C16   C     C_R   0.144543 0.713818 0.488685 0.797539
C17   C     C_R   0.773021 0.160173 0.515629 -0.169777
C18   C     C_R   0.347354 0.328893 0.638815 0.369182
C19   C     C_R   0.758569 0.640340 0.379649 0.009613
C20   C     C_R   0.657910 0.662643 0.345339 -0.345045
C21   C     C_R   0.550886 0.608777 0.386801 0.508717
C22   C     C_R   0.547327 0.530258 0.465556 -0.071749
C23   C     C_3   0.100223 0.583385 0.027863 0.433713
C24   C     C_R   0.651802 0.505112 0.494248 0.216049
C25   C     C_R   0.444649 0.472931 0.516296 -0.063654
C26   C     C_R   0.445973 0.386914 0.588349 0.025907
C27   C     C_R   0.546211 0.360541 0.610520 -0.234145
C28   C     C_R   0.000383 0.500198 0.340079 0.816686
C29   C     C_R   0.647035 0.419773 0.565960 -0.137596
C30   C     C_R   0.341384 0.498368 0.501239 0.036128
C31   C     C_R   0.246706 0.354421 0.616079 -0.004510
C32   C     C_3   0.988673 0.399367 0.043213 0.434146
C33   C     C_3   0.893180 0.417073 0.970823 -0.035395
C34   C     C_3   0.997548 0.500353 0.082904 0.065869
C35   C     C_1   0.998994 0.500145 0.749272 -0.119629
C36   C     C_1   0.000470 0.500009 0.250506 -0.150893
C37   C     C_3   0.094088 0.481930 0.988674 -0.426874
C38   C     C_2   0.775549 0.323211 0.940298 0.843014
C39   C     C_2   0.942925 0.097807 0.586912 0.854557
C40   C     C_3   0.400530 0.290582 0.784850 0.070976
C41   C     C_3   0.305071 0.287012 0.835146 -0.799971
C42   C     C_3   0.996626 0.225434 0.047387 0.091081
C43   C     C_3   0.961963 0.104566 0.097763 -0.739237
C44   C     C_3   0.460758 0.732741 0.312077 0.065032
C45   C     C_3   0.005747 0.602695 0.955345 -0.046132
C46   C     C_3   0.511047 0.811442 0.382497 -0.861282
C47   C     C_2   0.015559 0.718042 0.907759 0.859205
C48   C     C_3   0.295152 0.718355 0.005907 0.079716
C49   C     C_3   0.396153 0.828892 0.034610 -0.736155
C50   C     C_3   0.901424 0.519079 0.010753 -0.362808
C51   C     C_1   0.998258 0.500502 0.824564 0.103242
C52   C     C_1   0.999487 0.500050 0.174845 0.079071
C53   C     C_R   0.274753 0.026250 0.393009 -0.173791
Cu1   Cu    Cu3+1 0.098270 0.475420 0.519690 0.966971
Cu2   Cu    Cu3+1 0.901730 0.524580 0.480310 0.943147
H1    H     H_    0.367252 0.808652 0.560297 0.143586
H2    H     H_    0.719596 0.394561 0.589937 0.207970
H3    H     H_    0.823370 0.534113 0.020714 0.182680
H4    H     H_    0.172153 0.467158 0.978459 0.146757
H5    H     H_    0.095400 0.889556 0.388675 0.152527
H6    H     H_    0.457628 0.219827 0.338313 0.155229
H7    H     H_    0.245763 0.084968 0.345630 0.145095
H8    H     H_    0.668048 0.240038 0.840914 0.320158
H9    H     H_    0.101511 0.143212 0.540383 0.337135
H10   H     H_    0.473173 0.380273 0.774679 0.133134
H11   H     H_    0.445611 0.237067 0.825884 0.184546
H12   H     H_    0.546232 0.855250 0.606042 0.139472
H13   H     H_    0.231107 0.198535 0.843391 0.278402
H14   H     H_    0.347858 0.312117 0.900304 0.210661
H15   H     H_    0.265925 0.348262 0.800293 0.224200
H16   H     H_    0.094762 0.262734 0.038549 0.144104
H17   H     H_    0.941282 0.218305 0.982636 0.147445
H18   H     H_    0.863946 0.064460 0.107050 0.253841
H19   H     H_    0.979074 0.050569 0.061254 0.210484
H20   H     H_    0.017065 0.108236 0.162319 0.246096
H21   H     H_    0.369449 0.729520 0.285054 0.195551
H22   H     H_    0.515949 0.770835 0.256702 0.142585
H23   H     H_    0.757106 0.906842 0.640010 0.170099
H24   H     H_    0.608156 0.830310 0.404600 0.248741
H25   H     H_    0.504419 0.894417 0.355767 0.235355
H26   H     H_    0.457968 0.770061 0.438882 0.246925
H27   H     H_    0.024037 0.822739 0.793314 0.352059
H28   H     H_    0.258410 0.739658 0.937834 0.146661
H29   H     H_    0.334970 0.656366 0.007825 0.145210
H30   H     H_    0.436848 0.810603 0.101714 0.231374
H31   H     H_    0.468164 0.865923 0.990326 0.203029
H32   H     H_    0.359108 0.892816 0.032901 0.262929
H33   H     H_    0.670054 0.269932 0.379905 0.177983
H34   H     H_    0.168748 0.308310 0.652195 0.174154
H35   H     H_    0.548766 0.294724 0.664554 0.186638
H36   H     H_    0.334110 0.567071 0.453550 0.204505
H37   H     H_    0.839086 0.682131 0.346057 0.154461
H38   H     H_    0.663267 0.718653 0.283973 0.150175
N1    N     N_R   0.246280 0.438200 0.549540 -0.227490
N2    N     N_R   0.754330 0.561180 0.450980 -0.202039
O1    O     O_R   0.972510 0.318130 0.524770 -0.543364
O2    O     O_R   0.750265 0.305699 0.853424 -0.787416
O3    O     O_2   0.983832 0.074071 0.661376 -0.601779
O4    O     O_R   0.016254 0.137406 0.519444 -0.736367
O5    O     O_3   0.345284 0.242290 0.707110 -0.580728
O6    O     O_3   0.975413 0.293150 0.094906 -0.559323
O7    O     O_3   0.444965 0.617529 0.344332 -0.609730
O8    O     O_2   0.022471 0.790768 0.948296 -0.574886
O9    O     O_R   0.016954 0.742038 0.817704 -0.768413
O10   O     O_3   0.204929 0.671996 0.063100 -0.566704
O11   O     O_R   0.806530 0.359650 0.491510 -0.605496
O12   O     O_R   0.082970 0.479240 0.637550 -0.589033
O13   O     O_R   0.916990 0.520750 0.604290 -0.578647
O14   O     O_R   0.193470 0.640350 0.508490 -0.596704
O15   O     O_R   0.027490 0.681870 0.475230 -0.580775
O16   O     O_R   0.083010 0.479250 0.395710 -0.550262
O17   O     O_R   0.917030 0.520760 0.362450 -0.592721
O18   O     O_2   0.702055 0.262490 0.991836 -0.584531

loop_
_geom_bond_atom_site_label_1
_geom_bond_atom_site_label_2
_ccdc_geom_bond_type
C43   H18   S    
C14   H1    S    
C20   H38   S    
C8    C13   A    
C23   C45   S    
Cu2   O17   S    
C27   C29   A    
C15   H5    S    
C49   H32   S    
C19   C20   A    
C18   C26   A    
C16   O15   A    
C7    C8    A    
C28   O17   A    
C4    O13   A    
C26   C27   A    
Cu1   O12   S    
C15   C53   A    
C44   H22   S    
C46   H24   S    
C23   O10   S    
C27   H35   S    
C12   C37   S    
C44   H21   S    
C10   C53   A    
C24   C29   A    
C19   H37   S    
H9    O4    S    
C31   H34   S    
C22   C25   A    
C2    C16   S    
C9    C10   A    
Cu1   O1    S    
C36   C52   T    
C1    O11   A    
C43   H19   S    
C4    C35   S    
C3    C39   S    
C40   H11   S    
C21   C22   A    
C18   O5    S    
C38   O2    S    
C44   C46   S    
C16   O14   A    
C41   H13   S    
C45   C47   S    
C28   O16   A    
C43   H20   S    
C4    O12   A    
C34   C50   S    
C47   O8    D    
Cu2   O11   S    
C50   H3    S    
C49   H30   S    
Cu2   N2    S    
C24   N2    A    
C38   O18   D    
C44   O7    S    
C30   H36   S    
C39   O3    D    
C3    C5    A    
C33   C50   S    
C23   C37   S    
C48   H29   S    
Cu1   O14   S    
C32   C34   S    
C9    C14   A    
C46   H26   S    
C53   H7    S    
C39   O4    S    
C48   O10   S    
C23   C34   S    
C42   H17   S    
C32   C37   S    
C2    C15   A    
C37   H4    S    
C21   O7    S    
C48   C49   S    
C29   H2    S    
C40   H10   S    
Cu2   O15   S    
C35   C51   T    
C22   C24   A    
C42   C43   S    
C42   O6    S    
C12   C51   S    
C19   N2    A    
C41   H14   S    
C25   C30   A    
C7    C9    A    
Cu1   Cu2   S    
C40   C41   S    
C47   O9    S    
C1    C17   S    
C49   H31   S    
C8    C17   A    
C12   C45   S    
C11   H6    S    
C40   O5    S    
C6    C7    A    
C31   N1    A    
C34   C52   S    
C33   C38   S    
C48   H28   S    
Cu2   O13   S    
C32   C33   S    
C25   C26   A    
C30   N1    A    
C6    H12   S    
C46   H25   S    
C11   C13   A    
C5    C6    A    
C45   C50   S    
C1    O1    A    
C13   H33   S    
C42   H16   S    
Cu1   O16   S    
C3    C17   A    
C2    C14   A    
Cu1   N1    S    
C10   C11   A    
C5    H23   S    
C20   C21   A    
C28   C36   S    
H8    O2    S    
H27   O9    S    
C32   O6    S    
C18   C31   A    
C12   C33   S    
C41   H15   S    
