data_mof_unit_61843.cif
_audit_creation_date              2012-12-10T18:11:26-0500
_audit_creation_method            fapswitch 2.2
_symmetry_space_group_name_H-M    P1
_symmetry_Int_Tables_number       1
_space_group_crystal_system       triclinic
_cell_length_a                    18.350984
_cell_length_b                    18.352769
_cell_length_c                    34.566295
_cell_angle_alpha                 90.020903
_cell_angle_beta                  90.076919
_cell_angle_gamma                 89.995906
_cell_volume                      11641.6185636

loop_
_atom_site_label
_atom_site_type_symbol
_atom_type_description
_atom_site_fract_x
_atom_site_fract_y
_atom_site_fract_z
_atom_type_partial_charge
C1    C     C_R   0.441457 0.968569 0.041204 -0.231347
C2    C     C_R   0.058528 0.531453 0.458794 -0.232134
C3    C     C_R   0.696368 0.803922 0.749907 -0.486777
C4    C     C_R   0.803769 0.303761 0.250000 -0.486774
C5    C     C_R   0.196194 0.696273 0.749985 -0.495860
C6    C     C_R   0.696204 0.803748 0.249995 -0.496713
C7    C     C_R   0.303827 0.196300 0.750041 -0.486449
C8    C     C_R   0.196325 0.303875 0.750064 -0.487712
C9    C     C_R   0.803781 0.696233 0.249995 -0.496023
C10   C     C_R   0.303798 0.803751 0.749987 -0.491982
C11   C     C_R   0.696286 0.196173 0.250039 -0.487157
C12   C     C_R   0.803971 0.696467 0.749867 -0.484700
C13   C     C_R   0.530865 0.941120 0.541239 -0.231789
C14   C     C_R   0.196261 0.303788 0.250007 -0.490026
C15   C     C_R   0.696265 0.196209 0.750013 -0.490542
C16   C     C_R   0.303835 0.803690 0.249954 -0.486267
C17   C     C_R   0.499098 0.001205 0.102169 -0.064550
C18   C     C_R   0.500897 0.001220 0.897843 -0.065192
C19   C     C_R   0.000562 0.500145 0.102261 -0.056810
C20   C     C_R   0.998624 0.499384 0.897903 -0.065085
C21   C     C_R   0.999107 0.498756 0.602156 -0.065254
C22   C     C_R   0.000906 0.498791 0.397829 -0.064856
C23   C     C_R   0.498877 0.999173 0.602144 -0.065481
C24   C     C_R   0.532160 0.058240 0.458749 -0.231964
C25   C     C_R   0.498952 0.000857 0.397818 -0.064268
C26   C     C_3   0.316167 0.981663 0.103263 -0.555684
C27   C     C_3   0.683941 0.982931 0.896726 -0.559284
C28   C     C_3   0.854733 0.405475 0.112515 -0.671054
C29   C     C_3   0.856578 0.598917 0.887966 -0.664623
C30   C     C_3   0.599308 0.142838 0.112389 -0.671976
C31   C     C_3   0.399609 0.142140 0.887682 -0.668611
C32   C     C_3   0.146779 0.593646 0.113487 -0.665943
C33   C     C_3   0.017316 0.316491 0.896905 -0.561049
C34   C     C_3   0.816045 0.516809 0.603272 -0.558320
C35   C     C_R   0.058523 0.470703 0.541145 -0.240158
C36   C     C_3   0.183827 0.518497 0.396738 -0.561137
C37   C     C_3   0.516117 0.816032 0.603353 -0.557941
C38   C     C_3   0.520215 0.183637 0.396672 -0.561793
C39   C     C_3   0.100613 0.357968 0.612320 -0.671833
C40   C     C_3   0.900828 0.357090 0.387586 -0.668084
C41   C     C_3   0.358529 0.101389 0.612061 -0.670971
C42   C     C_3   0.356292 0.902189 0.387689 -0.667825
C43   C     C_R   0.941752 0.470204 0.458823 -0.239231
C44   C     C_R   0.471211 0.058706 0.541066 -0.240117
C45   C     C_R   0.469971 0.941967 0.458840 -0.239097
C46   C     C_R   0.440159 0.969683 0.081542 0.135016
C47   C     C_R   0.560050 0.970089 0.918463 0.135368
C48   C     C_R   0.966032 0.443225 0.081483 0.165844
C49   C     C_R   0.558758 0.968970 0.958801 -0.231942
C50   C     C_R   0.967322 0.558381 0.918508 0.167384
C51   C     C_R   0.557906 0.032623 0.081528 0.169515
C52   C     C_R   0.441872 0.032239 0.918502 0.169178
C53   C     C_R   0.035493 0.557292 0.081872 0.164888
C54   C     C_R   0.029902 0.440480 0.918623 0.135963
C55   C     C_R   0.939917 0.529809 0.581531 0.135300
C56   C     C_R   0.059821 0.530353 0.418456 0.136040
C57   C     C_R   0.529700 0.939844 0.581575 0.135305
C58   C     C_R   0.531027 0.059515 0.418409 0.136303
C59   C     C_R   0.058173 0.467804 0.581499 0.169359
C60   C     C_R   0.968108 0.443404 0.041119 -0.240684
C61   C     C_R   0.942125 0.467320 0.418468 0.168916
C62   C     C_R   0.468249 0.058382 0.581420 0.169277
C63   C     C_R   0.467037 0.942353 0.418483 0.168531
C64   C     C_R   0.500118 0.998404 0.021115 0.080350
C65   C     C_R   0.499896 0.998407 0.978901 0.080245
C66   C     C_R   0.001120 0.500727 0.021229 0.079074
C67   C     C_R   0.001273 0.500903 0.979007 0.080084
C68   C     C_R   0.000112 0.501557 0.521097 0.080570
C69   C     C_R   0.999893 0.501563 0.478882 0.080510
C70   C     C_R   0.501797 0.000138 0.521081 0.080477
C71   C     C_R   0.970286 0.559080 0.958888 -0.236597
C72   C     C_R   0.501809 0.999869 0.478868 0.080336
C73   C     C_R   0.499866 0.000167 0.355245 0.816837
C74   C     C_R   0.499832 0.999838 0.644742 0.816304
C75   C     C_R   0.000192 0.499832 0.355250 0.817089
C76   C     C_R   0.999810 0.499815 0.644745 0.816616
C77   C     C_R   0.999757 0.499880 0.855275 0.816059
C78   C     C_R   0.000124 0.500012 0.144789 0.804800
C79   C     C_R   0.500190 0.000178 0.855255 0.816381
C80   C     C_R   0.499809 0.000171 0.144750 0.816278
C81   C     C_R   0.359871 0.140101 0.250002 0.954046
C82   C     C_R   0.558282 0.029723 0.041173 -0.239447
C83   C     C_R   0.640149 0.859921 0.749980 0.958669
C84   C     C_R   0.859891 0.359890 0.249991 0.935017
C85   C     C_R   0.140086 0.640127 0.749997 0.957736
C86   C     C_R   0.640091 0.859888 0.250000 0.957900
C87   C     C_R   0.359909 0.140122 0.750007 0.932913
C88   C     C_R   0.140117 0.640115 0.250008 0.946944
C89   C     C_R   0.859864 0.359911 0.750003 0.953736
C90   C     C_R   0.359907 0.859885 0.749992 0.956019
C91   C     C_R   0.640117 0.140098 0.250015 0.943606
C92   C     C_R   0.859933 0.640178 0.749956 0.948746
C93   C     C_R   0.441520 0.029333 0.958856 -0.239243
C94   C     C_R   0.140128 0.359894 0.250004 0.952821
C95   C     C_R   0.640129 0.140101 0.750008 0.955618
C96   C     C_R   0.359898 0.859867 0.249980 0.946192
C97   C     C_R   0.140124 0.359918 0.750019 0.942511
C98   C     C_R   0.859904 0.640105 0.249996 0.955247
C99   C     C_R   0.255661 0.797623 0.218499 0.509052
C100  C     C_R   0.740502 0.206184 0.782779 0.507078
C101  C     C_R   0.206170 0.259656 0.217224 0.513041
C102  C     C_R   0.796848 0.743458 0.781736 0.497491
C103  C     C_R   0.745570 0.200982 0.219063 0.497854
C104  C     C_R   0.033876 0.557750 0.041491 -0.237558
C105  C     C_R   0.259757 0.793787 0.782767 0.513440
C106  C     C_R   0.793581 0.740201 0.217183 0.512208
C107  C     C_R   0.200688 0.254020 0.780822 0.508195
C108  C     C_R   0.253935 0.200550 0.780770 0.498173
C109  C     C_R   0.740129 0.793623 0.217183 0.514251
C110  C     C_R   0.206292 0.740391 0.782764 0.512668
C111  C     C_R   0.798895 0.254367 0.219043 0.500939
C112  C     C_R   0.743267 0.796636 0.781817 0.507270
C113  C     C_R   0.259573 0.206196 0.217226 0.505770
C114  C     C_R   0.793896 0.259658 0.782782 0.507848
C115  C     C_R   0.030887 0.441999 0.958976 -0.232355
C116  C     C_R   0.202187 0.744347 0.218546 0.497203
C117  C     C_R   0.759488 0.293842 0.717252 0.504830
C118  C     C_R   0.244418 0.702292 0.281450 0.508732
C119  C     C_R   0.703809 0.757304 0.717900 0.505452
C120  C     C_R   0.293850 0.240343 0.282794 0.507404
C121  C     C_R   0.240235 0.706237 0.717203 0.515501
C122  C     C_R   0.754503 0.298933 0.280986 0.498246
C123  C     C_R   0.299631 0.246346 0.719367 0.499833
C124  C     C_R   0.706397 0.759772 0.282805 0.513077
C125  C     C_R   0.759851 0.706353 0.282806 0.513902
C126  C     C_R   0.941213 0.530924 0.541195 -0.231683
C127  C     C_R   0.246269 0.299676 0.719363 0.497639
C128  C     C_R   0.701255 0.245458 0.281041 0.507995
C129  C     C_R   0.293706 0.759638 0.717204 0.505771
C130  C     C_R   0.240440 0.293804 0.282792 0.507538
C131  C     C_R   0.757195 0.703873 0.717902 0.507537
C132  C     C_R   0.297912 0.755539 0.281394 0.496786
C133  C     C_R   0.706100 0.240372 0.717250 0.514493
C134  C     C_R   0.196223 0.696245 0.250005 -0.486855
C135  C     C_R   0.803726 0.303816 0.750015 -0.486680
C136  C     C_R   0.303746 0.196207 0.250009 -0.487007
F1    F     F_    0.260956 0.842159 0.187241 -0.590192
F2    F     F_    0.730353 0.834137 0.184704 -0.567215
F3    F     F_    0.165716 0.730855 0.815212 -0.567842
F4    F     F_    0.844823 0.258147 0.188323 -0.584564
F5    F     F_    0.736584 0.839892 0.813522 -0.591829
F6    F     F_    0.269055 0.165509 0.184778 -0.586458
F7    F     F_    0.834690 0.269205 0.815217 -0.589116
F8    F     F_    0.157201 0.739343 0.187423 -0.587994
F9    F     F_    0.768893 0.334549 0.684821 -0.587232
F10   F     F_    0.239136 0.657753 0.312709 -0.591040
F11   F     F_    0.660576 0.764201 0.686173 -0.592245
F12   F     F_    0.731098 0.165468 0.815206 -0.589609
F13   F     F_    0.334589 0.230779 0.315244 -0.588914
F14   F     F_    0.230569 0.665576 0.684751 -0.570403
F15   F     F_    0.758266 0.345062 0.311659 -0.588319
F16   F     F_    0.346332 0.243357 0.688955 -0.586654
F17   F     F_    0.665928 0.769473 0.315280 -0.567892
F18   F     F_    0.769625 0.665839 0.315284 -0.567555
F19   F     F_    0.243196 0.346393 0.688937 -0.586633
F20   F     F_    0.655601 0.241365 0.311874 -0.590519
F21   F     F_    0.334298 0.769174 0.684759 -0.587340
F22   F     F_    0.230961 0.334499 0.315237 -0.589153
F23   F     F_    0.165453 0.269229 0.184770 -0.571333
F24   F     F_    0.763970 0.660644 0.686195 -0.592145
F25   F     F_    0.342972 0.760452 0.312486 -0.590185
F26   F     F_    0.665321 0.230826 0.684812 -0.570407
F27   F     F_    0.840795 0.737412 0.813209 -0.592752
F28   F     F_    0.741826 0.154845 0.188393 -0.586480
F29   F     F_    0.269424 0.834440 0.815221 -0.567381
F30   F     F_    0.834045 0.730491 0.184706 -0.568564
F31   F     F_    0.154398 0.257485 0.811410 -0.588771
F32   F     F_    0.257044 0.153843 0.811198 -0.587196
H1    H     H_    0.396654 0.943888 0.025475 0.156349
H2    H     H_    0.103311 0.556169 0.474524 0.155554
H3    H     H_    0.554985 0.896001 0.525563 0.156275
H4    H     H_    0.557246 0.102831 0.474455 0.155523
H5    H     H_    0.103468 0.446710 0.525294 0.150539
H6    H     H_    0.897030 0.445802 0.474664 0.150985
H7    H     H_    0.447457 0.103756 0.525164 0.150634
H8    H     H_    0.445208 0.897466 0.474706 0.151094
H9    H     H_    0.368769 0.885054 0.090787 0.236316
H10   H     H_    0.292982 0.990375 0.073901 0.199912
H11   H     H_    0.329286 0.035289 0.116489 0.265776
H12   H     H_    0.603729 0.944591 0.974521 0.156369
H13   H     H_    0.274608 0.954343 0.121518 0.279303
H14   H     H_    0.632063 0.885962 0.909218 0.237311
H15   H     H_    0.707074 0.991865 0.926084 0.199456
H16   H     H_    0.670418 0.036437 0.883495 0.265134
H17   H     H_    0.725694 0.955882 0.878468 0.278381
H18   H     H_    0.929549 0.337015 0.086510 0.249146
H19   H     H_    0.820466 0.416611 0.086642 0.218940
H20   H     H_    0.855194 0.454249 0.131545 0.218281
H21   H     H_    0.830283 0.359584 0.128894 0.280171
H22   H     H_    0.934204 0.665611 0.913041 0.250429
H23   H     H_    0.941842 0.399842 0.025145 0.151859
H24   H     H_    0.822978 0.588461 0.914117 0.217965
H25   H     H_    0.855147 0.550293 0.868836 0.215321
H26   H     H_    0.832641 0.645516 0.871944 0.289535
H27   H     H_    0.665352 0.065318 0.086830 0.249737
H28   H     H_    0.589257 0.177054 0.086393 0.217558
H29   H     H_    0.646013 0.166030 0.128686 0.284921
H30   H     H_    0.550579 0.144269 0.131400 0.215940
H31   H     H_    0.334174 0.064127 0.913223 0.249055
H32   H     H_    0.409324 0.176456 0.913689 0.217858
H33   H     H_    0.352751 0.164935 0.871355 0.285620
H34   H     H_    0.946087 0.603981 0.974700 0.154836
H35   H     H_    0.448368 0.143947 0.868702 0.215497
H36   H     H_    0.072751 0.663136 0.087531 0.251123
H37   H     H_    0.181066 0.582301 0.087690 0.219791
H38   H     H_    0.145710 0.544779 0.132423 0.216572
H39   H     H_    0.171642 0.639179 0.130011 0.283476
H40   H     H_    0.114169 0.368551 0.909580 0.234709
H41   H     H_    0.008301 0.293479 0.926254 0.199506
H42   H     H_    0.044494 0.274698 0.878716 0.278780
H43   H     H_    0.963835 0.329878 0.883565 0.266244
H44   H     H_    0.867788 0.613843 0.590763 0.238236
H45   H     H_    0.603025 0.054083 0.025331 0.150788
H46   H     H_    0.792924 0.507824 0.573916 0.199221
H47   H     H_    0.774255 0.543813 0.621525 0.277348
H48   H     H_    0.829643 0.463331 0.616513 0.265836
H49   H     H_    0.131125 0.615053 0.409210 0.236016
H50   H     H_    0.207019 0.509812 0.426100 0.198948
H51   H     H_    0.225360 0.545857 0.378482 0.279019
H52   H     H_    0.170764 0.464855 0.383514 0.265865
H53   H     H_    0.613409 0.867347 0.590915 0.238397
H54   H     H_    0.507074 0.792964 0.573998 0.199171
H55   H     H_    0.462674 0.829861 0.616537 0.265665
H56   H     H_    0.396606 0.053382 0.974709 0.151151
H57   H     H_    0.542912 0.774122 0.621649 0.277234
H58   H     H_    0.616343 0.130030 0.409080 0.234997
H59   H     H_    0.511890 0.206881 0.426036 0.199049
H60   H     H_    0.466384 0.171089 0.383499 0.266319
H61   H     H_    0.547873 0.224929 0.378383 0.279757
H62   H     H_    0.165922 0.436089 0.586781 0.248497
H63   H     H_    0.090969 0.323632 0.586314 0.217629
H64   H     H_    0.051847 0.356080 0.631294 0.216266
H65   H     H_    0.147504 0.335255 0.628654 0.284218
H66   H     H_    0.834711 0.434520 0.413169 0.248894
H67   H     H_    0.060363 0.601487 0.025814 0.155279
H68   H     H_    0.910927 0.322865 0.413572 0.218031
H69   H     H_    0.949550 0.355726 0.368568 0.215659
H70   H     H_    0.854141 0.333863 0.371289 0.285903
H71   H     H_    0.437097 0.166283 0.586617 0.248355
H72   H     H_    0.324229 0.091960 0.586005 0.217433
H73   H     H_    0.336013 0.148382 0.628350 0.284589
H74   H     H_    0.356309 0.052619 0.631042 0.216327
H75   H     H_    0.433194 0.835285 0.413218 0.249092
H76   H     H_    0.322331 0.912745 0.413701 0.218143
H77   H     H_    0.332451 0.855706 0.371501 0.286852
H78   H     H_    0.055259 0.397146 0.974774 0.156113
H79   H     H_    0.355337 0.950849 0.368598 0.215665
H80   H     H_    0.896213 0.555247 0.525472 0.156222
N1    N     N_2   0.380652 0.936458 0.101110 -0.289825
N2    N     N_2   0.119295 0.563636 0.398888 -0.288877
N3    N     N_2   0.562165 0.879907 0.601193 -0.287020
N4    N     N_2   0.564767 0.118692 0.398799 -0.290185
N5    N     N_2   0.116612 0.432123 0.600939 -0.256348
N6    N     N_2   0.884054 0.431071 0.399004 -0.256846
N7    N     N_2   0.432817 0.116994 0.600788 -0.256449
N8    N     N_2   0.430167 0.884669 0.399043 -0.257088
N9    N     N_2   0.619794 0.937262 0.898894 -0.287826
N10   N     N_2   0.927969 0.386312 0.100851 -0.256503
N11   N     N_2   0.930705 0.616105 0.898999 -0.256794
N12   N     N_2   0.616007 0.068830 0.100989 -0.255781
N13   N     N_2   0.383487 0.068011 0.899063 -0.256585
N14   N     N_2   0.073798 0.613622 0.101655 -0.256088
N15   N     N_2   0.062893 0.380704 0.899141 -0.290195
N16   N     N_2   0.880128 0.562566 0.601096 -0.287332
O1    O     O_3   0.500000 0.000000 0.250000 -0.565224
O2    O     O_R   0.500000 0.939280 0.663170 -0.618233
O3    O     O_R   0.939280 0.500000 0.336830 -0.595441
O4    O     O_R   0.060720 0.500000 0.663170 -0.596309
O5    O     O_R   0.000000 0.439280 0.836830 -0.618329
O6    O     O_R   1.000000 0.560720 0.163170 -0.600157
O7    O     O_R   0.560720 0.000000 0.836830 -0.618856
O8    O     O_R   0.439280 0.000000 0.163170 -0.618714
O9    O     O_R   0.000000 0.560720 0.836830 -0.596060
O10   O     O_R   1.000000 0.439280 0.163170 -0.600082
O11   O     O_R   0.439280 0.000000 0.836830 -0.595465
O12   O     O_3   0.500000 0.000000 0.750000 -0.564949
O13   O     O_R   0.560720 0.000000 0.163170 -0.595867
O14   O     O_R   0.414510 0.146140 0.272820 -0.593032
O15   O     O_R   0.585490 0.853860 0.727180 -0.587067
O16   O     O_R   0.853860 0.414510 0.272820 -0.583752
O17   O     O_R   0.146140 0.585490 0.727180 -0.583886
O18   O     O_R   0.585490 0.853860 0.272820 -0.584951
O19   O     O_R   0.414510 0.146140 0.727180 -0.583406
O20   O     O_R   0.146140 0.585490 0.272820 -0.586857
O21   O     O_R   0.853860 0.414510 0.727180 -0.594089
O22   O     O_R   0.414510 0.853860 0.727180 -0.594540
O23   O     O_3   0.000000 0.500000 0.250000 -0.567671
O24   O     O_R   0.585490 0.146140 0.272820 -0.586244
O25   O     O_R   0.853860 0.585490 0.727180 -0.588148
O26   O     O_R   0.146140 0.414510 0.272820 -0.594526
O27   O     O_R   0.585490 0.146140 0.727180 -0.583374
O28   O     O_R   0.414510 0.853860 0.272820 -0.583473
O29   O     O_R   0.146140 0.414510 0.727180 -0.582484
O30   O     O_R   0.853860 0.585490 0.272820 -0.584828
O31   O     O_R   0.914510 0.646140 0.772820 -0.583840
O32   O     O_R   0.085490 0.353860 0.227180 -0.584308
O33   O     O_R   0.353860 0.914510 0.772820 -0.583317
O34   O     O_3   0.000000 0.500000 0.750000 -0.564981
O35   O     O_R   0.646140 0.085490 0.227180 -0.582317
O36   O     O_R   0.085490 0.353860 0.772820 -0.585454
O37   O     O_R   0.914510 0.646140 0.227180 -0.585161
O38   O     O_R   0.646140 0.085490 0.772820 -0.594282
O39   O     O_R   0.353860 0.914510 0.227180 -0.586667
O40   O     O_R   0.914510 0.353860 0.227180 -0.582437
O41   O     O_R   0.085490 0.646140 0.772820 -0.584984
O42   O     O_R   0.353860 0.085490 0.227180 -0.593105
O43   O     O_R   0.646140 0.914510 0.772820 -0.586527
O44   O     O_R   0.085490 0.646140 0.227180 -0.582218
O45   O     O_R   0.500000 0.939280 0.336830 -0.595967
O46   O     O_R   0.914510 0.353860 0.772820 -0.592510
O47   O     O_R   0.646140 0.914510 0.227180 -0.583742
O48   O     O_R   0.353860 0.085490 0.772820 -0.583457
O49   O     O_R   0.500000 0.060720 0.663170 -0.595981
O50   O     O_R   0.060720 0.500000 0.336830 -0.618602
O51   O     O_R   0.939280 0.500000 0.663170 -0.618014
O52   O     O_R   0.500000 0.060720 0.336830 -0.618718
Zn1   Zn    Zn3+2 0.413200 0.000000 0.217600 1.030300
Zn2   Zn    Zn3+2 0.086800 0.500000 0.282400 1.030026
Zn3   Zn    Zn3+2 0.500000 0.913200 0.717600 1.034315
Zn4   Zn    Zn3+2 0.500000 0.086800 0.282400 1.029840
Zn5   Zn    Zn3+2 0.086800 0.500000 0.717600 1.057074
Zn6   Zn    Zn3+2 0.913200 0.500000 0.282400 1.052936
Zn7   Zn    Zn3+2 0.500000 0.086800 0.717600 1.052474
Zn8   Zn    Zn3+2 0.500000 0.913200 0.282400 1.057114
Zn9   Zn    Zn3+2 0.586800 0.000000 0.782400 1.034500
Zn10  Zn    Zn3+2 0.000000 0.413200 0.217600 1.048254
Zn11  Zn    Zn3+2 0.000000 0.586800 0.782400 1.057290
Zn12  Zn    Zn3+2 0.586800 0.000000 0.217600 1.057900
Zn13  Zn    Zn3+2 0.413200 0.000000 0.782400 1.052766
Zn14  Zn    Zn3+2 0.000000 0.586800 0.217600 1.052883
Zn15  Zn    Zn3+2 0.000000 0.413200 0.782400 1.030293
Zn16  Zn    Zn3+2 0.913200 0.500000 0.717600 1.029703

loop_
_geom_bond_atom_site_label_1
_geom_bond_atom_site_label_2
_ccdc_geom_bond_type
O50   Zn2   S    
O23   Zn6   S    
C105  C110  A    
C42   H77   S    
C89   O21   A    
C101  C113  A    
C94   O26   A    
O12   Zn7   S    
C44   H7    S    
C117  C133  A    
C18   C47   A    
O8    Zn1   S    
C75   O3    A    
C52   N13   S    
C21   C76   S    
C48   N10   S    
C106  F30   S    
C21   C59   A    
C83   O15   A    
C34   H47   S    
C1    C46   A    
C13   C70   A    
O26   Zn2   S    
C113  F6    S    
C132  F25   S    
O38   Zn9   S    
C104  H67   S    
O30   Zn6   S    
C102  F27   S    
O34   Zn5   S    
C36   N2    S    
C44   C70   A    
C96   O39   A    
O47   Zn12  S    
O3    Zn6   S    
O16   Zn6   S    
C40   N6    S    
C85   O17   A    
C133  F26   S    
C86   O47   A    
O49   Zn7   S    
C31   H32   S    
C27   N9    S    
C107  F31   S    
C77   O9    A    
C20   C54   A    
C28   H19   S    
C99   C116  A    
C39   H65   S    
C22   C56   A    
C37   N3    S    
C79   O7    A    
C80   O8    A    
C26   N1    S    
C4    C84   S    
C55   C126  A    
C3    C112  A    
C103  F28   S    
C4    C122  A    
C3    C83   S    
C80   O13   A    
O12   Zn9   S    
C32   H38   S    
C117  C135  A    
C43   C61   A    
C81   C136  S    
C14   C130  A    
C123  F16   S    
C96   O28   A    
C7    C123  A    
C39   N5    S    
O52   Zn4   S    
C31   N13   S    
C114  F7    S    
C10   C129  A    
C76   O51   A    
C29   H25   S    
O34   Zn11  S    
C27   H15   S    
C128  F20   S    
C11   C91   S    
C41   H72   S    
O10   Zn10  S    
C51   N12   S    
O35   Zn12  S    
C59   N5    S    
H62   N5    S    
C28   H21   S    
C26   H11   S    
C12   C102  A    
C92   O31   A    
C120  F13   S    
C29   N11   S    
H40   N15   S    
C30   N12   S    
C54   N15   S    
C117  F9    S    
C13   C57   A    
C5    C110  A    
C53   C104  A    
C27   H17   S    
C40   H70   S    
C116  F8    S    
C23   C62   A    
C38   N4    S    
C90   O22   A    
C119  C131  A    
C107  C108  A    
O27   Zn7   S    
C57   N3    S    
C2    C69   A    
H66   N6    S    
C118  C134  A    
C115  H78   S    
C5    C85   S    
C65   C93   A    
C66   C67   S    
C108  F32   S    
C43   C69   A    
C124  F17   S    
O23   Zn2   S    
C97   O36   A    
C88   O20   A    
C36   H51   S    
C38   H61   S    
C62   N7    S    
C7    C87   S    
C16   C96   S    
O13   Zn12  S    
C55   N16   S    
C35   H5    S    
C100  C114  A    
C37   H55   S    
C68   C69   S    
C17   C80   S    
C9    C125  A    
C41   H73   S    
C109  F2    S    
C112  F5    S    
O36   Zn15  S    
C82   H45   S    
C33   H42   S    
O25   Zn16  S    
C123  C127  A    
C63   N8    S    
C86   O18   A    
C52   C93   A    
C10   C90   S    
C3    C119  A    
C30   H30   S    
C4    C111  A    
C88   O44   A    
C28   N10   S    
C76   O4    A    
C6    C109  A    
C77   O5    A    
C78   O10   A    
C23   C74   S    
C8    C107  A    
C125  F18   S    
C24   C72   A    
C23   C57   A    
C79   O11   A    
O48   Zn13  S    
O23   Zn10  S    
C12   C92   S    
O40   Zn10  S    
O17   Zn5   S    
C41   N7    S    
C6    C86   S    
C19   C78   S    
O1    Zn8   S    
C88   C134  S    
C39   H64   S    
C2    C56   A    
C22   C61   A    
C84   O16   A    
O12   Zn13  S    
C25   C73   S    
C24   H4    S    
C118  C132  A    
C13   H3    S    
O41   Zn11  S    
O31   Zn11  S    
C99   F1    S    
C38   H59   S    
C106  C109  A    
C71   H34   S    
C1    C64   A    
C89   C135  S    
O1    Zn4   S    
C102  C112  A    
O2    Zn3   S    
C15   C100  A    
C89   O46   A    
C17   C51   A    
C18   C52   A    
H58   N4    S    
O34   Zn15  S    
C9    C98   S    
O32   Zn10  S    
C20   C77   S    
C97   O29   A    
O6    Zn14  S    
C38   H60   S    
C110  F3    S    
C28   H20   S    
C15   C95   S    
C116  C134  A    
C119  F11   S    
C103  C111  A    
C94   O32   A    
O45   Zn8   S    
C30   H28   S    
O5    Zn15  S    
C18   C79   S    
C56   N2    S    
C73   O45   A    
C37   H57   S    
C60   C66   A    
C91   O24   A    
O7    Zn9   S    
C111  F4    S    
C81   O14   A    
C66   C104  A    
O11   Zn13  S    
C73   O52   A    
O24   Zn4   S    
C34   H46   S    
C36   H50   S    
C14   C101  A    
H75   N8    S    
C120  C136  A    
C50   C71   A    
C46   N1    S    
O39   Zn1   S    
O29   Zn5   S    
C91   O35   A    
H9    N1    S    
C54   C115  A    
C2    H2    S    
O1    Zn1   S    
C127  F19   S    
C21   C55   A    
C87   O48   A    
H22   N11   S    
C121  C129  A    
O23   Zn14  S    
O28   Zn8   S    
C33   N15   S    
C34   N16   S    
C130  F22   S    
O18   Zn8   S    
C64   C65   S    
O12   Zn3   S    
C47   N9    S    
C105  F29   S    
C93   H56   S    
C67   C71   A    
C78   O6    A    
C122  C128  A    
C16   C132  A    
C87   O19   A    
O33   Zn13  S    
O46   Zn15  S    
C26   H13   S    
C101  F23   S    
C24   C58   A    
C34   H48   S    
O43   Zn9   S    
C32   H37   S    
C14   C94   S    
C61   N6    S    
C12   C131  A    
C74   O2    A    
C58   N4    S    
H27   N12   S    
O1    Zn12  S    
C6    C124  A    
C40   H68   S    
C74   O49   A    
C36   H52   S    
C129  F21   S    
C47   C49   A    
O21   Zn16  S    
C49   C65   A    
C120  C130  A    
H18   N10   S    
C37   H54   S    
O44   Zn14  S    
C43   H6    S    
C50   N11   S    
C29   H26   S    
C5    C121  A    
C121  F14   S    
C25   C63   A    
C1    H1    S    
C98   O37   A    
C67   C115  A    
C27   H16   S    
C20   C50   A    
C33   H41   S    
H53   N3    S    
C113  C136  A    
C92   O25   A    
C114  C135  A    
C31   H35   S    
C49   H12   S    
C19   C53   A    
O15   Zn3   S    
C84   O40   A    
C45   C72   A    
C98   O30   A    
C22   C75   S    
C81   O42   A    
C48   C60   A    
C26   H10   S    
C35   C59   A    
C42   H79   S    
C126  H80   S    
C118  F10   S    
C17   C46   A    
C45   H8    S    
H36   N14   S    
C19   C48   A    
C44   C62   A    
C9    C106  A    
C45   C63   A    
C53   N14   S    
O37   Zn14  S    
C8    C97   S    
C39   H63   S    
C40   H69   S    
C8    C127  A    
C83   O43   A    
C29   H24   S    
C32   H39   S    
C32   N14   S    
C51   C82   A    
C64   C82   A    
C90   O33   A    
O9    Zn11  S    
C95   O27   A    
C25   C58   A    
C68   C126  A    
C85   O41   A    
H14   N9    S    
H44   N16   S    
H31   N13   S    
C70   C72   S    
C16   C99   A    
C15   C133  A    
O4    Zn5   S    
O34   Zn16  S    
C41   H74   S    
C122  F15   S    
C11   C128  A    
H71   N7    S    
C33   H43   S    
C42   N8    S    
C35   C68   A    
C100  F12   S    
C60   H23   S    
C42   H76   S    
C95   O38   A    
C131  F24   S    
C31   H33   S    
C75   O50   A    
O19   Zn7   S    
O14   Zn4   S    
C30   H29   S    
H49   N2    S    
O42   Zn1   S    
C7    C108  A    
C10   C105  A    
C11   C103  A    
O22   Zn3   S    
O51   Zn16  S    
C124  C125  A    
O20   Zn2   S    
