data_mof_unit_62355.cif
_audit_creation_date              2012-12-10T21:01:04-0500
_audit_creation_method            fapswitch 2.2
_symmetry_space_group_name_H-M    P1
_symmetry_Int_Tables_number       1
_space_group_crystal_system       triclinic
_cell_length_a                    15.73913
_cell_length_b                    15.113059
_cell_length_c                    10.572832
_cell_angle_alpha                 89.456203
_cell_angle_beta                  89.996032
_cell_angle_gamma                 89.999791
_cell_volume                      2514.80821155

loop_
_atom_site_label
_atom_site_type_symbol
_atom_type_description
_atom_site_fract_x
_atom_site_fract_y
_atom_site_fract_z
_atom_type_partial_charge
C1    C     C_R   0.338528 0.500006 0.499470 0.913578
C2    C     C_R   0.088076 0.500949 0.430107 -0.300972
C3    C     C_R   0.499971 0.500502 0.257337 1.034891
C4    C     C_R   0.500030 0.499496 0.742676 1.039244
C5    C     C_1   0.250355 0.500174 0.479492 -0.118075
C6    C     C_1   0.749645 0.500174 0.479362 -0.118036
C7    C     C_R   0.499517 0.953555 0.383854 0.154950
C8    C     C_R   0.500477 0.046804 0.615807 0.141721
C9    C     C_R   0.500474 0.952021 0.616179 0.169986
C10   C     C_R   0.499520 0.048332 0.384214 0.162478
C11   C     C_R   0.499996 0.905020 0.500018 -0.022104
C12   C     C_R   0.661471 0.500006 0.499358 0.913562
C13   C     C_R   0.499999 0.094895 0.500007 -0.039669
C14   C     C_3   0.499973 0.584252 0.037616 0.288856
C15   C     C_3   0.500027 0.415723 0.962437 0.291040
C16   C     C_3   0.569485 0.541304 0.957323 0.244705
C17   C     C_3   0.430515 0.458676 0.042739 0.244207
C18   C     C_3   0.430507 0.541265 0.957294 0.244716
C19   C     C_3   0.569494 0.458715 0.042767 0.244231
C20   C     C_3   0.500020 0.498404 0.876171 -0.257105
C21   C     C_3   0.499981 0.501581 0.123870 -0.255039
C22   C     C_1   0.499998 0.806895 0.500015 0.128268
C23   C     C_1   0.823640 0.500477 0.456979 0.013870
C24   C     C_1   0.500000 0.193120 0.500002 0.134940
C25   C     C_3   0.499017 0.102251 0.262145 -0.841524
C26   C     C_3   0.500987 0.901852 0.741333 -0.846402
C27   C     C_3   0.500986 0.099115 0.737869 -0.805532
C28   C     C_3   0.498998 0.905037 0.258708 -0.825094
C29   C     C_1   0.176363 0.500478 0.457098 0.013852
C30   C     C_R   0.955824 0.582433 0.425451 0.429955
C31   C     C_R   0.044194 0.419703 0.421567 0.430169
C32   C     C_R   0.044188 0.582433 0.425491 0.429959
C33   C     C_R   0.955823 0.419703 0.421527 0.430156
C34   C     C_R   0.911935 0.500949 0.430029 -0.300989
H1    H     H_    0.498644 0.062616 0.174829 0.243945
H2    H     H_    0.441051 0.923051 0.204391 0.245944
H3    H     H_    0.556481 0.923071 0.203302 0.245852
H4    H     H_    0.499047 0.832027 0.268125 0.262375
H5    H     H_    0.326511 0.604235 0.983237 0.367030
H6    H     H_    0.673515 0.395754 0.016951 0.367498
H7    H     H_    0.499948 0.708801 0.002215 0.358793
H8    H     H_    0.500053 0.291170 0.997828 0.358449
H9    H     H_    0.673438 0.604337 0.983309 0.367036
H10   H     H_    0.326538 0.395650 0.016879 0.367500
H11   H     H_    0.145952 0.656169 0.407391 0.344539
H12   H     H_    0.441631 0.144989 0.259359 0.247497
H13   H     H_    0.854054 0.346727 0.399833 0.347560
H14   H     H_    0.854069 0.656166 0.407252 0.344546
H15   H     H_    0.145975 0.346725 0.399972 0.347546
H16   H     H_    0.556389 0.144976 0.258282 0.247290
H17   H     H_    0.558939 0.919145 0.795641 0.247509
H18   H     H_    0.443510 0.919173 0.796738 0.247254
H19   H     H_    0.500923 0.828962 0.731940 0.245664
H20   H     H_    0.501358 0.058331 0.825194 0.239307
H21   H     H_    0.558372 0.141816 0.740648 0.252582
H22   H     H_    0.443621 0.141800 0.741730 0.252736
N1    N     N_1   0.500000 0.270550 0.500000 -0.078304
N2    N     N_1   0.500000 0.729450 0.500000 -0.082608
O1    O     O_R   0.378020 0.573650 0.500040 -0.609785
O2    O     O_3   0.641410 0.416322 0.091761 -0.731385
O3    O     O_3   0.499943 0.671617 0.079945 -0.725287
O4    O     O_3   0.500058 0.328356 0.920100 -0.722286
O5    O     O_3   0.641400 0.583763 0.908443 -0.724989
O6    O     O_3   0.358606 0.416244 0.091702 -0.731392
O7    O     O_3   0.084783 0.663702 0.425889 -0.665488
O8    O     O_3   0.915218 0.338499 0.417960 -0.666249
O9    O     O_3   0.915227 0.663701 0.425815 -0.665480
O10   O     O_3   0.084800 0.338498 0.418033 -0.666248
O11   O     O_R   0.621980 0.426350 0.499960 -0.611537
O12   O     O_R   0.621980 0.573650 0.499960 -0.609790
O13   O     O_R   0.378020 0.426350 0.500040 -0.611556
O14   O     O_R   0.499980 0.573650 0.313960 -0.595021
O15   O     O_R   0.500020 0.426350 0.686040 -0.592271
O16   O     O_R   0.500020 0.573650 0.686040 -0.592335
O17   O     O_R   0.499980 0.426350 0.313960 -0.593058
O18   O     O_3   0.358585 0.583685 0.908384 -0.724958
Zn1   Zn    Zn3+2 0.500000 0.598370 0.500000 1.042123
Zn2   Zn    Zn3+2 0.500000 0.401630 0.500000 1.040657

loop_
_geom_bond_atom_site_label_1
_geom_bond_atom_site_label_2
_ccdc_geom_bond_type
C7    C10   A    
C12   O11   A    
C8    C13   A    
H6    O2    S    
H15   O10   S    
C14   C18   S    
H7    O3    S    
O1    Zn1   S    
C27   H20   S    
H9    O5    S    
H10   O6    S    
C7    C11   A    
C1    O13   A    
C2    C29   S    
C1    C5    S    
C14   C21   S    
C19   C21   S    
C1    O1    A    
C17   O6    S    
C6    C12   S    
C27   H21   S    
C2    C32   A    
C25   H16   S    
N2    Zn1   S    
C8    C9    A    
O16   Zn1   S    
C9    C26   S    
O15   Zn2   S    
C31   C33   A    
C16   O5    S    
C3    O17   A    
H8    O4    S    
H13   O8    S    
C4    O16   A    
C30   O9    S    
O12   Zn1   S    
O11   Zn2   S    
C15   C20   S    
C33   O8    S    
C33   C34   A    
C5    C29   T    
C31   O10   S    
C30   C34   A    
C27   H22   S    
C24   N1    T    
C14   O3    S    
C17   C21   S    
C7    C28   S    
C13   C24   S    
C2    C31   A    
C15   C19   S    
O14   Zn1   S    
C26   H18   S    
C28   H4    S    
C16   C20   S    
C23   C34   S    
C17   C18   S    
H5    O18   S    
C9    C11   A    
C4    O15   A    
C25   H1    S    
C10   C25   S    
H11   O7    S    
C14   C16   S    
C3    C21   S    
C26   H19   S    
C15   C17   S    
C12   O12   A    
C18   O18   S    
N1    Zn2   S    
C10   C13   A    
C22   N2    T    
C19   O2    S    
C11   C22   S    
C3    O14   A    
C26   H17   S    
C30   C32   A    
C28   H3    S    
C16   C19   S    
C6    C23   T    
C15   O4    S    
C18   C20   S    
H14   O9    S    
O17   Zn2   S    
C4    C20   S    
C28   H2    S    
C8    C27   S    
C25   H12   S    
O13   Zn2   S    
C32   O7    S    
