data_mof_unit_57012.cif
_audit_creation_date              2012-12-10T17:30:18-0500
_audit_creation_method            fapswitch 2.2
_symmetry_space_group_name_H-M    P1
_symmetry_Int_Tables_number       1
_space_group_crystal_system       triclinic
_cell_length_a                    12.073475
_cell_length_b                    12.958333
_cell_length_c                    14.985191
_cell_angle_alpha                 92.37559
_cell_angle_beta                  84.068225
_cell_angle_gamma                 92.201522
_cell_volume                      2328.53310547

loop_
_atom_site_label
_atom_site_type_symbol
_atom_type_description
_atom_site_fract_x
_atom_site_fract_y
_atom_site_fract_z
_atom_type_partial_charge
C1    C     C_R   0.520852 0.700342 0.498929 0.891140
C2    C     C_R   0.361062 0.141610 0.497167 -0.237884
C3    C     C_R   0.437014 0.869073 0.501528 -0.291023
C4    C     C_R   0.561608 0.130289 0.477328 -0.306914
C5    C     C_R   0.444553 0.974844 0.490648 0.127585
C6    C     C_R   0.552825 0.023100 0.475993 0.107958
C7    C     C_R   0.965835 0.425693 0.400294 -0.310519
C8    C     C_R   0.034401 0.574687 0.599864 -0.313424
C9    C     C_R   0.848046 0.425443 0.411901 0.248281
C10   C     C_R   0.152171 0.575513 0.587585 0.253239
C11   C     C_R   0.853295 0.529594 0.545525 -0.083553
C12   C     C_R   0.479096 0.299717 0.498492 0.892759
C13   C     C_R   0.146612 0.469983 0.454864 -0.083762
C14   C     C_R   0.971623 0.526010 0.536984 0.056948
C15   C     C_R   0.028363 0.473870 0.463436 0.057306
C16   C     C_R   0.498431 0.499669 0.673354 0.894920
C17   C     C_R   0.501535 0.500488 0.326635 0.892131
C18   C     C_R   0.582411 0.446822 0.176189 -0.277419
C19   C     C_R   0.416938 0.553330 0.823703 -0.275845
C20   C     C_R   0.503662 0.502790 0.230756 -0.061442
C21   C     C_R   0.496134 0.497670 0.769223 -0.062456
C22   C     C_R   0.423447 0.558327 0.194089 -0.256835
C23   C     C_R   0.338883 0.610824 0.971625 -0.218213
C24   C     C_R   0.576565 0.442541 0.805948 -0.257541
C25   C     C_R   0.421320 0.557872 0.101842 0.116375
C26   C     C_R   0.578600 0.443042 0.898151 0.116520
C27   C     C_R   0.500910 0.501265 0.046377 0.058312
C28   C     C_R   0.498914 0.499578 0.953578 0.058083
C29   C     C_R   0.582161 0.445913 0.083766 0.127339
C30   C     C_R   0.417490 0.554698 0.916158 0.127142
C31   C     C_R   0.340795 0.612414 0.064297 -0.218900
C32   C     C_R   0.659156 0.388551 0.935667 -0.218582
C33   C     C_3   0.764207 0.013522 0.434664 -0.455402
C34   C     C_R   0.660889 0.389935 0.028309 -0.218682
C35   C     C_3   0.859670 0.940040 0.406032 -0.343885
C36   C     C_3   0.963369 0.999315 0.365531 -0.901073
C37   C     C_3   0.228331 0.991647 0.500930 -0.445745
C38   C     C_3   0.168727 0.009604 0.595476 -0.336095
C39   C     C_3   0.047467 0.970195 0.601867 -0.896276
C40   C     C_3   0.213011 0.633700 0.658328 -0.405513
C41   C     C_3   0.173960 0.743969 0.680913 -0.415719
C42   C     C_3   0.243577 0.798135 0.749740 -0.896610
C43   C     C_3   0.787071 0.369194 0.340153 -0.390946
C44   C     C_3   0.834526 0.263966 0.307788 -0.430517
C45   C     C_R   0.466868 0.188699 0.491542 -0.076506
C46   C     C_3   0.757083 0.204007 0.248161 -0.906068
C47   C     C_R   0.532523 0.811090 0.492834 -0.093800
C48   C     C_R   0.650086 0.963553 0.462784 0.108589
C49   C     C_R   0.347580 0.034769 0.496358 0.107675
C50   C     C_R   0.637736 0.857393 0.473311 -0.210843
H1    H     H_    0.641193 0.401528 0.205669 0.151296
H2    H     H_    0.723778 0.347604 0.056456 0.142938
H3    H     H_    0.642452 0.169553 0.470074 0.171818
H4    H     H_    0.357476 0.830755 0.519296 0.171517
H5    H     H_    0.287847 0.188313 0.503251 0.165704
H6    H     H_    0.709599 0.809494 0.465992 0.161214
H7    H     H_    0.189589 0.426982 0.399092 0.136633
H8    H     H_    0.810240 0.572305 0.601431 0.137651
H9    H     H_    0.947219 0.032488 0.301144 0.264290
H10   H     H_    0.987694 0.063080 0.412101 0.258383
H11   H     H_    0.033497 0.945983 0.352201 0.252974
H12   H     H_    0.357445 0.597863 0.794125 0.150022
H13   H     H_    0.881114 0.899039 0.465279 0.223544
H14   H     H_    0.834022 0.882318 0.354461 0.228466
H15   H     H_    0.754121 0.059610 0.375837 0.226596
H16   H     H_    0.789130 0.065996 0.490258 0.198608
H17   H     H_    0.997762 0.020896 0.564816 0.268960
H18   H     H_    0.040506 0.889845 0.573821 0.258133
H19   H     H_    0.012183 0.971623 0.673309 0.251728
H20   H     H_    0.213822 0.970098 0.644090 0.234712
H21   H     H_    0.170022 0.093366 0.614694 0.222746
H22   H     H_    0.183727 0.032252 0.452155 0.207302
H23   H     H_    0.009798 0.388249 0.342067 0.140855
H24   H     H_    0.222246 0.908984 0.479784 0.193214
H25   H     H_    0.240812 0.751954 0.810694 0.257181
H26   H     H_    0.331467 0.809240 0.720645 0.262759
H27   H     H_    0.209305 0.874633 0.770548 0.253445
H28   H     H_    0.182820 0.787820 0.618507 0.239446
H29   H     H_    0.085688 0.744100 0.709835 0.231920
H30   H     H_    0.202209 0.588351 0.720056 0.192262
H31   H     H_    0.301188 0.643647 0.635202 0.267964
H32   H     H_    0.673498 0.190427 0.285059 0.263624
H33   H     H_    0.748326 0.247347 0.187171 0.259721
H34   H     H_    0.991007 0.612205 0.658399 0.141283
H35   H     H_    0.792787 0.128217 0.226570 0.256498
H36   H     H_    0.916051 0.274354 0.267155 0.229853
H37   H     H_    0.846626 0.218187 0.366772 0.234206
H38   H     H_    0.700478 0.352874 0.366090 0.264425
H39   H     H_    0.790548 0.420024 0.282105 0.192772
H40   H     H_    0.362751 0.601676 0.237448 0.156460
H41   H     H_    0.637441 0.399323 0.762653 0.157103
H42   H     H_    0.279388 0.655974 0.106545 0.147158
H43   H     H_    0.720664 0.345104 0.893421 0.147554
H44   H     H_    0.276039 0.653191 0.943428 0.142304
N1    N     N_R   0.207800 0.519350 0.516680 -0.118133
N2    N     N_R   0.792200 0.480650 0.483320 -0.118807
O1    O     O_R   0.421700 0.658830 0.504450 -0.645185
O2    O     O_R   0.578300 0.341170 0.495550 -0.645608
O3    O     O_R   0.609310 0.646410 0.493750 -0.623266
O4    O     O_R   0.390690 0.353590 0.506250 -0.622197
O5    O     O_R   0.406180 0.506230 0.637500 -0.647244
O6    O     O_R   0.593820 0.493770 0.362500 -0.647915
O7    O     O_R   0.593800 0.493820 0.626800 -0.624048
O8    O     O_R   0.406200 0.506180 0.373200 -0.625386
Zn1   Zn    Zn3+2 0.374730 0.508290 0.507150 0.928498
Zn2   Zn    Zn3+2 0.625270 0.491710 0.492850 0.927734

loop_
_geom_bond_atom_site_label_1
_geom_bond_atom_site_label_2
_ccdc_geom_bond_type
C11   N2    A    
C25   C31   A    
C37   H24   S    
C38   H20   S    
C26   C32   A    
C16   C21   S    
C4    H3    S    
C27   C29   A    
C39   H18   S    
C35   C36   S    
C43   C44   S    
C36   H9    S    
C1    O3    A    
C33   H15   S    
C7    H23   S    
C26   C28   A    
C42   H25   S    
C43   H39   S    
C6    C48   A    
C13   N1    A    
C43   H38   S    
C19   C21   A    
C17   O8    A    
C24   C26   A    
C2    H5    S    
C38   C39   S    
C11   C14   A    
C13   H7    S    
C19   H12   S    
C17   C20   S    
C10   C40   S    
C41   C42   S    
C3    C47   A    
C34   H2    S    
N1    Zn1   S    
C33   C35   S    
C46   H32   S    
C22   C25   A    
C18   H1    S    
C40   H30   S    
C35   H14   S    
C22   H40   S    
C11   H8    S    
C12   O2    A    
C46   H35   S    
O1    Zn1   S    
C48   C50   A    
C32   H43   S    
C5    C49   A    
C44   H36   S    
O8    Zn1   S    
C44   C46   S    
C33   H16   S    
C47   C50   A    
C4    C45   A    
C2    C45   A    
O5    Zn1   S    
C9    C43   S    
C23   C30   A    
C4    C6    A    
C1    O1    A    
C41   H28   S    
C1    C47   S    
C3    C5    A    
C29   C34   A    
C50   H6    S    
C32   C34   A    
C17   O6    A    
C37   C38   S    
C2    C49   A    
C37   C49   S    
C16   O7    A    
O4    Zn1   S    
C18   C29   A    
C9    N2    A    
C3    H4    S    
C40   C41   S    
C20   C22   A    
C13   C15   A    
C37   H22   S    
C36   H11   S    
C44   H37   S    
C24   H41   S    
C7    C9    A    
O3    Zn2   S    
N2    Zn2   S    
C38   H21   S    
C8    C14   A    
C8    H34   S    
C39   H17   S    
C40   H31   S    
C12   C45   S    
C36   H10   S    
C41   H29   S    
C25   C27   A    
C42   H26   S    
O2    Zn2   S    
C23   H44   S    
C28   C30   A    
C5    C6    A    
C10   N1    A    
C7    C15   A    
C39   H19   S    
O6    Zn2   S    
O7    Zn2   S    
C18   C20   A    
C12   O4    A    
C46   H33   S    
C16   O5    A    
C42   H27   S    
C8    C10   A    
C31   H42   S    
C21   C24   A    
C27   C28   A    
C33   C48   S    
C14   C15   A    
C35   H13   S    
C19   C30   A    
C23   C31   A    
