data_mof_unit_65959.cif
_audit_creation_date              2013-03-05T16:26:34-0500
_audit_creation_method            fapswitch 2.2
_symmetry_space_group_name_H-M    P1
_symmetry_Int_Tables_number       1
_space_group_crystal_system       triclinic
_cell_length_a                    30.405183
_cell_length_b                    30.743695
_cell_length_c                    23.48928
_cell_angle_alpha                 89.970655
_cell_angle_beta                  130.836154
_cell_angle_gamma                 89.905828
_cell_volume                      16612.2398267

loop_
_atom_site_label
_atom_site_type_symbol
_atom_site_description
_atom_site_fract_x
_atom_site_fract_y
_atom_site_fract_z
_atom_type_partial_charge
O1    O     O_R   0.821670 0.769930 0.500010 -0.601506
O2    O     O_R   0.178330 0.769930 0.499990 -0.601468
O3    O     O_R   0.321670 0.269930 0.500010 -0.601503
O4    O     O_R   0.678330 0.269930 0.499990 -0.601462
O5    O     O_R   0.769920 0.821660 0.500020 -0.590428
O6    O     O_R   0.230080 0.821660 0.499980 -0.601405
O7    O     O_R   0.269920 0.321660 0.500020 -0.590438
O8    O     O_R   0.730080 0.321660 0.499980 -0.601401
C1    C     C_R   0.811718 0.809934 0.503180 0.981352
C2    C     C_R   0.188396 0.809903 0.497025 0.970183
C3    C     C_R   0.311718 0.309934 0.503180 0.981349
C4    C     C_R   0.688396 0.309903 0.497025 0.970198
O9    O     O_R   0.720420 0.724130 0.389120 -0.622001
O10   O     O_R   0.279580 0.724130 0.610880 -0.619044
O11   O     O_R   0.220420 0.224130 0.389120 -0.622002
O12   O     O_R   0.779580 0.224130 0.610880 -0.619079
O13   O     O_R   0.668670 0.775850 0.389130 -0.613005
O14   O     O_R   0.331330 0.775850 0.610870 -0.610520
O15   O     O_R   0.168670 0.275850 0.389130 -0.613004
O16   O     O_R   0.831330 0.275850 0.610870 -0.610455
C5    C     C_R   0.676349 0.749970 0.353245 0.906861
C6    C     C_R   0.323427 0.750089 0.646719 0.959699
C7    C     C_R   0.176349 0.249971 0.353245 0.906860
C8    C     C_R   0.823428 0.250087 0.646719 0.959587
Zn1   Zn    Zn3+2 0.784540 0.715450 0.500000 1.086834
Zn2   Zn    Zn3+2 0.215460 0.715450 0.500000 1.103375
Zn3   Zn    Zn3+2 0.284540 0.215450 0.500000 1.086832
Zn4   Zn    Zn3+2 0.715460 0.215450 0.500000 1.103298
Zn5   Zn    Zn3+2 0.715430 0.784520 0.500020 1.152983
Zn6   Zn    Zn3+2 0.284570 0.784520 0.499980 1.121007
Zn7   Zn    Zn3+2 0.215430 0.284520 0.500020 1.152985
Zn8   Zn    Zn3+2 0.784570 0.284520 0.499980 1.121085
O17   O     O_R   0.730060 0.678320 0.499990 -0.629772
O18   O     O_R   0.269940 0.678320 0.500010 -0.623091
O19   O     O_R   0.230060 0.178320 0.499990 -0.629772
O20   O     O_R   0.769940 0.178320 0.500010 -0.623178
O21   O     O_R   0.678300 0.730040 0.500010 -0.565362
O22   O     O_R   0.321700 0.730040 0.499990 -0.591432
O23   O     O_R   0.178300 0.230040 0.500010 -0.565362
O24   O     O_R   0.821700 0.230040 0.499990 -0.591353
O25   O     O_R   0.831300 0.724120 0.610880 -0.590367
O26   O     O_R   0.168700 0.724120 0.389120 -0.594436
O27   O     O_R   0.331300 0.224120 0.610880 -0.590368
O28   O     O_R   0.668700 0.224120 0.389120 -0.594428
O29   O     O_R   0.779550 0.775850 0.610900 -0.580394
O30   O     O_R   0.220450 0.775850 0.389100 -0.582241
O31   O     O_R   0.279550 0.275850 0.610900 -0.580392
O32   O     O_R   0.720450 0.275850 0.389100 -0.582254
C9    C     C_R   0.688686 0.690074 0.498555 0.915292
C10   C     C_R   0.311166 0.690198 0.501963 0.976704
C11   C     C_R   0.188686 0.190074 0.498555 0.915290
C12   C     C_R   0.811171 0.190198 0.501971 0.976661
C13   C     C_R   0.823442 0.749849 0.646591 0.990825
C14   C     C_R   0.176773 0.749762 0.353453 0.988929
C15   C     C_R   0.323442 0.249850 0.646591 0.990823
C16   C     C_R   0.676773 0.249762 0.353454 0.988955
C17   C     C_R   0.453944 0.777982 0.847537 0.328941
C18   C     C_R   0.545837 0.778265 0.152302 0.330370
C19   C     C_R   0.953949 0.277978 0.847537 0.328914
C20   C     C_R   0.045838 0.278265 0.152301 0.330371
C21   C     C_R   0.412870 0.778415 0.768757 -0.181142
C22   C     C_R   0.586932 0.778631 0.231090 -0.205829
C23   C     C_R   0.912874 0.278411 0.768757 -0.181093
C24   C     C_R   0.086932 0.278631 0.231090 -0.205826
H1    H     H_    0.418237 0.800975 0.738283 0.208173
H2    H     H_    0.581669 0.801360 0.261475 0.210784
H3    H     H_    0.918243 0.300969 0.738283 0.208199
H4    H     H_    0.081669 0.301361 0.261474 0.210784
C25   C     C_R   0.365582 0.749640 0.729196 -0.068458
C26   C     C_R   0.634132 0.749591 0.270777 -0.088524
C27   C     C_R   0.865585 0.249637 0.729196 -0.068537
C28   C     C_R   0.134132 0.249591 0.270777 -0.088523
C29   C     C_R   0.359254 0.720126 0.768865 -0.166115
C30   C     C_R   0.640400 0.719917 0.231237 -0.176904
C31   C     C_R   0.859254 0.220125 0.768865 -0.166212
C32   C     C_R   0.140400 0.219917 0.231237 -0.176902
H5    H     H_    0.323182 0.697581 0.739631 0.189210
H6    H     H_    0.676425 0.697186 0.260568 0.187437
H7    H     H_    0.823181 0.197582 0.739631 0.189216
H8    H     H_    0.176425 0.197185 0.260568 0.187435
C33   C     C_R   0.399286 0.719631 0.846966 -0.166569
C34   C     C_R   0.600334 0.719464 0.153145 -0.165104
C35   C     C_R   0.899286 0.219631 0.846966 -0.166564
C36   C     C_R   0.100335 0.219463 0.153145 -0.165108
H9    H     H_    0.393289 0.697019 0.876816 0.178624
H10   H     H_    0.606261 0.696694 0.123403 0.178082
H11   H     H_    0.893288 0.197020 0.876817 0.178625
H12   H     H_    0.106262 0.196693 0.123404 0.178080
C37   C     C_R   0.446277 0.748327 0.886359 0.003773
C38   C     C_R   0.553393 0.748387 0.113618 0.005769
C39   C     C_R   0.946280 0.248325 0.886359 0.003772
C40   C     C_R   0.053394 0.248387 0.113618 0.005771
C41   C     C_1   0.484079 0.748049 0.966413 0.101992
C42   C     C_1   0.515537 0.748075 0.033562 0.100947
C43   C     C_1   0.984081 0.248048 0.966413 0.101988
C44   C     C_1   0.015539 0.248074 0.033562 0.100947
C45   C     C_R   0.850896 0.842631 0.450989 -0.008542
C46   C     C_R   0.149786 0.842644 0.549852 -0.018334
C47   C     C_R   0.350896 0.342631 0.450989 -0.008557
C48   C     C_R   0.649785 0.342644 0.549850 -0.018332
C49   C     C_R   0.845696 0.843226 0.505705 -0.187134
C50   C     C_R   0.154422 0.843127 0.494597 -0.177279
C51   C     C_R   0.345695 0.343226 0.505705 -0.187123
C52   C     C_R   0.654422 0.343127 0.494597 -0.177282
C53   C     C_R   0.864457 0.880298 0.552506 0.311504
C54   C     C_R   0.135039 0.880009 0.447159 0.314630
C55   C     C_R   0.364454 0.380299 0.552503 0.311492
C56   C     C_R   0.635040 0.380010 0.447161 0.314630
C57   C     C_R   0.894404 0.912940 0.548661 -0.154455
C58   C     C_R   0.105073 0.912624 0.451022 -0.236778
C59   C     C_R   0.394401 0.412942 0.548657 -0.154677
C60   C     C_R   0.605074 0.412625 0.451024 -0.236776
H13   H     H_    0.912077 0.940362 0.586811 0.209218
H14   H     H_    0.086696 0.939736 0.412227 0.229314
H15   H     H_    0.412072 0.440365 0.586806 0.209157
H16   H     H_    0.586698 0.439738 0.412230 0.229312
C61   C     C_R   0.904102 0.909137 0.498316 -0.113608
C62   C     C_R   0.096023 0.909064 0.501998 -0.130633
C63   C     C_R   0.404101 0.409138 0.498315 -0.113534
C64   C     C_R   0.596023 0.409064 0.501998 -0.130622
C65   C     C_R   0.877964 0.875900 0.445606 0.118739
C66   C     C_R   0.122656 0.875964 0.555193 0.108804
C67   C     C_R   0.377964 0.375900 0.445606 0.118795
C68   C     C_R   0.622655 0.375963 0.555192 0.108803
C69   C     C_3   0.902947 0.846397 0.422134 -0.384390
C70   C     C_3   0.098072 0.846549 0.579243 -0.365853
C71   C     C_3   0.402948 0.346396 0.422135 -0.384432
C72   C     C_3   0.598070 0.346548 0.579241 -0.365858
C73   C     C_3   0.873155 0.808619 0.428987 -0.244270
C74   C     C_3   0.127952 0.808717 0.572498 -0.240557
C75   C     C_3   0.373156 0.308619 0.428989 -0.244264
C76   C     C_3   0.627950 0.308716 0.572495 -0.240556
H17   H     H_    0.951141 0.845950 0.464583 0.150653
H18   H     H_    0.049873 0.846113 0.537009 0.150881
H19   H     H_    0.451141 0.345950 0.464584 0.150646
H20   H     H_    0.549871 0.346112 0.537007 0.150878
C77   C     C_R   0.034395 0.750799 0.152145 -0.115172
C78   C     C_R   0.966763 0.751510 0.847119 -0.115053
C79   C     C_R   0.534397 0.250806 0.152145 -0.115171
C80   C     C_R   0.466765 0.251512 0.847117 -0.115055
C81   C     C_R   0.074673 0.749107 0.231441 0.257224
C82   C     C_R   0.925981 0.749751 0.767832 0.258794
C83   C     C_R   0.574673 0.249112 0.231440 0.257221
C84   C     C_R   0.425982 0.249753 0.767831 0.258795
C85   C     C_R   0.135163 0.749713 0.270942 -0.221913
C86   C     C_R   0.865614 0.750049 0.729106 -0.218612
C87   C     C_R   0.635164 0.249712 0.270943 -0.221911
C88   C     C_R   0.365616 0.250050 0.729106 -0.218612
C89   C     C_R   0.155254 0.750862 0.230980 -0.091598
C90   C     C_R   0.846186 0.751057 0.769821 -0.096631
C91   C     C_R   0.655257 0.250854 0.230982 -0.091599
C92   C     C_R   0.346188 0.251058 0.769823 -0.096636
C93   C     C_R   0.114854 0.753116 0.152700 -0.152935
C94   C     C_R   0.887034 0.753391 0.848040 -0.149151
C95   C     C_R   0.614858 0.253109 0.152702 -0.152922
C96   C     C_R   0.387037 0.253392 0.848042 -0.149150
H21   H     H_    0.129730 0.753837 0.121443 0.205426
H22   H     H_    0.872623 0.753903 0.879848 0.205981
H23   H     H_    0.629736 0.253826 0.121446 0.205430
H24   H     H_    0.372627 0.253904 0.879850 0.205986
C97   C     C_R   0.055476 0.752939 0.113720 -0.016577
C98   C     C_R   0.946287 0.753395 0.886286 -0.016342
C99   C     C_R   0.555480 0.252940 0.113721 -0.016581
C100  C     C_R   0.446290 0.253397 0.886286 -0.016344
C101  C     C_1   0.017102 0.754445 0.033593 0.088970
C102  C     C_1   0.985080 0.754596 0.966444 0.089940
C103  C     C_1   0.517107 0.254447 0.033594 0.088969
C104  C     C_1   0.485084 0.254598 0.966445 0.089942
C105  C     C_R   0.670406 0.613985 0.504857 0.067966
C106  C     C_R   0.318630 0.631816 0.440555 0.031685
C107  C     C_R   0.170406 0.113985 0.504857 0.067968
C108  C     C_R   0.818605 0.131760 0.440617 0.031737
C109  C     C_R   0.655749 0.657626 0.500935 -0.184004
C110  C     C_R   0.345684 0.658228 0.503404 -0.165891
C111  C     C_R   0.155749 0.157626 0.500936 -0.184006
C112  C     C_R   0.845687 0.158228 0.503407 -0.165986
C113  C     C_R   0.611870 0.668586 0.504194 0.302888
C114  C     C_R   0.407010 0.657938 0.560390 0.291401
C115  C     C_R   0.111871 0.168586 0.504196 0.302881
C116  C     C_R   0.907020 0.157979 0.560318 0.291414
C117  C     C_R   0.582389 0.635295 0.506989 -0.220665
C118  C     C_R   0.438394 0.626359 0.557065 -0.229455
C119  C     C_R   0.082390 0.135294 0.506991 -0.220654
C120  C     C_R   0.938397 0.126394 0.556989 -0.229475
H25   H     H_    0.548028 0.643046 0.507892 0.172863
H26   H     H_    0.485062 0.624006 0.602154 0.203821
H27   H     H_    0.048030 0.143045 0.507895 0.172866
H28   H     H_    0.985075 0.124074 0.602024 0.203759
C121  C     C_R   0.593478 0.592251 0.501670 -0.065356
C122  C     C_R   0.409058 0.596004 0.498374 -0.114867
C123  C     C_R   0.093478 0.092251 0.501670 -0.065363
C124  C     C_R   0.909047 0.095993 0.498372 -0.114671
C125  C     C_R   0.638660 0.581634 0.503502 -0.024281
C126  C     C_R   0.349918 0.601064 0.437984 0.025860
C127  C     C_R   0.138659 0.081634 0.503502 -0.024284
C128  C     C_R   0.849886 0.101002 0.438044 0.025806
C129  C     C_3   0.639103 0.554132 0.451174 0.102523
C130  C     C_3   0.300777 0.569158 0.398176 0.140815
C131  C     C_3   0.139103 0.054132 0.451173 0.102524
C132  C     C_3   0.800785 0.069064 0.398401 0.140666
C133  C     C_3   0.675797 0.589382 0.454663 -0.439385
C134  C     C_3   0.266152 0.603490 0.401240 -0.460921
C135  C     C_3   0.175796 0.089382 0.454661 -0.439387
C136  C     C_3   0.766172 0.103403 0.401470 -0.460742
H29   H     H_    0.662182 0.522567 0.476322 0.128771
H30   H     H_    0.282979 0.561630 0.340197 0.142518
H31   H     H_    0.162181 0.022567 0.476321 0.128768
H32   H     H_    0.782923 0.061483 0.340412 0.142543
H33   H     H_    0.721320 0.578850 0.485145 0.199685
H34   H     H_    0.228877 0.616592 0.344865 0.203868
H35   H     H_    0.221319 0.078851 0.485144 0.199683
H36   H     H_    0.728839 0.116453 0.345083 0.203813
H37   H     H_    0.654795 0.606380 0.400431 0.229689
H38   H     H_    0.255815 0.594891 0.437352 0.249562
H39   H     H_    0.154794 0.106380 0.400430 0.229689
H40   H     H_    0.755920 0.094836 0.437686 0.249534
O33   O     O_R   0.422810 0.545810 0.437360 -0.619171
O34   O     O_R   0.577190 0.545810 0.562640 -0.621579
O35   O     O_R   0.922810 0.045810 0.437360 -0.619259
O36   O     O_R   0.077190 0.045810 0.562640 -0.621583
O37   O     O_R   0.485380 0.545840 0.562560 -0.612884
O38   O     O_R   0.514620 0.545840 0.437440 -0.576343
O39   O     O_R   0.985380 0.045840 0.562560 -0.612785
O40   O     O_R   0.014620 0.045840 0.437440 -0.576320
C137  C     C_R   0.439968 0.560529 0.499606 0.919013
C138  C     C_R   0.561021 0.559005 0.500289 0.874204
C139  C     C_R   0.939965 0.060524 0.499605 0.918930
C140  C     C_R   0.061021 0.059005 0.500289 0.874218
O41   O     O_R   0.922870 0.954190 0.437400 -0.579369
O42   O     O_R   0.077130 0.954190 0.562600 -0.597760
O43   O     O_R   0.422870 0.454190 0.437400 -0.579227
O44   O     O_R   0.577130 0.454190 0.562600 -0.597760
O45   O     O_R   0.985440 0.954220 0.562600 -0.619978
O46   O     O_R   0.014560 0.954220 0.437400 -0.602901
O47   O     O_R   0.485440 0.454220 0.562600 -0.620021
O48   O     O_R   0.514560 0.454220 0.437400 -0.602916
C141  C     C_R   0.939596 0.940052 0.499704 0.900055
C142  C     C_R   0.060402 0.939990 0.500401 0.864035
C143  C     C_R   0.439596 0.440052 0.499704 0.900153
C144  C     C_R   0.560402 0.439989 0.500401 0.864014
Zn9   Zn    Zn3+2 0.458190 0.500000 0.416410 1.113535
Zn10  Zn    Zn3+2 0.541810 0.500000 0.583590 1.070653
Zn11  Zn    Zn3+2 0.958190 0.000000 0.416410 1.113434
Zn12  Zn    Zn3+2 0.041810 0.000000 0.583590 1.070695
N1    N     N_R   0.502253 0.807764 0.886427 0.224318
O49   O     O_R   0.552032 0.797666 0.951388 -0.341072
O50   O     O_R   0.498335 0.843586 0.853786 -0.322999
N2    N     N_R   0.497629 0.808335 0.113270 0.222097
O51   O     O_R   0.447834 0.798468 0.048315 -0.347937
O52   O     O_R   0.501659 0.844231 0.145755 -0.320502
N3    N     N_R   0.002259 0.307758 0.886426 0.224321
O53   O     O_R   0.052037 0.297659 0.951388 -0.341073
O54   O     O_R   0.998345 0.343579 0.853786 -0.322980
N4    N     N_R   0.997630 0.308335 0.113269 0.222099
O55   O     O_R   0.947835 0.298468 0.048314 -0.347933
O56   O     O_R   0.001660 0.344231 0.145754 -0.320493
C145  C     C_2   0.916263 0.777179 0.492493 0.987880
O57   O     O_2   0.957602 0.791063 0.554738 -0.545457
O58   O     O_R   0.908594 0.732272 0.480248 -0.747072
H41   H     H_    0.939935 0.714886 0.526954 0.371924
C146  C     C_2   0.084919 0.777215 0.509439 0.987661
O59   O     O_2   0.043347 0.791038 0.447124 -0.542289
O60   O     O_R   0.092924 0.732320 0.522171 -0.746748
H42   H     H_    0.061594 0.714890 0.475729 0.371752
C147  C     C_2   0.416264 0.277179 0.492495 0.987883
O61   O     O_2   0.457603 0.291064 0.554740 -0.545451
O62   O     O_R   0.408595 0.232272 0.480250 -0.747076
H43   H     H_    0.439937 0.214886 0.526957 0.371924
C148  C     C_2   0.584917 0.277214 0.509436 0.987662
O63   O     O_2   0.543346 0.291039 0.447120 -0.542287
O64   O     O_R   0.592921 0.232320 0.522167 -0.746751
H44   H     H_    0.561591 0.214890 0.475724 0.371749
C149  C     C_2   0.970800 0.751806 0.110339 0.990360
O65   O     O_2   0.937104 0.731029 0.052203 -0.607662
O66   O     O_R   0.949464 0.776622 0.137617 -0.707236
H45   H     H_    0.905662 0.774640 0.104482 0.370874
C150  C     C_2   0.030204 0.752807 0.888111 0.989509
O67   O     O_2   0.064553 0.732205 0.946474 -0.608560
O68   O     O_R   0.050649 0.777709 0.859810 -0.710322
H46   H     H_    0.094434 0.775931 0.892461 0.369446
C151  C     C_2   0.470802 0.251820 0.110336 0.990363
O69   O     O_2   0.437103 0.231044 0.052200 -0.607665
O70   O     O_R   0.449470 0.276640 0.137615 -0.707236
H47   H     H_    0.405667 0.274662 0.104479 0.370875
C152  C     C_2   0.530206 0.252810 0.888108 0.989512
O71   O     O_2   0.564556 0.232208 0.946472 -0.608556
O72   O     O_R   0.550650 0.277712 0.859805 -0.710323
H48   H     H_    0.594434 0.275934 0.892455 0.369447
N5    N     N_R   0.054131 0.745664 0.271661 0.238469
O73   O     O_R   0.065588 0.776016 0.318210 -0.302107
O74   O     O_R   0.022468 0.712650 0.260128 -0.324678
N6    N     N_R   0.945892 0.746454 0.726850 0.238368
O75   O     O_R   0.933515 0.776772 0.679659 -0.309175
O76   O     O_R   0.977866 0.713597 0.738273 -0.324037
N7    N     N_R   0.554130 0.245673 0.271659 0.238467
O77   O     O_R   0.565592 0.276024 0.318211 -0.302119
O78   O     O_R   0.522460 0.212662 0.260121 -0.324679
N8    N     N_R   0.445891 0.246455 0.726848 0.238367
O79   O     O_R   0.433513 0.276774 0.679655 -0.309175
O80   O     O_R   0.477865 0.213598 0.738270 -0.324039
C153  C     C_2   0.217735 0.746993 0.268485 0.965483
O81   O     O_2   0.236697 0.766640 0.243248 -0.568770
O82   O     O_R   0.254439 0.719584 0.330705 -0.827485
H49   H     H_    0.295723 0.719374 0.350538 0.356081
C154  C     C_2   0.784010 0.746629 0.733209 0.979743
O83   O     O_2   0.764988 0.766173 0.758489 -0.555736
O84   O     O_R   0.747758 0.718700 0.671931 -0.815373
H50   H     H_    0.706907 0.717693 0.653400 0.372596
C155  C     C_2   0.717737 0.246974 0.268490 0.965506
O85   O     O_2   0.736706 0.266615 0.243256 -0.568767
O86   O     O_R   0.754433 0.219564 0.330709 -0.827438
H51   H     H_    0.795718 0.219346 0.350544 0.356077
C156  C     C_2   0.284013 0.246630 0.733212 0.979747
O87   O     O_2   0.264991 0.266173 0.758493 -0.555724
O88   O     O_R   0.247760 0.218701 0.671934 -0.815373
H52   H     H_    0.206910 0.217693 0.653405 0.372599
N9    N     N_R   0.592936 0.712407 0.498075 0.221396
O89   O     O_R   0.566890 0.733599 0.435355 -0.327362
O90   O     O_R   0.587840 0.726461 0.545765 -0.346229
N10   N     N_R   0.437382 0.686848 0.623915 0.220871
O91   O     O_R   0.415139 0.697295 0.654130 -0.405207
O92   O     O_R   0.490629 0.698237 0.657841 -0.321810
N11   N     N_R   0.092938 0.212407 0.498079 0.221397
O93   O     O_R   0.066891 0.233600 0.435360 -0.327350
O94   O     O_R   0.087844 0.226461 0.545771 -0.346177
N12   N     N_R   0.937412 0.186935 0.623782 0.220910
O95   O     O_R   0.915230 0.197400 0.654068 -0.405110
O96   O     O_R   0.990630 0.198351 0.657593 -0.321749
N13   N     N_R   0.581674 0.550004 0.376049 0.245516
O97   O     O_R   0.564490 0.512335 0.342999 -0.340166
O98   O     O_R   0.548534 0.583906 0.340208 -0.339512
N14   N     N_R   0.313716 0.530374 0.443194 0.226044
O99   O     O_R   0.303519 0.492027 0.413531 -0.357890
O100  O     O_R   0.335601 0.533603 0.512670 -0.355901
N15   N     N_R   0.081673 0.050004 0.376048 0.245517
O101  O     O_R   0.064488 0.012335 0.342998 -0.340167
O102  O     O_R   0.048533 0.083906 0.340208 -0.339506
N16   N     N_R   0.813811 0.030322 0.443539 0.225991
O103  O     O_R   0.803447 0.991951 0.413878 -0.357955
O104  O     O_R   0.835883 0.033606 0.513091 -0.355929
N17   N     N_R   0.856758 0.884332 0.606599 0.227155
O105  O     O_R   0.861863 0.850622 0.644029 -0.353563
O106  O     O_R   0.851830 0.922663 0.625447 -0.312862
N18   N     N_R   0.142072 0.883853 0.392395 0.229185
O107  O     O_R   0.137135 0.850003 0.355408 -0.346885
O108  O     O_R   0.146237 0.922118 0.372569 -0.329121
N19   N     N_R   0.356755 0.384334 0.606596 0.227161
O109  O     O_R   0.361862 0.350624 0.644028 -0.353549
O110  O     O_R   0.351825 0.422664 0.625441 -0.312947
N20   N     N_R   0.642076 0.383855 0.392399 0.229187
O111  O     O_R   0.637141 0.350007 0.355412 -0.346880
O112  O     O_R   0.646243 0.422121 0.372576 -0.329121
C157  C     C_2   0.881048 0.855932 0.344184 1.003097
O113  O     O_2   0.846589 0.885580 0.306255 -0.564002
O114  O     O_R   0.901432 0.830683 0.316174 -0.700432
H53   H     H_    0.884261 0.839896 0.263745 0.371076
C158  C     C_2   0.120170 0.856175 0.657230 0.995692
O115  O     O_2   0.154435 0.885851 0.694735 -0.574990
O116  O     O_R   0.100200 0.830972 0.685771 -0.703143
H54   H     H_    0.117480 0.840238 0.738182 0.369170
C159  C     C_2   0.381049 0.355932 0.344185 1.003096
O117  O     O_2   0.346590 0.385580 0.306255 -0.563940
O118  O     O_R   0.401434 0.330682 0.316176 -0.700434
H55   H     H_    0.384263 0.339895 0.263746 0.371077
C160  C     C_2   0.620169 0.356173 0.657228 0.995691
O119  O     O_2   0.654433 0.385850 0.694734 -0.574988
O120  O     O_R   0.600198 0.330970 0.685768 -0.703140
H56   H     H_    0.617477 0.340236 0.738179 0.369170
C161  C     C_2   0.824176 0.786073 0.355953 0.990118
O121  O     O_2   0.835373 0.762289 0.325147 -0.528463
O122  O     O_R   0.766418 0.792281 0.323905 -0.796814
H57   H     H_    0.738005 0.775737 0.275057 0.353483
C162  C     C_2   0.177232 0.786255 0.645703 0.986076
O123  O     O_2   0.166369 0.762409 0.676804 -0.527486
O124  O     O_R   0.234898 0.792694 0.677669 -0.807265
H58   H     H_    0.263535 0.776334 0.726812 0.351033
C163  C     C_2   0.324178 0.286072 0.355954 0.990123
O125  O     O_2   0.335375 0.262289 0.325149 -0.528465
O126  O     O_R   0.266419 0.292280 0.323906 -0.796810
H59   H     H_    0.238007 0.275735 0.275058 0.353485
C164  C     C_2   0.677230 0.286254 0.645700 0.986079
O127  O     O_2   0.666366 0.262407 0.676801 -0.527489
O128  O     O_R   0.734896 0.292693 0.677666 -0.807246
H60   H     H_    0.763532 0.276332 0.726809 0.351041

loop_
_geom_bond_atom_site_label_1
_geom_bond_atom_site_label_2
_geom_bond_distance
_ccdc_geom_bond_type
C47   C51   1.393901 A    
C158  O115  1.223733 D    
C130  H30   1.112675 S    
C122  C137  1.426417 S    
C54   N18   1.440191 S    
C82   C86   1.418743 A    
C52   C56   1.418578 A    
O9    Zn1   2.003118 S    
C58   C62   1.397231 A    
C9    C109  1.441387 S    
C153  O81   1.223299 D    
C135  H39   1.112640 S    
O43   Zn9   2.019055 S    
C4    C52   1.425839 S    
O64   H44   1.013846 S    
O37   C137  1.274410 A    
C48   C52   1.394218 A    
C22   C26   1.403925 A    
N19   O109  1.300484 A    
C89   C93   1.392974 A    
N4    O56   1.301598 A    
C86   C90   1.415415 A    
C92   C96   1.392673 A    
C26   C30   1.401056 A    
N12   O95   1.300568 A    
C91   C95   1.392977 A    
C80   C152  1.490234 S    
O4    C4    1.279761 A    
C6    C25   1.465871 S    
C115  C119  1.391150 A    
C81   C85   1.418559 A    
C155  O86   1.397873 S    
C61   C141  1.423539 S    
C132  H32   1.112618 S    
N1    O49   1.301213 A    
O40   C140  1.269769 A    
C29   C33   1.388144 A    
C157  O114  1.397078 S    
N2    O52   1.301601 A    
C79   C151  1.490203 S    
N11   O93   1.301379 A    
C2    C50   1.425837 S    
C107  C127  1.372925 A    
Zn1   O25   2.008746 S    
C60   C64   1.397231 A    
C105  C125  1.372924 A    
Zn3   O19   2.013124 S    
C46   C50   1.394220 A    
Zn4   O28   2.007776 S    
O13   C5    1.286661 A    
Zn5   O29   2.003077 S    
C48   C68   1.370470 A    
O15   C7    1.286663 A    
O11   Zn3   2.003118 S    
O114  H53   1.013777 S    
C136  H36   1.111527 S    
C20   N4    1.442509 S    
C120  H28   1.083769 S    
O9    C5    1.286806 A    
O2    Zn2   2.018240 S    
C19   C39   1.412457 A    
C134  H38   1.112180 S    
C114  C118  1.397756 A    
C73   C161  1.518134 S    
C78   C98   1.409412 A    
C14   C85   1.466364 S    
C69   C157  1.512021 S    
O6    Zn6   2.010584 S    
C23   C27   1.403947 A    
C89   C153  1.486497 S    
C148  O64   1.398907 S    
O19   C11   1.287360 A    
C164  O127  1.223137 D    
C108  C128  1.369206 A    
N8    O79   1.300558 A    
O41   C141  1.270659 A    
O128  H60   1.013473 S    
Zn8   O24   2.018240 S    
C106  C110  1.389492 A    
C7    C28   1.465758 S    
C36   H12   1.084113 S    
O124  H58   1.013472 S    
C48   C76   1.508380 S    
C17   C21   1.400612 A    
C75   C147  1.521448 S    
C63   C67   1.387735 A    
C35   C39   1.397100 A    
C19   C23   1.400612 A    
C20   C24   1.400814 A    
N6    O76   1.301101 A    
C152  O72   1.398553 S    
C160  O119  1.223734 D    
C77   C97   1.409429 A    
C83   N7    1.437223 S    
C90   C154  1.485501 S    
C93   C97   1.391420 A    
C13   C86   1.466527 S    
N20   O111  1.300461 A    
C71   C75   1.545731 S    
C106  C134  1.495143 S    
C74   C146  1.521510 S    
O3    C3    1.279850 A    
N15   O101  1.299732 A    
C21   H1    1.082930 S    
C70   H18   1.109397 S    
O116  H54   1.013776 S    
C94   H22   1.085611 S    
C29   H5    1.083002 S    
C51   C55   1.419926 A    
C118  C122  1.401067 A    
C31   H7    1.083001 S    
O34   C138  1.268217 A    
C97   C101  1.426078 S    
C116  C120  1.397773 A    
O23   C11   1.274163 A    
N7    O78   1.301103 A    
C129  N13   1.466396 S    
Zn6   O22   2.018240 S    
C24   H4    1.082952 S    
C73   C145  1.521449 S    
C93   H21   1.085566 S    
O46   C142  1.274336 A    
C146  O59   1.224258 D    
O39   C139  1.274402 A    
C156  O88   1.397678 S    
C40   C44   1.424950 S    
C59   C63   1.398268 A    
C145  O57   1.224259 D    
C62   C66   1.387548 A    
C45   C65   1.370474 A    
C72   C160  1.512038 S    
C79   C83   1.410082 A    
C154  O84   1.397676 S    
C130  C134  1.524161 S    
C56   N20   1.440190 S    
C58   H14   1.081290 S    
O20   C12   1.277909 A    
O8    C4    1.276047 A    
O29   C13   1.286628 A    
C150  O67   1.223031 D    
C130  N14   1.465534 S    
N13   O98   1.302549 A    
C135  H35   1.111545 S    
C133  H33   1.111544 S    
C127  C131  1.499536 S    
O3    Zn3   2.021321 S    
N17   O106  1.301466 A    
C82   N6    1.437186 S    
C22   H2    1.082953 S    
C95   H23   1.085566 S    
C75   C163  1.518134 S    
C96   H24   1.085610 S    
O42   Zn12  2.016947 S    
N14   O99   1.300385 A    
C95   C99   1.391422 A    
C92   C156  1.485504 S    
N11   O94   1.301070 A    
N10   O92   1.301413 A    
O48   Zn9   2.011918 S    
C87   C91   1.416170 A    
O5    C1    1.275035 A    
C69   C73   1.545732 S    
C67   C71   1.499884 S    
C132  C136  1.524124 S    
N5    O73   1.300613 A    
C147  O62   1.398907 S    
O25   C13   1.283975 A    
O27   C15   1.283975 A    
C91   C155  1.486493 S    
N16   O104  1.302374 A    
C19   N3    1.442490 S    
C60   H16   1.081294 S    
Zn2   O26   2.007776 S    
O16   Zn8   2.007971 S    
C46   C66   1.370466 A    
C110  C114  1.415792 A    
O14   C6    1.287881 A    
C55   C59   1.398156 A    
C94   C98   1.391461 A    
C88   C92   1.415412 A    
O62   H43   1.013841 S    
O40   Zn11  2.018465 S    
C80   C100  1.409413 A    
C136  H40   1.112218 S    
Zn6   O30   2.004284 S    
O10   C6    1.288168 A    
C16   C87   1.466358 S    
C18   N2    1.442507 S    
C115  N11   1.433919 S    
C63   C143  1.423540 S    
C15   C88   1.466529 S    
C126  C130  1.499198 S    
C113  C117  1.391148 A    
C131  N15   1.466395 S    
C149  O66   1.398541 S    
O34   Zn10  2.019765 S    
C37   C41   1.424941 S    
C123  C127  1.384496 A    
C163  O126  1.398942 S    
C39   C43   1.424942 S    
C121  C125  1.384501 A    
C112  C116  1.415786 A    
N18   O107  1.300463 A    
O70   H47   1.013857 S    
C105  C109  1.396966 A    
N12   O96   1.301407 A    
C36   C40   1.397045 A    
C33   H9    1.084103 S    
C108  C112  1.389470 A    
Zn1   O17   2.013124 S    
C161  O122  1.398942 S    
C18   C22   1.400813 A    
C35   H11   1.084104 S    
C123  C140  1.407509 S    
O13   Zn5   2.008943 S    
C129  H29   1.112718 S    
C121  C138  1.407504 S    
O15   Zn7   2.008943 S    
C32   C36   1.388046 A    
C157  O113  1.223752 D    
C57   C61   1.398269 A    
O126  H59   1.013535 S    
C159  O118  1.397077 S    
C41   C42   1.195696 T    
C17   C37   1.412460 A    
O44   Zn10  2.016947 S    
C124  C128  1.390238 A    
O31   C15   1.286630 A    
C71   H19   1.109383 S    
C72   H20   1.109395 S    
C71   C159  1.512023 S    
C70   C74   1.545405 S    
O17   C9    1.287359 A    
O122  H57   1.013537 S    
O36   C140  1.268216 A    
C118  H26   1.083780 S    
C108  C136  1.495116 S    
C53   C57   1.398153 A    
C98   C102  1.426038 S    
C117  C121  1.390759 A    
C124  C139  1.426385 S    
C43   C44   1.195697 T    
O118  H55   1.013777 S    
C120  C124  1.401027 A    
C25   C29   1.400991 A    
C12   C112  1.420857 S    
C128  C132  1.499236 S    
C68   C72   1.499874 S    
C33   C37   1.397100 A    
C62   C142  1.421912 S    
O88   H52   1.013052 S    
C158  O116  1.397092 S    
Zn7   O31   2.003077 S    
C148  O63   1.224259 D    
C131  C135  1.520001 S    
Zn8   O32   2.004284 S    
N8    O80   1.301102 A    
C30   C34   1.388046 A    
C55   N19   1.440021 S    
O38   Zn9   2.018465 S    
N9    O90   1.301070 A    
C38   C42   1.424949 S    
C153  O82   1.397868 S    
O84   H50   1.013053 S    
C32   H8    1.083023 S    
O1    C1    1.279847 A    
N3    O53   1.301213 A    
C78   C82   1.410373 A    
C76   C148  1.521507 S    
C106  C126  1.369190 A    
C34   H10   1.084118 S    
C56   C60   1.396066 A    
O7    C3    1.275031 A    
C152  O71   1.223031 D    
C119  H27   1.084862 S    
O21   C9    1.274163 A    
O28   C16   1.285496 A    
O45   Zn12  2.016209 S    
O72   H48   1.013857 S    
C100  C104  1.426040 S    
O39   Zn12  2.014171 S    
C46   C74   1.508379 S    
C11   C111  1.441386 S    
C18   C38   1.412581 A    
C133  H37   1.112638 S    
C64   C144  1.421913 S    
N1    O50   1.301588 A    
C151  O70   1.398540 S    
N7    O77   1.300613 A    
N2    O51   1.301210 A    
N15   O102  1.302547 A    
C77   C81   1.410080 A    
C113  N9    1.433918 S    
O47   C143  1.274679 A    
C80   C84   1.410374 A    
O6    C2    1.276048 A    
C34   C38   1.397043 A    
O45   C141  1.274677 A    
O68   H46   1.013858 S    
O26   C14   1.285501 A    
C31   C35   1.388144 A    
C156  O87   1.223324 D    
C79   C99   1.409430 A    
C107  C135  1.497450 S    
O33   Zn9   2.017649 S    
C105  C133  1.497450 S    
Zn3   O27   2.008746 S    
Zn4   O20   2.010034 S    
C154  O83   1.223325 D    
C30   H6    1.083021 S    
Zn5   O21   2.021320 S    
C164  O128  1.398848 S    
O35   C139  1.272214 A    
C20   C40   1.412580 A    
C85   C89   1.416173 A    
O12   Zn4   2.004324 S    
O86   H51   1.013879 S    
C101  C102  1.194734 T    
N13   O97   1.299734 A    
O120  H56   1.013779 S    
C84   C88   1.418744 A    
N17   O105  1.300484 A    
C83   C87   1.418558 A    
O36   Zn12  2.019765 S    
N4    O55   1.301211 A    
N20   O112  1.301509 A    
N6    O75   1.300558 A    
N14   O100  1.302350 A    
C160  O120  1.397092 S    
O41   Zn11  2.019055 S    
N3    O54   1.301588 A    
C116  N12   1.439153 S    
O38   C138  1.269770 A    
O43   C143  1.270655 A    
C61   C65   1.387734 A    
C65   C69   1.499884 S    
Zn2   O18   2.010034 S    
C132  N16   1.465490 S    
O16   C8    1.287878 A    
Zn7   O23   2.021320 S    
C129  C133  1.520000 S    
O14   Zn6   2.007971 S    
C114  N10   1.439184 S    
C147  O61   1.224259 D    
C57   H13   1.084001 S    
O46   Zn11  2.011918 S    
O66   H45   1.013858 S    
O11   C7    1.286804 A    
C103  C104  1.194735 T    
O82   H49   1.013880 S    
O1    Zn1   2.021321 S    
O30   C14   1.287598 A    
C76   C164  1.518105 S    
C134  H34   1.111531 S    
C72   C76   1.545408 S    
O4    Zn4   2.018240 S    
O5    Zn5   2.013677 S    
O37   Zn10  2.014171 S    
C49   C53   1.419925 A    
C23   H3    1.082930 S    
O18   C10   1.277898 A    
O7    Zn7   2.013677 S    
O8    Zn8   2.010584 S    
C17   N1    1.442491 S    
C146  O60   1.398907 S    
C117  H25   1.084863 S    
C111  C115  1.425275 A    
C151  O69   1.223029 D    
O24   C12   1.275049 A    
C107  C111  1.396965 A    
O10   Zn2   2.004324 S    
O48   C144  1.274337 A    
C145  O58   1.398906 S    
C66   C70   1.499874 S    
C99   C103  1.426081 S    
O47   Zn10  2.016209 S    
N19   O110  1.301466 A    
C109  C113  1.425274 A    
C69   H17   1.109385 S    
C131  H31   1.112720 S    
C149  O65   1.223028 D    
C28   C32   1.401054 A    
C163  O125  1.223130 D    
C1    C49   1.428919 S    
C74   C162  1.518104 S    
N18   O108  1.301507 A    
C150  O68   1.398555 S    
C78   C150  1.490234 S    
O42   C142  1.270198 A    
O58   H41   1.013842 S    
O2    C2    1.279760 A    
C70   C158  1.512042 S    
C47   C67   1.370475 A    
C161  O121  1.223130 D    
C54   C58   1.396066 A    
C21   C25   1.403946 A    
O32   C16   1.287600 A    
C119  C123  1.390757 A    
C3    C51   1.428923 S    
C81   N5    1.437222 S    
O22   C10   1.275047 A    
C159  O117  1.223751 D    
C47   C75   1.508021 S    
C5    C26   1.465758 S    
C10   C110  1.420836 S    
N10   O91   1.300541 A    
O60   H42   1.013846 S    
C45   C73   1.508020 S    
C162  O123  1.223140 D    
C27   C31   1.400992 A    
C125  C129  1.499535 S    
C77   C149  1.490205 S    
N5    O74   1.301104 A    
C162  O124  1.398847 S    
O35   Zn11  2.017649 S    
C50   C54   1.418575 A    
C155  O85   1.223301 D    
C24   C28   1.403926 A    
N9    O89   1.301379 A    
C122  C126  1.390255 A    
C84   N8    1.437183 S    
C53   N17   1.440021 S    
C96   C100  1.391462 A    
O12   C8    1.288171 A    
N16   O103  1.300469 A    
C90   C94   1.392671 A    
O33   C137  1.272233 A    
O44   C144  1.270196 A    
C59   H15   1.084001 S    
C45   C49   1.393905 A    
C64   C68   1.387546 A    
C8    C27   1.465872 S    
