data_mof_unit_34330.cif
_audit_creation_date              2012-12-10T16:50:04-0500
_audit_creation_method            fapswitch 2.2
_symmetry_space_group_name_H-M    P1
_symmetry_Int_Tables_number       1
_space_group_crystal_system       triclinic
_cell_length_a                    7.847179
_cell_length_b                    8.682301
_cell_length_c                    10.639398
_cell_angle_alpha                 93.669601
_cell_angle_beta                  84.8914
_cell_angle_gamma                 92.941223
_cell_volume                      719.760143138

loop_
_atom_site_label
_atom_site_type_symbol
_atom_type_description
_atom_site_fract_x
_atom_site_fract_y
_atom_site_fract_z
_atom_type_partial_charge
C1    C     C_R   0.543354 0.793574 0.493673 0.910514
C2    C     C_R   0.438109 0.641162 0.947350 0.013919
C3    C     C_R   0.503877 0.512641 0.872725 -0.157989
C4    C     C_R   0.573057 0.388776 0.926224 0.292078
C5    C     C_R   0.570795 0.389018 0.054853 -0.192206
C6    C     C_R   0.501896 0.511293 0.129548 -0.119581
C7    C     C_2   0.559813 0.952245 0.468924 -0.043061
C8    C     C_2   0.429174 0.045608 0.511589 -0.028802
C9    C     C_R   0.501199 0.504971 0.739603 0.915257
C10   C     C_R   0.454996 0.206304 0.501070 0.987473
C11   C     C_R   0.499996 0.501175 0.261014 0.870399
C12   C     C_R   0.375247 0.771007 0.895032 -0.204689
C13   C     C_R   0.311357 0.894797 0.973310 0.359249
C14   C     C_R   0.316030 0.894094 0.103373 -0.163513
C15   C     C_R   0.380569 0.769385 0.155972 -0.212878
C16   C     C_R   0.438804 0.640397 0.078882 0.109478
H1    H     H_    0.376694 0.777740 0.794308 0.144124
H2    H     H_    0.269876 0.990686 0.164199 0.183220
H3    H     H_    0.384900 0.776272 0.257211 0.166468
H4    H     H_    0.620117 0.291870 0.097246 0.183068
N1    N     N_2   0.950330 0.457950 0.466250 0.090409
N2    N     N_2   0.049670 0.542050 0.533750 -0.011000
O1    O     O_R   0.389250 0.738570 0.508280 -0.651158
O2    O     O_R   0.678390 0.711630 0.486650 -0.638622
O3    O     O_R   0.355400 0.513470 0.694050 -0.614800
O4    O     O_R   0.644540 0.486530 0.672420 -0.621358
O5    O     O_R   0.321610 0.288370 0.513350 -0.589821
O6    O     O_R   0.610750 0.261430 0.491720 -0.597491
O7    O     O_R   0.355460 0.513470 0.327580 -0.580763
O8    O     O_R   0.644600 0.486530 0.305950 -0.601055
Zn1   Zn    Zn3+2 0.306930 0.517990 0.514440 1.003501
Zn2   Zn    Zn3+2 0.693070 0.482010 0.485560 1.016481
Br1   Br    Br    0.665191 0.212012 0.829249 -0.459946
C17   C     C_3   0.979370 0.614170 0.651300 -0.483120
H5    H     H_    0.080940 0.689729 0.692305 0.182785
H6    H     H_    0.874612 0.689369 0.637601 0.213386
H7    H     H_    0.940738 0.525119 0.719878 0.224281
Br2   Br    Br    0.215639 0.066594 0.906100 -0.499202
C18   C     C_3   0.715349 0.000065 0.381244 -0.798745
H8    H     H_    0.772551 0.899056 0.326859 0.240628
H9    H     H_    0.678564 0.076466 0.309206 0.244244
H10   H     H_    0.815993 0.057475 0.437197 0.287394
C19   C     C_3   0.255879 0.994326 0.578287 -0.757031
H11   H     H_    0.177983 0.090760 0.620241 0.278981
H12   H     H_    0.176285 0.928550 0.510043 0.245536
H13   H     H_    0.274473 0.924850 0.658604 0.251989
Br3   Br    Br    0.043392 0.327363 0.333006 -0.388028

loop_
_geom_bond_atom_site_label_1
_geom_bond_atom_site_label_2
_ccdc_geom_bond_type
C10   O5    A    
O3    Zn1   S    
O8    Zn2   S    
C19   H11   S    
O2    Zn2   S    
O4    Zn2   S    
C3    C9    S    
C17   H7    S    
C2    C16   A    
C14   H2    S    
C14   C15   A    
C8    C19   S    
O7    Zn1   S    
C2    C12   A    
C2    C3    A    
C9    O3    A    
C7    C8    D    
C18   H9    S    
C5    H4    S    
C13   C14   A    
C12   H1    S    
C15   H3    S    
C19   H12   S    
C13   Br2   S    
N1    N2    D    
N1    Zn2   S    
C9    O4    A    
C1    O1    A    
C18   H10   S    
C17   H6    S    
C6    C11   S    
C5    C6    A    
N2    C17   S    
C19   H13   S    
N2    Zn1   S    
C6    C16   A    
C3    C4    A    
O6    Zn2   S    
C12   C13   A    
C11   O7    A    
C1    O2    A    
C8    C10   S    
C17   H5    S    
C10   O6    A    
C18   H8    S    
C7    C18   S    
C4    Br1   S    
C1    C7    S    
O5    Zn1   S    
C15   C16   A    
C11   O8    A    
C4    C5    A    
N1    Br3   S    
O1    Zn1   S    
