data_mof_unit_20861.cif
_audit_creation_date              2012-12-10T17:09:16-0500
_audit_creation_method            fapswitch 2.2
_symmetry_space_group_name_H-M    P1
_symmetry_Int_Tables_number       1
_space_group_crystal_system       triclinic
_cell_length_a                    17.99681
_cell_length_b                    18.83668
_cell_length_c                    11.801925
_cell_angle_alpha                 90.000427
_cell_angle_beta                  75.551847
_cell_angle_gamma                 89.999859
_cell_volume                      3874.32258897

loop_
_atom_site_label
_atom_site_type_symbol
_atom_type_description
_atom_site_fract_x
_atom_site_fract_y
_atom_site_fract_z
_atom_type_partial_charge
C1    C     C_R   0.400029 0.100267 0.521083 0.787020
C2    C     C_R   0.599772 0.899488 0.478914 0.813544
C3    C     C_R   0.599971 0.100267 0.478918 0.787019
C4    C     C_R   0.400229 0.899488 0.521084 0.813596
C5    C     C_R   0.900029 0.600268 0.521083 0.787021
C6    C     C_R   0.099772 0.399488 0.478915 0.813569
C7    C     C_R   0.099971 0.600267 0.478918 0.787019
C8    C     C_R   0.900229 0.399488 0.521085 0.813572
C9    C     C_R   0.536414 0.000551 0.961150 -0.078470
C10   C     C_R   0.463586 0.000552 0.038850 -0.078478
C11   C     C_R   0.036414 0.500552 0.961150 -0.078473
C12   C     C_R   0.963586 0.500552 0.038850 -0.078476
C13   C     C_R   0.408426 0.007032 0.868393 0.428340
C14   C     C_R   0.591574 0.007029 0.131607 0.428342
C15   C     C_R   0.908426 0.507031 0.868393 0.428340
C16   C     C_R   0.091574 0.507030 0.131607 0.428339
C17   C     C_R   0.400512 0.006716 0.990748 -0.319053
C18   C     C_R   0.599488 0.006712 0.009252 -0.319044
C19   C     C_R   0.900512 0.506715 0.990748 -0.319050
C20   C     C_R   0.099488 0.506714 0.009252 -0.319050
C21   C     C_R   0.544304 0.998031 0.836847 0.381771
C22   C     C_R   0.455695 0.998034 0.163153 0.381785
C23   C     C_R   0.044305 0.498033 0.836847 0.381780
C24   C     C_R   0.955695 0.498033 0.163153 0.381780
C25   C     C_R   0.659009 0.154370 0.467629 -0.101976
C26   C     C_R   0.342347 0.844109 0.532823 -0.082577
C27   C     C_R   0.340992 0.154370 0.532372 -0.101974
C28   C     C_R   0.657654 0.844110 0.467172 -0.082636
C29   C     C_R   0.159010 0.654368 0.467630 -0.101971
C30   C     C_R   0.842347 0.344110 0.532824 -0.082607
C31   C     C_R   0.840992 0.654372 0.532374 -0.101976
C32   C     C_R   0.157654 0.344110 0.467174 -0.082609
C33   C     C_R   0.216782 0.802762 0.635504 -0.191792
C34   C     C_R   0.786043 0.193305 0.367640 -0.226927
C35   C     C_R   0.783223 0.802767 0.364501 -0.191785
C36   C     C_R   0.213954 0.193304 0.632355 -0.226928
C37   C     C_R   0.716783 0.302761 0.635506 -0.191789
C38   C     C_R   0.286048 0.693297 0.367650 -0.226918
C39   C     C_R   0.283221 0.302764 0.364499 -0.191789
C40   C     C_R   0.713957 0.693308 0.632360 -0.226934
C41   C     C_R   0.278919 0.847086 0.629036 -0.285329
C42   C     C_R   0.724217 0.148505 0.375117 -0.236770
C43   C     C_R   0.721088 0.847092 0.370969 -0.285317
C44   C     C_R   0.275781 0.148504 0.624880 -0.236768
C45   C     C_R   0.778918 0.347086 0.629037 -0.285324
C46   C     C_R   0.224222 0.648498 0.375125 -0.236766
C47   C     C_R   0.221085 0.347088 0.370966 -0.285324
C48   C     C_R   0.775783 0.648509 0.624885 -0.236769
C49   C     C_R   0.345862 0.793300 0.443590 0.185099
C50   C     C_R   0.654599 0.206660 0.554735 0.193682
C51   C     C_R   0.654133 0.793295 0.556396 0.185131
C52   C     C_R   0.345403 0.206662 0.445269 0.193683
C53   C     C_R   0.845863 0.293299 0.443593 0.185113
C54   C     C_R   0.154599 0.706660 0.554733 0.193681
C55   C     C_R   0.154136 0.293298 0.556402 0.185116
C56   C     C_R   0.845403 0.706662 0.445270 0.193683
C57   C     C_R   0.283972 0.745818 0.452836 0.056063
C58   C     C_R   0.718143 0.251581 0.548629 0.104955
C59   C     C_R   0.716028 0.745820 0.547164 0.056090
C60   C     C_R   0.281859 0.251582 0.451373 0.104953
C61   C     C_R   0.783971 0.245820 0.452833 0.056077
C62   C     C_R   0.218143 0.751581 0.548629 0.104956
C63   C     C_R   0.216028 0.245820 0.547164 0.056078
C64   C     C_R   0.781860 0.751584 0.451374 0.104951
Cu1   Cu    Cu3+1 0.507800 0.000000 0.383250 0.958986
Cu2   Cu    Cu3+1 0.492200 0.000000 0.616750 0.959005
Cu3   Cu    Cu3+1 0.007800 0.500000 0.383250 0.958995
Cu4   Cu    Cu3+1 0.992200 0.500000 0.616750 0.958995
H1    H     H_    0.344865 0.013742 0.049191 0.177504
H2    H     H_    0.655135 0.013736 0.950809 0.177504
H3    H     H_    0.844865 0.513740 0.049191 0.177506
H4    H     H_    0.155135 0.513739 0.950809 0.177505
N1    N     N_R   0.519530 1.000000 0.207810 -0.228863
N2    N     N_R   0.480470 1.000000 0.792190 -0.228867
N3    N     N_R   0.019530 0.500000 0.207810 -0.228865
N4    N     N_R   0.980470 0.500000 0.792190 -0.228866
O1    O     O_R   0.430030 0.075530 0.417420 -0.561456
O2    O     O_R   0.569970 0.924470 0.582580 -0.516119
O3    O     O_R   0.569970 0.075530 0.582580 -0.561461
O4    O     O_R   0.430030 0.924470 0.417420 -0.516151
O5    O     O_R   0.930030 0.575530 0.417420 -0.561457
O6    O     O_R   0.069970 0.424470 0.582580 -0.516133
O7    O     O_R   0.069970 0.575530 0.582580 -0.561460
O8    O     O_R   0.930030 0.424470 0.417420 -0.516135
O9    O     O_R   0.416860 0.075510 0.614610 -0.589449
O10   O     O_R   0.583140 0.924490 0.385390 -0.617851
O11   O     O_R   0.583140 0.075510 0.385390 -0.589450
O12   O     O_R   0.416860 0.924490 0.614610 -0.617798
O13   O     O_R   0.916860 0.575510 0.614610 -0.589453
O14   O     O_R   0.083140 0.424490 0.385390 -0.617827
O15   O     O_R   0.083140 0.575510 0.385390 -0.589448
O16   O     O_R   0.916860 0.424490 0.614610 -0.617823
N5    N     N_2   0.658216 0.018061 0.175623 -0.405087
H5    H     H_    0.659734 0.991785 0.250383 0.290215
C65   C     C_3   0.733913 0.024687 0.096761 -0.808862
H6    H     H_    0.777475 0.032155 0.147787 0.224507
H7    H     H_    0.736391 0.071895 0.039556 0.245878
H8    H     H_    0.748954 0.975585 0.043814 0.233431
N6    N     N_2   0.341784 0.018064 0.824377 -0.405085
H9    H     H_    0.340264 0.991784 0.749621 0.290206
C66   C     C_3   0.266089 0.024698 0.903238 -0.808861
H10   H     H_    0.222526 0.032166 0.852213 0.224507
H11   H     H_    0.263615 0.071908 0.960439 0.245880
H12   H     H_    0.251044 0.975599 0.956191 0.233427
N7    N     N_2   0.158216 0.518062 0.175623 -0.405082
H13   H     H_    0.159734 0.491784 0.250381 0.290208
C67   C     C_3   0.233912 0.524692 0.096761 -0.808852
H14   H     H_    0.277475 0.532160 0.147787 0.224506
H15   H     H_    0.236388 0.571900 0.039559 0.245878
H16   H     H_    0.248955 0.475591 0.043811 0.233427
N8    N     N_2   0.841784 0.518063 0.824377 -0.405087
H17   H     H_    0.840266 0.491787 0.749617 0.290212
C68   C     C_3   0.766087 0.524692 0.903238 -0.808861
H18   H     H_    0.722525 0.532161 0.852212 0.224507
H19   H     H_    0.763611 0.571900 0.960443 0.245878
H20   H     H_    0.751045 0.475591 0.956186 0.233430
N9    N     N_2   0.381676 0.998740 0.242680 -0.377473
H21   H     H_    0.353658 0.046773 0.247701 0.232122
C69   C     C_3   0.332312 0.937952 0.241566 -0.653196
H22   H     H_    0.281469 0.953651 0.210038 0.186816
H23   H     H_    0.310482 0.917872 0.331885 0.245367
H24   H     H_    0.363021 0.894682 0.184837 0.220997
N10   N     N_2   0.618324 0.998730 0.757320 -0.377473
H25   H     H_    0.646345 0.046762 0.752292 0.232126
C70   C     C_3   0.667683 0.937940 0.758438 -0.653235
H26   H     H_    0.718527 0.953636 0.789969 0.186831
H27   H     H_    0.689514 0.917857 0.668121 0.245360
H28   H     H_    0.636971 0.894672 0.815167 0.220979
N11   N     N_2   0.881676 0.498737 0.242680 -0.377470
H29   H     H_    0.853658 0.546771 0.247705 0.232124
C71   C     C_3   0.832312 0.437950 0.241564 -0.653219
H30   H     H_    0.781468 0.453650 0.210039 0.186823
H31   H     H_    0.810484 0.417866 0.331881 0.245366
H32   H     H_    0.863021 0.394682 0.184829 0.220986
N12   N     N_2   0.118324 0.498735 0.757320 -0.377474
H33   H     H_    0.146343 0.546768 0.752295 0.232125
C72   C     C_3   0.167687 0.437947 0.758435 -0.653219
H34   H     H_    0.218530 0.453645 0.789963 0.186824
H35   H     H_    0.189517 0.417865 0.668117 0.245364
H36   H     H_    0.136977 0.394678 0.815165 0.220986
N13   N     N_2   0.584731 0.217692 0.642448 -0.437247
H37   H     H_    0.534587 0.209926 0.616751 0.250096
C73   C     C_3   0.582224 0.192882 0.759671 -0.671096
H38   H     H_    0.542445 0.147138 0.782172 0.239450
H39   H     H_    0.560302 0.236088 0.823091 0.217907
H40   H     H_    0.639874 0.176757 0.768848 0.214487
N14   N     N_2   0.408073 0.794420 0.340930 -0.413702
H41   H     H_    0.392821 0.787742 0.263101 0.239773
C74   C     C_3   0.475218 0.754194 0.347501 -0.673281
H42   H     H_    0.515241 0.750733 0.259243 0.221151
H43   H     H_    0.459143 0.699553 0.380061 0.215596
H44   H     H_    0.505928 0.781706 0.404893 0.229964
N15   N     N_2   0.415273 0.217696 0.357562 -0.437246
H45   H     H_    0.465416 0.209928 0.383264 0.250093
C75   C     C_3   0.417786 0.192889 0.240335 -0.671103
H46   H     H_    0.457562 0.147142 0.217835 0.239453
H47   H     H_    0.439714 0.236095 0.176920 0.217908
H48   H     H_    0.360137 0.176769 0.231149 0.214488
N16   N     N_2   0.591903 0.794401 0.659031 -0.413686
H49   H     H_    0.607147 0.787754 0.736873 0.239779
C76   C     C_3   0.524809 0.754103 0.652447 -0.673284
H50   H     H_    0.484703 0.750759 0.740653 0.221219
H51   H     H_    0.540935 0.699420 0.620151 0.215582
H52   H     H_    0.494170 0.781479 0.594821 0.229883
N17   N     N_2   0.084729 0.717695 0.642441 -0.437246
H53   H     H_    0.034586 0.709929 0.616739 0.250093
C77   C     C_3   0.082217 0.692888 0.759667 -0.671102
H54   H     H_    0.042439 0.647142 0.782165 0.239453
H55   H     H_    0.060290 0.736094 0.823084 0.217908
H56   H     H_    0.139865 0.676765 0.768851 0.214487
N18   N     N_2   0.908080 0.294415 0.340941 -0.413694
H57   H     H_    0.892829 0.287753 0.263108 0.239776
C78   C     C_3   0.975203 0.254154 0.347509 -0.673266
H58   H     H_    0.015268 0.250760 0.259275 0.221185
H59   H     H_    0.959106 0.199489 0.379924 0.215585
H60   H     H_    0.005876 0.281595 0.405024 0.229917
N19   N     N_2   0.915273 0.717695 0.357561 -0.437247
H61   H     H_    0.965416 0.709927 0.383261 0.250094
C79   C     C_3   0.917783 0.692888 0.240334 -0.671102
H62   H     H_    0.957559 0.647141 0.217833 0.239451
H63   H     H_    0.939711 0.736094 0.176919 0.217908
H64   H     H_    0.860134 0.676768 0.231151 0.214489
N20   N     N_2   0.091915 0.294411 0.659050 -0.413693
H65   H     H_    0.107163 0.287751 0.736885 0.239777
C80   C     C_3   0.024797 0.254146 0.652473 -0.673273
H66   H     H_    0.984726 0.250755 0.740702 0.221190
H67   H     H_    0.040899 0.199479 0.620067 0.215586
H68   H     H_    0.994128 0.281581 0.594946 0.229913
H69   H     H_    0.728442 0.107297 0.310193 0.180799
H70   H     H_    0.275374 0.886709 0.696681 0.163391
H71   H     H_    0.271554 0.107295 0.689801 0.180795
H72   H     H_    0.724636 0.886718 0.303329 0.163393
H73   H     H_    0.228450 0.607286 0.310207 0.180788
H74   H     H_    0.775373 0.386709 0.696681 0.163395
H75   H     H_    0.771558 0.607301 0.689809 0.180799
H76   H     H_    0.224631 0.386713 0.303325 0.163391
H77   H     H_    0.667569 0.309755 0.708771 0.182204
H78   H     H_    0.335855 0.684799 0.295847 0.155442
H79   H     H_    0.332437 0.309759 0.291238 0.182206
H80   H     H_    0.664154 0.684818 0.704173 0.155426
H81   H     H_    0.167568 0.809756 0.708768 0.182206
H82   H     H_    0.835846 0.184812 0.295829 0.155433
H83   H     H_    0.832440 0.809763 0.291242 0.182205
H84   H     H_    0.164150 0.184810 0.704163 0.155432

loop_
_geom_bond_atom_site_label_1
_geom_bond_atom_site_label_2
_ccdc_geom_bond_type
C18   H2    S    
C73   H40   S    
C6    C32   S    
N18   H57   S    
C17   H1    S    
N17   H53   S    
C7    C29   S    
C75   H47   S    
C16   N3    A    
C1    O1    A    
C14   C18   A    
C30   C45   A    
C19   H3    S    
N14   H41   S    
C34   C42   A    
C23   N4    A    
C71   H32   S    
C3    O3    A    
Cu2   O9    S    
C76   H50   S    
C65   H8    S    
Cu1   N1    S    
N12   H33   S    
C77   H55   S    
C78   H58   S    
C10   C22   A    
C15   C19   A    
Cu2   O3    S    
C72   H35   S    
C59   C64   A    
N5    H5    S    
C41   H70   S    
C60   C63   A    
C6    O6    A    
C39   C47   A    
C67   H16   S    
N14   C74   S    
C4    O4    A    
C74   H43   S    
C44   H71   S    
Cu2   O12   S    
C28   C51   A    
C80   H67   S    
C74   H42   S    
C29   C54   A    
C10   C17   A    
C73   H38   S    
Cu2   N2    S    
C11   C12   A    
C49   C57   A    
C49   N14   S    
C73   H39   S    
C51   N16   S    
C11   C23   A    
C40   C48   A    
C25   C50   A    
C7    O7    A    
C52   C60   A    
N10   C70   S    
C5    O5    A    
C53   C61   A    
C24   N11   S    
C65   H6    S    
C33   C62   A    
N19   C79   S    
C55   C63   A    
C70   H28   S    
C67   H14   S    
C56   C64   A    
C35   C64   A    
C8    O16   A    
C37   H77   S    
C31   C56   A    
N15   C75   S    
C36   C63   A    
C35   C43   A    
C9    C10   A    
C14   N5    S    
C37   C58   A    
C50   N13   S    
C68   H20   S    
C1    C27   S    
C58   C61   A    
Cu1   O10   S    
C15   N4    A    
Cu3   O8    S    
N17   C77   S    
C40   C59   A    
C79   H63   S    
C75   H48   S    
C67   H15   S    
C38   H78   S    
C27   C44   A    
C76   H51   S    
Cu1   O11   S    
C77   H56   S    
C56   N19   S    
C78   H59   S    
C1    O9    A    
Cu2   O2    S    
C72   H36   S    
C11   C20   A    
Cu1   O1    S    
C3    O11   A    
Cu3   Cu4   S    
C50   C58   A    
C66   H10   S    
C15   N8    S    
C47   H76   S    
N10   H25   S    
C26   C49   A    
C77   H54   S    
N9    C69   S    
C80   H68   S    
C40   H80   S    
C57   C62   A    
C52   N15   S    
C6    O14   A    
C21   N2    A    
C34   C61   A    
C13   N6    S    
N20   H65   S    
C14   N1    A    
C2    O2    A    
Cu4   O6    S    
N20   C80   S    
N7    C67   S    
C4    C26   S    
N16   H49   S    
C3    C25   S    
C16   C20   A    
C7    O15   A    
Cu3   O15   S    
Cu4   O13   S    
N8    C68   S    
C30   C53   A    
N11   C71   S    
C69   H23   S    
C16   N7    S    
N19   H61   S    
N6    C66   S    
C43   H72   S    
Cu3   O5    S    
C66   H12   S    
C31   C48   A    
C48   H75   S    
C70   H26   S    
C32   C47   A    
C74   H44   S    
C51   C59   A    
C54   N17   S    
C37   C45   A    
C71   H30   S    
C9    C21   A    
C76   H52   S    
C27   C52   A    
C46   H73   S    
C70   H27   S    
C68   H18   S    
N7    H13   S    
C69   H24   S    
C45   H74   S    
N12   C72   S    
C39   H79   S    
C32   C55   A    
N8    H17   S    
C8    O8    A    
Cu4   O7    S    
C71   H31   S    
C25   C42   A    
C78   H60   S    
C69   H22   S    
C65   H7    S    
C24   N3    A    
C4    O12   A    
C13   C17   A    
Cu4   N4    S    
C54   C62   A    
C72   H34   S    
C12   C24   A    
C28   C43   A    
N6    H9    S    
C23   N12   S    
C29   C46   A    
C33   C41   A    
C79   H64   S    
N13   C73   S    
N16   C76   S    
N11   H29   S    
C8    C30   S    
N13   H37   S    
C42   H69   S    
C35   H83   S    
C80   H66   S    
N5    C65   S    
C38   C57   A    
C34   H82   S    
C39   C60   A    
C12   C19   A    
C33   H81   S    
Cu4   O16   S    
C2    O10   A    
Cu3   O14   S    
C38   C46   A    
C36   C44   A    
C53   N18   S    
C79   H62   S    
N18   C78   S    
C9    C18   A    
Cu3   N3    S    
C13   N2    A    
C66   H11   S    
Cu1   Cu2   S    
C75   H46   S    
Cu1   O4    S    
C55   N20   S    
C20   H4    S    
C2    C28   S    
C21   N10   S    
C36   H84   S    
C22   N1    A    
C68   H19   S    
N15   H45   S    
N9    H21   S    
C22   N9    S    
C5    O13   A    
C26   C41   A    
C5    C31   S    
