data_mof_unit_58291.cif
_audit_creation_date              2012-12-10T17:43:57-0500
_audit_creation_method            fapswitch 2.2
_symmetry_space_group_name_H-M    P1
_symmetry_Int_Tables_number       1
_space_group_crystal_system       triclinic
_cell_length_a                    15.861257
_cell_length_b                    15.027136
_cell_length_c                    13.708967
_cell_angle_alpha                 90.269536
_cell_angle_beta                  90.021687
_cell_angle_gamma                 89.374518
_cell_volume                      3267.29119348

loop_
_atom_site_label
_atom_site_type_symbol
_atom_type_description
_atom_site_fract_x
_atom_site_fract_y
_atom_site_fract_z
_atom_type_partial_charge
C1    C     C_R   0.497787 0.329042 0.499753 0.814653
C2    C     C_R   0.502184 0.670957 0.500261 0.814692
C3    C     C_R   0.505407 0.767200 0.501172 -0.081022
C4    C     C_R   0.494515 0.232793 0.498943 -0.080938
C5    C     C_R   0.578715 0.813137 0.530568 0.100510
C6    C     C_R   0.421144 0.186857 0.469740 0.100744
C7    C     C_R   0.576846 0.907645 0.529265 0.092059
C8    C     C_R   0.422929 0.092348 0.471277 0.091730
C9    C     C_R   0.501691 0.953040 0.500610 0.032592
C10   C     C_R   0.498075 0.046950 0.499956 0.032532
C11   C     C_R   0.430000 0.904804 0.472326 0.118863
C12   C     C_R   0.569773 0.095186 0.528217 0.118776
C13   C     C_R   0.647580 0.958400 0.555815 -0.216648
C14   C     C_R   0.352129 0.041592 0.444918 -0.216896
C15   C     C_R   0.643775 0.050770 0.555626 -0.210173
C16   C     C_R   0.355938 0.949220 0.445092 -0.209755
C17   C     C_R   0.557396 0.449144 0.793168 0.031179
C18   C     C_R   0.442831 0.551136 0.206831 0.031449
C19   C     C_R   0.442329 0.551086 0.793057 0.011686
C20   C     C_R   0.557678 0.448906 0.206946 0.009753
C21   C     C_R   0.440361 0.553338 0.896631 -0.022377
C22   C     C_R   0.560292 0.447460 0.103377 -0.022813
C23   C     C_R   0.339768 0.500192 0.499963 0.819767
C24   C     C_R   0.660227 0.499905 0.500027 0.819739
C25   C     C_R   0.499882 0.500640 0.948189 0.043721
C26   C     C_R   0.500668 0.500029 0.051817 0.044169
C27   C     C_R   0.558730 0.448349 0.895959 -0.025309
C28   C     C_R   0.441655 0.552119 0.104043 -0.025063
C29   C     C_R   0.381107 0.605886 0.950253 0.166691
C30   C     C_R   0.619884 0.395335 0.049751 0.167047
C31   C     C_R   0.382673 0.604271 0.053127 -0.242319
C32   C     C_R   0.617902 0.396435 0.946872 -0.241309
C33   C     C_3   0.973760 0.421091 0.531061 0.092830
C34   C     C_3   0.026234 0.580041 0.468807 0.093608
C35   C     C_3   0.028959 0.434914 0.439163 -0.379108
C36   C     C_3   0.971002 0.566250 0.560668 -0.377688
C37   C     C_1   0.250205 0.500472 0.499823 -0.181451
C38   C     C_1   0.749778 0.500024 0.500110 -0.181974
C39   C     C_3   0.028282 0.486464 0.589499 0.504530
C40   C     C_3   0.971695 0.514703 0.410389 0.504738
C41   C     C_3   0.083167 0.500869 0.498941 -0.004185
C42   C     C_3   0.916796 0.500272 0.500885 -0.004848
C43   C     C_1   0.174739 0.500718 0.499480 -0.003756
C44   C     C_1   0.825236 0.500141 0.500373 -0.004353
C45   C     C_R   0.432773 0.812558 0.471945 -0.292534
C46   C     C_R   0.567076 0.187433 0.528377 -0.293803
Cu1   Cu    Cu3+1 0.500010 0.499990 0.597420 0.934166
Cu2   Cu    Cu3+1 0.499990 0.500010 0.402580 0.933603
H1    H     H_    0.053972 0.381891 0.390140 0.148299
H2    H     H_    0.945818 0.619437 0.609352 0.148467
H3    H     H_    0.337691 0.644509 0.093968 0.132110
H4    H     H_    0.663424 0.356893 0.906025 0.131861
H5    H     H_    0.377569 0.775298 0.449977 0.133992
H6    H     H_    0.622292 0.224689 0.550311 0.133938
H7    H     H_    0.706922 0.928261 0.576685 0.154281
H8    H     H_    0.292747 0.071733 0.424162 0.154267
H9    H     H_    0.699271 0.087694 0.576782 0.139426
H10   H     H_    0.300415 0.912295 0.424009 0.139522
H11   H     H_    0.602248 0.409042 0.752211 0.124414
H12   H     H_    0.397994 0.591259 0.247787 0.124378
H13   H     H_    0.398332 0.589992 0.750455 0.147686
H14   H     H_    0.601258 0.409472 0.249543 0.146409
N1    N     N_R   0.499960 0.499930 0.743810 -0.187618
N2    N     N_R   0.500040 0.500070 0.256190 -0.187207
O1    O     O_R   0.500020 0.370250 0.582280 -0.575011
O2    O     O_R   0.499980 0.629750 0.417720 -0.574642
O3    O     O_R   0.500010 0.370270 0.417740 -0.594229
O4    O     O_R   0.499990 0.629730 0.582260 -0.594024
O5    O     O_R   0.379080 0.499980 0.582260 -0.572923
O6    O     O_R   0.620920 0.500020 0.417740 -0.573360
O7    O     O_R   0.379070 0.500000 0.417710 -0.592888
O8    O     O_R   0.620930 0.500000 0.582290 -0.592329
C47   C     C_3   0.315495 0.664396 0.901024 -0.425112
C48   C     C_3   0.354022 0.750950 0.864957 -0.821236
H15   H     H_    0.380124 0.789112 0.927437 0.255512
H16   H     H_    0.405185 0.737718 0.811476 0.249101
H17   H     H_    0.304553 0.792157 0.829093 0.241341
H18   H     H_    0.284813 0.628206 0.840045 0.197707
H19   H     H_    0.263971 0.681926 0.952887 0.200709
C49   C     C_3   0.686749 0.338385 0.098951 -0.432806
C50   C     C_3   0.759988 0.394917 0.135025 -0.806240
H20   H     H_    0.790090 0.428793 0.072406 0.245489
H21   H     H_    0.738263 0.445866 0.188499 0.261283
H22   H     H_    0.807843 0.351605 0.170852 0.243002
H23   H     H_    0.659235 0.299929 0.159865 0.192142
H24   H     H_    0.712542 0.287971 0.047013 0.202387
C51   C     C_3   0.941090 0.331162 0.565268 -0.388658
C52   C     C_3   0.013296 0.267006 0.589146 -0.798481
H25   H     H_    0.053687 0.255815 0.523985 0.244229
H26   H     H_    0.052327 0.293706 0.649551 0.281743
H27   H     H_    0.987222 0.202142 0.612158 0.227083
H28   H     H_    0.900876 0.340911 0.630763 0.187856
H29   H     H_    0.901746 0.301889 0.506527 0.201470
C53   C     C_3   0.058865 0.669904 0.434339 -0.387022
C54   C     C_3   0.986640 0.734315 0.411328 -0.798743
H30   H     H_    0.946879 0.707692 0.351529 0.282151
H31   H     H_    0.946960 0.745772 0.477017 0.243962
H32   H     H_    0.012706 0.799033 0.387829 0.226976
H33   H     H_    0.098786 0.699004 0.492656 0.201234
H34   H     H_    0.098470 0.660073 0.368357 0.188542
O9    O     O_3   0.935543 0.532726 0.318387 -0.573816
C55   C     C_3   0.994660 0.513984 0.244059 0.069409
H35   H     H_    0.998674 0.440896 0.231403 0.144408
H36   H     H_    0.058583 0.539443 0.261948 0.130668
C56   C     C_3   0.965714 0.558309 0.150183 -0.800466
H37   H     H_    0.962570 0.631628 0.160515 0.246287
H38   H     H_    0.010911 0.542480 0.090569 0.195429
H39   H     H_    0.902396 0.533997 0.129231 0.252360
O10   O     O_3   0.064941 0.468818 0.681340 -0.573920
C57   C     C_3   0.006071 0.487367 0.755936 0.067521
H40   H     H_    0.943896 0.456411 0.740907 0.133413
H41   H     H_    0.997491 0.560545 0.764537 0.142871
C58   C     C_3   0.039353 0.450269 0.851679 -0.796365
H42   H     H_    0.100613 0.481295 0.870126 0.248856
H43   H     H_    0.993619 0.464821 0.911123 0.195037
H44   H     H_    0.048333 0.377054 0.845457 0.247443
C59   C     C_3   0.657990 0.761323 0.560249 -0.427448
C60   C     C_3   0.719907 0.752982 0.475351 -0.824867
H45   H     H_    0.777140 0.715847 0.499318 0.243755
H46   H     H_    0.690503 0.715920 0.414092 0.263482
H47   H     H_    0.739120 0.819526 0.449251 0.251990
H48   H     H_    0.688665 0.792350 0.624448 0.192813
H49   H     H_    0.643459 0.693327 0.585383 0.217212
C61   C     C_3   0.341914 0.238687 0.439972 -0.427746
C62   C     C_3   0.280093 0.247382 0.524947 -0.824452
H50   H     H_    0.309602 0.284663 0.585998 0.263401
H51   H     H_    0.222869 0.284472 0.500898 0.243510
H52   H     H_    0.260854 0.180933 0.551387 0.251877
H53   H     H_    0.356533 0.306591 0.414550 0.216947
H54   H     H_    0.311125 0.207489 0.375928 0.192447

loop_
_geom_bond_atom_site_label_1
_geom_bond_atom_site_label_2
_ccdc_geom_bond_type
C7    C13   A    
C14   H8    S    
C51   C52   S    
C20   N2    A    
O9    C55   S    
C15   H9    S    
C47   C48   S    
C23   O5    A    
C36   C42   S    
C54   H30   S    
C6    C61   S    
C13   H7    S    
C50   H20   S    
C54   H32   S    
C24   O6    A    
C39   C41   S    
C4    C46   A    
C56   H38   S    
C33   C39   S    
C48   H16   S    
C34   C40   S    
C33   C42   S    
C19   C21   A    
C2    O4    A    
Cu1   N1    S    
Cu2   N2    S    
C29   C47   S    
C55   C56   S    
C57   H40   S    
C32   H4    S    
C49   H24   S    
C1    O3    A    
C40   O9    S    
C60   H45   S    
Cu1   O5    S    
C19   N1    A    
C48   H17   S    
C35   H1    S    
C62   H52   S    
C24   C38   S    
C47   H18   S    
C52   H27   S    
C9    C10   A    
C58   H44   S    
C30   C49   S    
C40   C42   S    
C45   H5    S    
C51   H28   S    
C20   H14   S    
C41   C43   S    
C53   C54   S    
C34   C41   S    
C42   C44   S    
C50   H21   S    
C60   H46   S    
C36   C39   S    
C56   H39   S    
C48   H15   S    
C17   C27   A    
C23   O7    A    
C18   C28   A    
C12   C46   A    
Cu2   O6    S    
C5    C7    A    
C6    C8    A    
C3    C5    A    
C25   C26   A    
C23   C37   S    
C21   C29   A    
C3    C45   A    
C5    C59   S    
C60   H47   S    
C37   C43   T    
C59   H48   S    
C38   C44   T    
C49   H23   S    
C11   C16   A    
C1    O1    A    
Cu1   Cu2   S    
C12   C15   A    
C53   H34   S    
C46   H6    S    
C47   H19   S    
C61   H54   S    
C16   H10   S    
C55   H36   S    
C9    C11   A    
C57   C58   S    
C10   C12   A    
C17   H11   S    
C4    C6    A    
C52   H26   S    
C13   C15   A    
C62   H50   S    
C14   C16   A    
C11   C45   A    
C20   C22   A    
Cu2   O7    S    
Cu1   O4    S    
C50   H22   S    
C36   H2    S    
C24   O8    A    
C58   H42   S    
C18   H12   S    
C7    C9    A    
C21   C25   A    
C8    C14   A    
C22   C30   A    
C27   C32   A    
C28   C31   A    
C34   C53   S    
C31   H3    S    
C49   C50   S    
C2    O2    A    
C54   H31   S    
C25   C27   A    
C56   H37   S    
C26   C28   A    
C1    C4    S    
C2    C3    S    
C59   H49   S    
C29   C31   A    
C59   C60   S    
C17   N1    A    
C30   C32   A    
C18   N2    A    
C53   H33   S    
C19   H13   S    
C51   H29   S    
C33   C35   S    
C61   H53   S    
C35   C40   S    
C34   C36   S    
Cu2   O3    S    
C33   C51   S    
C55   H35   S    
C35   C41   S    
C57   H41   S    
Cu1   O8    S    
C39   O10   S    
C52   H25   S    
C8    C10   A    
C22   C26   A    
C62   H51   S    
Cu2   O2    S    
O10   C57   S    
Cu1   O1    S    
C61   C62   S    
C58   H43   S    
