data_mof_unit_28610.cif
_audit_creation_date              2012-10-26T19:52:23-0400
_audit_creation_method            fapswitch 2.2
_symmetry_space_group_name_H-M    P1
_symmetry_Int_Tables_number       1
_space_group_crystal_system       triclinic
_cell_length_a                    9.555165
_cell_length_b                    10.830767
_cell_length_c                    13.473779
_cell_angle_alpha                 90.316766
_cell_angle_beta                  73.055054
_cell_angle_gamma                 89.815487
_cell_volume                      1333.8233771

loop_
_atom_site_label
_atom_site_type_symbol
_atom_type_description
_atom_site_fract_x
_atom_site_fract_y
_atom_site_fract_z
_atom_type_partial_charge
C1    C     C_R   0.500386 0.737633 0.498684 0.550962
C2    C     C_R   0.384557 0.453059 0.810417 0.009074
C3    C     C_R   0.377851 0.936902 0.491098 -0.013746
C4    C     C_R   0.423819 0.485333 0.698811 0.550701
C5    C     C_R   0.504037 0.870724 0.489692 0.012314
C6    C     C_R   0.636052 0.935001 0.475298 -0.156837
C7    C     C_R   0.636135 0.063683 0.475825 -0.164505
C8    C     C_R   0.504372 0.129180 0.490428 0.046037
C9    C     C_R   0.377895 0.064058 0.492053 0.059296
C10   C     C_3   0.227216 0.070862 0.566356 0.102508
C11   C     C_3   0.227092 0.930465 0.564843 -0.229767
C12   C     C_R   0.446617 0.442237 0.974751 0.033088
C13   C     C_R   0.939836 0.397390 0.469153 0.190193
C14   C     C_R   0.908026 0.595414 0.541928 -0.014182
C15   C     C_R   0.056755 0.595353 0.541984 -0.012341
C16   C     C_R   0.500700 0.262380 0.498814 0.571747
C17   C     C_R   0.086564 0.397076 0.470075 0.122412
C18   C     C_3   0.137362 0.331714 0.368342 -0.230317
C19   C     C_3   0.979175 0.332952 0.366144 0.088112
C20   C     C_R   0.577817 0.501652 0.300232 0.545265
C21   C     C_R   0.807403 0.503456 0.021081 -0.142659
C22   C     C_R   0.621890 0.498685 0.186667 -0.000080
C23   C     C_R   0.492228 0.441201 0.864728 0.030285
C24   C     C_R   0.236824 0.435411 0.864926 -0.122700
C25   C     C_R   0.195437 0.413368 0.971060 -0.140171
C26   C     C_R   0.297134 0.421722 0.026319 -0.115918
C27   C     C_R   0.553057 0.462297 0.028248 0.031007
C28   C     C_R   0.702794 0.472099 0.971309 0.053254
C29   C     C_R   0.747074 0.447530 0.865556 -0.147425
C30   C     C_R   0.643665 0.426522 0.813955 -0.117993
C31   C     C_R   0.515230 0.477542 0.136134 -0.133537
C32   C     C_R   0.767694 0.515508 0.128427 -0.136193
Cu1   Cu    Cu3+1 0.359330 0.500020 0.500010 0.954363
Cu2   Cu    Cu3+1 0.640670 0.499980 0.499990 0.976083
H1    H     H_    0.850583 0.538518 0.165491 0.174794
H2    H     H_    0.862251 0.443349 0.822585 0.103028
H3    H     H_    0.929018 0.240053 0.368789 0.089286
H4    H     H_    0.919539 0.519424 0.976356 0.106010
H5    H     H_    0.403019 0.474582 0.182434 0.118368
H6    H     H_    0.153228 0.436627 0.825242 0.128105
H7    H     H_    0.255934 0.407650 0.108776 0.105374
H8    H     H_    0.083169 0.392137 0.011940 0.112808
H9    H     H_    0.686441 0.394296 0.735119 0.155117
H10   H     H_    0.737828 0.886538 0.468394 0.131223
H11   H     H_    0.124386 0.120613 0.706056 0.318410
H12   H     H_    0.737718 0.111117 0.469704 0.115753
H13   H     H_    0.986244 0.357616 0.223595 0.304741
H14   H     H_    0.145642 0.114751 0.533054 0.097876
H15   H     H_    0.224941 0.887442 0.640071 0.159303
H16   H     H_    0.147418 0.891930 0.527252 0.085764
H17   H     H_    0.839070 0.673646 0.574513 0.114860
H18   H     H_    0.098281 0.673161 0.574967 0.111174
H19   H     H_    0.211205 0.388975 0.307404 0.163233
H20   H     H_    0.179124 0.237418 0.375622 0.073302
N1    N     N_R   0.852320 0.499070 0.499340 -0.207154
N2    N     N_R   0.148230 0.499110 0.499340 -0.229827
O1    O     O_R   0.381190 0.680360 0.500000 -0.506887
O2    O     O_3   0.959628 0.409003 0.287606 -0.683631
O3    O     O_R   0.618780 0.680320 0.499990 -0.513770
O4    O     O_R   0.323230 0.500000 0.650990 -0.498615
O5    O     O_R   0.560820 0.499960 0.650980 -0.523299
O6    O     O_R   0.381220 0.319680 0.500010 -0.485152
O7    O     O_R   0.618810 0.319640 0.500000 -0.522899
O8    O     O_R   0.439180 0.500040 0.349020 -0.518859
O9    O     O_R   0.676770 0.500000 0.349010 -0.440735
O10   O     O_3   0.228074 0.119271 0.662893 -0.686033

loop_
_geom_bond_atom_site_label_1
_geom_bond_atom_site_label_2
_ccdc_geom_bond_type
C25   H8    S    
C20   O8    A    
C2    C4    S    
C7    H12   S    
C6    C7    A    
C11   H15   S    
C16   O7    A    
C1    O1    A    
C9    C10   S    
C14   H17   S    
C29   H2    S    
C13   C17   A    
C15   N2    A    
C4    O4    A    
Cu1   N2    S    
C10   O10   S    
C14   N1    A    
C8    C9    A    
Cu2   N1    S    
C8    C16   S    
C11   H16   S    
C6    H10   S    
C15   H18   S    
C24   C25   A    
H13   O2    S    
C10   H14   S    
C12   C23   A    
C29   C30   A    
C22   C32   A    
Cu1   O8    S    
C3    C9    A    
Cu2   O9    S    
C28   C29   A    
C24   H6    S    
C21   C28   A    
C20   C22   S    
C17   C18   S    
Cu1   O4    S    
C17   N2    A    
C2    C23   A    
C1    O3    A    
C19   O2    S    
C2    C24   A    
C5    C6    A    
C21   C32   A    
C1    C5    S    
C30   H9    S    
C3    C11   S    
C10   C11   S    
C13   C19   S    
C12   C27   A    
C27   C31   A    
C32   H1    S    
C20   O9    A    
C7    C8    A    
Cu1   Cu2   S    
C23   C30   A    
C18   C19   S    
C22   C31   A    
C12   C26   A    
C27   C28   A    
C18   H20   S    
C14   C15   A    
Cu2   O7    S    
Cu1   O1    S    
C19   H3    S    
C18   H19   S    
C3    C5    A    
C25   C26   A    
Cu2   O3    S    
H11   O10   S    
C4    O5    A    
C16   O6    A    
Cu2   O5    S    
C21   H4    S    
C26   H7    S    
C31   H5    S    
Cu1   O6    S    
C13   N1    A    
