data_mof_unit_19718.cif
_audit_creation_date              2012-12-11T15:39:00-0500
_audit_creation_method            fapswitch 2.2
_symmetry_space_group_name_H-M    P1
_symmetry_Int_Tables_number       1
_space_group_crystal_system       triclinic
_cell_length_a                    14.31718
_cell_length_b                    14.779859
_cell_length_c                    33.235517
_cell_angle_alpha                 97.631494
_cell_angle_beta                  90.350508
_cell_angle_gamma                 118.890355
_cell_volume                      6082.98045379

loop_
_atom_site_label
_atom_site_type_symbol
_atom_type_description
_atom_site_fract_x
_atom_site_fract_y
_atom_site_fract_z
_atom_type_partial_charge
C1    C     C_R   0.617087 0.910383 0.437103 0.543341
C2    C     C_R   0.747472 0.421877 0.187181 0.035277
C3    C     C_R   0.738805 0.886149 0.649394 0.030979
C4    C     C_R   0.660850 0.784416 0.655852 0.026383
C5    C     C_R   0.636032 0.860764 0.585597 -0.000259
C6    C     C_R   0.053250 0.781921 0.063490 0.531072
C7    C     C_R   0.744190 0.486925 0.066255 0.541369
C8    C     C_R   0.742667 0.789290 0.066431 0.542350
C9    C     C_R   0.021120 0.731701 0.947234 0.532047
C10   C     C_R   0.712171 0.437320 0.949321 0.533716
C11   C     C_R   0.741540 0.717328 0.945516 0.563476
C12   C     C_R   0.837287 0.442954 0.164568 0.026177
C13   C     C_R   0.831155 0.454983 0.123667 -0.111682
C14   C     C_R   0.750039 0.326068 0.242639 -0.130981
C15   C     C_R   0.741997 0.312468 0.283325 -0.120933
C16   C     C_R   0.729331 0.383632 0.312087 0.026765
C17   C     C_R   0.728552 0.470563 0.299984 -0.119976
C18   C     C_R   0.738542 0.485125 0.259319 -0.119077
C19   C     C_R   0.748265 0.412323 0.230497 0.025352
C20   C     C_R   0.611773 0.350303 0.369244 -0.119219
C21   C     C_R   0.594226 0.205569 0.456581 0.544328
C22   C     C_R   0.577620 0.305561 0.404468 -0.131070
C23   C     C_R   0.737581 0.289184 0.410415 -0.126157
C24   C     C_R   0.771004 0.332888 0.375105 -0.127348
C25   C     C_R   0.706438 0.360100 0.353551 0.029540
C26   C     C_R   0.638322 0.270880 0.424423 0.020799
C27   C     C_R   0.242252 0.877514 0.393990 -0.000115
C28   C     C_R   0.258017 0.965830 0.377334 -0.136904
C29   C     C_R   0.229558 0.956972 0.336406 -0.130243
C30   C     C_R   0.182686 0.859649 0.311518 0.036733
C31   C     C_R   0.156439 0.767776 0.328253 0.031157
C32   C     C_R   0.295060 0.892620 0.434550 0.540782
C33   C     C_R   0.188883 0.778412 0.369689 -0.107386
C34   C     C_R   0.206988 0.822102 0.163060 -0.099743
C35   C     C_R   0.187442 0.808832 0.120545 0.011559
C36   C     C_R   0.060039 0.873052 0.131782 -0.140582
C37   C     C_R   0.081699 0.887147 0.173699 -0.125715
C38   C     C_R   0.151695 0.857680 0.189363 0.017249
C39   C     C_1   0.161856 0.858243 0.232375 -0.043723
C40   C     C_1   0.169632 0.857790 0.268394 -0.043178
C41   C     C_R   0.107497 0.828402 0.104816 0.026761
C42   C     C_R   0.637388 0.881030 0.395409 0.019883
C43   C     C_R   0.613897 0.905017 0.551700 0.541729
C44   C     C_R   0.551411 0.807832 0.367548 -0.130988
C45   C     C_R   0.564083 0.801130 0.325904 -0.117511
C46   C     C_R   0.662674 0.866821 0.311942 0.037142
C47   C     C_R   0.750700 0.933970 0.339494 -0.117001
C48   C     C_R   0.738304 0.940910 0.381122 -0.126582
C49   C     C_R   0.723452 0.937707 0.167706 0.047364
C50   C     C_R   0.739815 0.919850 0.125519 0.019987
C51   C     C_R   0.673649 0.735394 0.130946 -0.153206
C52   C     C_R   0.659322 0.753386 0.171449 -0.147078
C53   C     C_R   0.686304 0.853278 0.190184 0.029111
C54   C     C_R   0.589301 0.198789 0.571036 0.540108
C55   C     C_1   0.679278 0.865014 0.233317 -0.039468
C56   C     C_1   0.672384 0.867540 0.269299 -0.039665
C57   C     C_R   0.716561 0.817107 0.107660 0.011858
C58   C     C_R   0.620242 0.246339 0.614314 0.002607
C59   C     C_R   0.555938 0.280028 0.636134 -0.122005
C60   C     C_R   0.567321 0.300781 0.678848 0.034142
C61   C     C_R   0.645238 0.287948 0.699818 0.051901
C62   C     C_R   0.714261 0.261633 0.678041 -0.133026
C63   C     C_R   0.702172 0.241208 0.635611 -0.138609
C64   C     C_R   0.759041 0.345642 0.844553 -0.132258
C65   C     C_R   0.289311 0.887226 0.548954 0.537528
C66   C     C_R   0.773216 0.376650 0.886572 -0.137260
C67   C     C_R   0.586692 0.331707 0.887683 -0.112214
C68   C     C_R   0.571129 0.298807 0.845364 0.035731
C69   C     C_R   0.659900 0.310928 0.823589 0.048086
C70   C     C_1   0.654733 0.300267 0.779875 -0.037795
C71   C     C_1   0.651129 0.294768 0.743416 -0.037052
C72   C     C_R   0.688610 0.375110 0.908255 0.003500
C73   C     C_R   0.063449 0.750079 0.907332 0.022782
C74   C     C_R   0.091517 0.844993 0.893577 -0.143026
C75   C     C_R   0.106373 0.853272 0.852590 -0.127930
C76   C     C_R   0.739643 0.450585 0.105696 0.000994
C77   C     C_R   0.093282 0.766708 0.824914 0.032462
C78   C     C_R   0.072837 0.674336 0.839277 -0.121834
C79   C     C_R   0.058658 0.666272 0.880222 -0.123084
C80   C     C_R   0.145796 0.725027 0.756544 -0.116045
C81   C     C_R   0.148999 0.730168 0.715082 -0.111380
C82   C     C_R   0.101587 0.780785 0.697326 0.030323
C83   C     C_R   0.047745 0.823032 0.721415 -0.124221
C84   C     C_R   0.045111 0.818434 0.762945 -0.122288
C85   C     C_R   0.095308 0.770592 0.780927 0.031976
C86   C     C_R   0.160463 0.904543 0.647457 -0.089722
C87   C     C_R   0.650309 0.426356 0.128147 -0.145548
C88   C     C_R   0.207974 0.935306 0.611179 0.004602
C89   C     C_R   0.169125 0.754842 0.589529 -0.137977
C90   C     C_R   0.121851 0.726604 0.625374 -0.132262
C91   C     C_R   0.122827 0.802489 0.655456 0.011068
C92   C     C_R   0.218769 0.859684 0.582945 0.015977
C93   C     C_R   0.719492 0.704737 0.901151 0.019752
C94   C     C_R   0.618244 0.635915 0.880784 -0.123788
C95   C     C_R   0.601875 0.631329 0.838732 -0.126217
C96   C     C_R   0.687194 0.692965 0.816519 0.030779
C97   C     C_R   0.788757 0.758148 0.836869 -0.112222
C98   C     C_R   0.654220 0.411825 0.168454 -0.141102
C99   C     C_R   0.804500 0.764184 0.878598 -0.121753
C100  C     C_R   0.585374 0.711514 0.759891 -0.120321
C101  C     C_R   0.580455 0.735524 0.720990 -0.121229
C102  C     C_R   0.660499 0.746453 0.694793 0.016994
C103  C     C_R   0.741626 0.726141 0.706838 -0.129689
C104  C     C_R   0.746899 0.702592 0.745826 -0.130546
C105  C     C_R   0.670584 0.698179 0.773121 0.021376
C106  C     C_R   0.574776 0.721659 0.626701 -0.138178
C107  C     C_R   0.562477 0.759195 0.591969 -0.135206
C108  C     C_R   0.725262 0.922516 0.613749 -0.104359
Cr1   Cr    Cr6+3 0.424820 0.846020 0.489780 1.007527
Cr2   Cr    Cr6+3 0.657880 0.078580 0.505700 1.006962
Cr3   Cr    Cr6+3 0.417280 0.075360 0.504550 0.996259
Cr4   Cr    Cr6+3 0.903360 0.812540 0.006510 0.996486
Cr5   Cr    Cr6+3 0.914630 0.587050 0.006280 0.996314
Cr6   Cr    Cr6+3 0.673560 0.582680 0.008540 1.004528
H1    H     H_    0.578816 0.422696 0.115119 0.128953
H2    H     H_    0.501147 0.292887 0.414700 0.122724
H3    H     H_    0.786837 0.264386 0.425382 0.126477
H4    H     H_    0.262526 0.801056 0.175699 0.109928
H5    H     H_    0.176379 0.710946 0.383013 0.126455
H6    H     H_    0.299002 0.043248 0.395228 0.135049
H7    H     H_    0.039270 0.915666 0.193902 0.116319
H8    H     H_    0.998778 0.888766 0.120695 0.136724
H9    H     H_    0.900630 0.473503 0.106523 0.129820
H10   H     H_    0.248360 0.027193 0.323713 0.112466
H11   H     H_    0.827615 0.983986 0.328765 0.105724
H12   H     H_    0.806010 0.997731 0.401906 0.125303
H13   H     H_    0.472674 0.761119 0.377613 0.129463
H14   H     H_    0.630083 0.688806 0.188709 0.114740
H15   H     H_    0.655609 0.656656 0.118380 0.146198
H16   H     H_    0.495936 0.748042 0.304567 0.107717
H17   H     H_    0.852774 0.409556 0.901469 0.128845
H18   H     H_    0.844697 0.340770 0.363476 0.101419
H19   H     H_    0.827378 0.354596 0.828083 0.106498
H20   H     H_    0.774615 0.252282 0.693959 0.105863
H21   H     H_    0.752690 0.215026 0.619702 0.127941
H22   H     H_    0.493244 0.285382 0.619978 0.120327
H23   H     H_    0.520378 0.328911 0.904082 0.125377
H24   H     H_    0.096299 0.910839 0.914032 0.115225
H25   H     H_    0.036411 0.591855 0.889963 0.122588
H26   H     H_    0.090517 0.646628 0.630692 0.107677
H27   H     H_    0.740693 0.243805 0.292040 0.110466
H28   H     H_    0.193310 0.699212 0.697334 0.101922
H29   H     H_    0.185981 0.688605 0.769764 0.097740
H30   H     H_    0.124707 0.926187 0.842301 0.101635
H31   H     H_    0.010344 0.862081 0.708319 0.090325
H32   H     H_    0.004284 0.852792 0.780987 0.091945
H33   H     H_    0.159687 0.961418 0.671260 0.112947
H34   H     H_    0.061793 0.606296 0.818523 0.099639
H35   H     H_    0.172309 0.694907 0.567911 0.131196
H36   H     H_    0.551565 0.588199 0.897380 0.122514
H37   H     H_    0.755188 0.268350 0.220419 0.103466
H38   H     H_    0.883388 0.817251 0.893505 0.131754
H39   H     H_    0.516823 0.750270 0.711945 0.109815
H40   H     H_    0.526030 0.709276 0.780382 0.105215
H41   H     H_    0.522613 0.580836 0.823634 0.095898
H42   H     H_    0.802273 0.731349 0.686514 0.111935
H43   H     H_    0.811916 0.690157 0.755080 0.119326
H44   H     H_    0.514768 0.644266 0.631598 0.108624
H45   H     H_    0.493073 0.709628 0.570732 0.128057
H46   H     H_    0.855290 0.808217 0.820819 0.101551
H47   H     H_    0.584974 0.395255 0.185542 0.112700
H48   H     H_    0.781311 0.000402 0.608298 0.131225
H49   H     H_    0.718268 0.525726 0.321821 0.108675
H50   H     H_    0.736119 0.551593 0.250070 0.108976
H51   H     H_    0.560711 0.370488 0.352743 0.105935
O1    O     O_R   0.318160 0.824460 0.443680 -0.520770
O2    O     O_R   0.645130 0.163230 0.552140 -0.499558
O3    O     O_R   0.498360 0.178430 0.555780 -0.530721
O4    O     O_R   0.328690 0.978040 0.538950 -0.513907
O5    O     O_3   0.499990 0.999990 0.500010 -0.229665
O6    O     O_R   0.828710 0.851830 0.052170 -0.521106
O7    O     O_R   0.005980 0.823990 0.047210 -0.500374
O8    O     O_R   0.031900 0.688850 0.050170 -0.519727
O9    O     O_R   0.830940 0.518420 0.048680 -0.499372
O10   O     O_R   0.668160 0.499860 0.053480 -0.521528
O11   O     O_R   0.689170 0.693840 0.050110 -0.498189
O12   O     O_R   0.525040 0.857250 0.449830 -0.502463
O13   O     O_R   0.803860 0.812940 0.962540 -0.514657
O14   O     O_R   0.982950 0.787950 0.964120 -0.522601
O15   O     O_R   0.007050 0.649970 0.960540 -0.521602
O16   O     O_R   0.807910 0.482370 0.965590 -0.503120
O17   O     O_R   0.643310 0.460980 0.963840 -0.525000
O18   O     O_R   0.666140 0.657800 0.967020 -0.499991
O19   O     O_3   0.830520 0.660760 0.007110 -0.253488
O20   O     O_R   0.684760 0.998800 0.456360 -0.519021
O21   O     O_R   0.647540 0.166310 0.470260 -0.501477
O22   O     O_R   0.500960 0.181750 0.467450 -0.520646
O23   O     O_R   0.331100 0.981120 0.457080 -0.500138
O24   O     O_R   0.315560 0.821140 0.532010 -0.517794
O25   O     O_R   0.522630 0.854180 0.531710 -0.498470
O26   O     O_R   0.682160 0.995480 0.544690 -0.523003
C109  C     C_3   0.942320 0.459341 0.183185 -0.287557
C110  C     C_3   0.028992 0.573817 0.186993 -0.435784
H52   H     H_    0.045799 0.598413 0.156518 0.160252
H53   H     H_    0.003224 0.624480 0.205820 0.164965
H54   H     H_    0.104062 0.584420 0.201802 0.127336
H55   H     H_    0.935415 0.436466 0.213877 0.149677
H56   H     H_    0.968250 0.409640 0.163743 0.130713
C111  C     C_3   0.250496 0.771269 0.093362 -0.273948
C112  C     C_3   0.370424 0.849234 0.099224 -0.451028
H57   H     H_    0.385579 0.927263 0.093325 0.155319
H58   H     H_    0.403238 0.856622 0.130573 0.150764
H59   H     H_    0.413299 0.821632 0.077503 0.140486
H60   H     H_    0.236315 0.694385 0.100387 0.140699
H61   H     H_    0.225770 0.760729 0.060658 0.166591
C113  C     C_3   0.098132 0.661871 0.300939 -0.272613
C114  C     C_3   0.055902 0.566136 0.322680 -0.451969
H62   H     H_    0.123232 0.559907 0.336259 0.139271
H63   H     H_    0.003749 0.570387 0.346631 0.158540
H64   H     H_    0.007493 0.494299 0.300287 0.144179
H65   H     H_    0.027929 0.657034 0.284243 0.154503
H66   H     H_    0.152442 0.656906 0.278090 0.141075
C115  C     C_3   0.777362 0.006895 0.099495 -0.275219
C116  C     C_3   0.686153 0.990262 0.070095 -0.434145
H67   H     H_    0.619439 0.988981 0.087363 0.145181
H68   H     H_    0.715236 0.055367 0.051950 0.140714
H69   H     H_    0.655930 0.915631 0.048820 0.163051
H70   H     H_    0.809589 0.085459 0.117692 0.133683
H71   H     H_    0.845763 0.012715 0.082525 0.171885
C117  C     C_3   0.745066 0.044385 0.189159 -0.274140
C118  C     C_3   0.863136 0.113375 0.204068 -0.446897
H72   H     H_    0.885932 0.077199 0.226764 0.156032
H73   H     H_    0.914913 0.124124 0.178420 0.145092
H74   H     H_    0.877333 0.191350 0.218813 0.126047
H75   H     H_    0.718385 0.083637 0.169316 0.133163
H76   H     H_    0.696910 0.036572 0.215852 0.145828
C119  C     C_3   0.461081 0.256997 0.824261 -0.275899
C120  C     C_3   0.439170 0.345986 0.818749 -0.448917
H77   H     H_    0.438840 0.388759 0.848818 0.146477
H78   H     H_    0.501550 0.401244 0.801248 0.162813
H79   H     H_    0.359918 0.313929 0.801755 0.129325
H80   H     H_    0.452433 0.210332 0.794016 0.145992
H81   H     H_    0.399441 0.203300 0.842547 0.134998
C121  C     C_3   0.492784 0.331796 0.701150 -0.286934
C122  C     C_3   0.550413 0.448144 0.718203 -0.425399
H82   H     H_    0.617899 0.467776 0.740544 0.167057
H83   H     H_    0.581559 0.495001 0.693106 0.168384
H84   H     H_    0.493606 0.469179 0.733776 0.134475
H85   H     H_    0.423613 0.315525 0.680328 0.128432
H86   H     H_    0.459357 0.284905 0.726090 0.145275
C123  C     C_3   0.252435 0.048232 0.603897 -0.255237
C124  C     C_3   0.225392 0.118488 0.633974 -0.477643
H87   H     H_    0.137396 0.083074 0.635453 0.150361
H88   H     H_    0.265079 0.132391 0.664713 0.140798
H89   H     H_    0.255393 0.195539 0.623607 0.132414
H90   H     H_    0.340962 0.085603 0.604703 0.184268
H91   H     H_    0.220106 0.047369 0.573284 0.162243
C125  C     C_3   0.831499 0.954817 0.681582 -0.269879
C126  C     C_3   0.904380 0.067241 0.674363 -0.462110
H92   H     H_    0.945353 0.068064 0.646035 0.143377
H93   H     H_    0.857653 0.108807 0.672611 0.146011
H94   H     H_    0.966750 0.109706 0.700174 0.134521
H95   H     H_    0.798542 0.958891 0.711553 0.157200
H96   H     H_    0.882243 0.917639 0.683768 0.135823

loop_
_geom_bond_atom_site_label_1
_geom_bond_atom_site_label_2
_ccdc_geom_bond_type
C34   H4    S    
C65   C92   S    
C79   H25   S    
C21   C26   S    
C29   H10   S    
C44   H13   S    
C93   C94   A    
C32   O1    A    
C73   C74   A    
Cr2   O26   S    
C95   C96   A    
C104  H43   S    
C55   C56   T    
C2    C12   A    
C86   H33   S    
C121  C122  S    
C120  H78   S    
C81   C82   A    
C52   H14   S    
C68   C119  S    
C35   C111  S    
C21   O21   A    
Cr4   O19   S    
C11   O18   A    
C6    O7    A    
C77   C78   A    
C125  C126  S    
C20   H51   S    
C74   H24   S    
C126  H92   S    
C29   C30   A    
C42   C44   A    
C83   C84   A    
Cr6   O10   S    
Cr5   O8    S    
C28   C29   A    
C37   C38   A    
C18   C19   A    
C118  H74   S    
C86   C91   A    
C54   C58   S    
C30   C31   A    
C13   H9    S    
C125  H96   S    
Cr5   O19   S    
C20   C25   A    
C15   C16   A    
C7    O9    A    
C59   H22   S    
C111  H61   S    
C1    C42   S    
C123  C124  S    
C23   C26   A    
C49   C50   A    
C120  H77   S    
C17   H49   S    
C83   H31   S    
C1    O12   A    
C113  H65   S    
Cr5   O16   S    
C88   C92   A    
C43   O25   A    
Cr1   O24   S    
C16   C17   A    
C110  H53   S    
C6    C41   S    
C4    C102  S    
C14   H37   S    
C117  H75   S    
C114  H64   S    
C124  H88   S    
C122  H82   S    
C31   C33   A    
C21   O22   A    
C70   C71   T    
C51   C57   A    
C109  H56   S    
C125  H95   S    
C54   O2    A    
C87   H1    S    
C61   C62   A    
C9    O14   A    
C8    O6    A    
C78   H34   S    
C87   C98   A    
C11   C93   S    
C48   H12   S    
C89   H35   S    
C119  H80   S    
C27   C32   S    
C77   C85   S    
C111  C112  S    
C34   C38   A    
C122  H83   S    
C36   C41   A    
C69   C70   S    
C9    C73   S    
Cr4   O7    S    
C34   C35   A    
C12   C109  S    
C104  C105  A    
C97   C99   A    
C101  C102  A    
C47   H11   S    
C53   C55   S    
C115  H71   S    
C119  H81   S    
C66   C72   A    
C126  H93   S    
C124  H89   S    
C74   C75   A    
C32   O23   A    
C86   C88   A    
C30   C40   S    
C114  H62   S    
C47   C48   A    
C67   C72   A    
C60   C121  S    
C84   C85   A    
C31   C113  S    
C28   H6    S    
C54   O3    A    
C39   C40   T    
C113  C114  S    
C112  H57   S    
C42   C48   A    
C49   C117  S    
C50   C115  S    
C58   C59   A    
C106  H44   S    
C4    C106  A    
Cr1   O1    S    
C51   H15   S    
C27   C33   A    
C82   C91   S    
C67   C68   A    
C65   O4    A    
C60   C61   A    
Cr3   O4    S    
C63   H21   S    
C36   H8    S    
C97   H46   S    
C59   C60   A    
C80   C85   A    
Cr1   O12   S    
C8    C57   S    
C118  H72   S    
C123  H91   S    
Cr2   O2    S    
C24   H18   S    
C123  H90   S    
C107  H45   S    
C119  C120  S    
C13   C76   A    
C101  H39   S    
Cr1   O25   S    
C23   C24   A    
C80   H29   S    
C96   C97   A    
C62   C63   A    
C17   C18   A    
C100  C105  A    
C18   H50   S    
C94   C95   A    
C11   O13   A    
C121  H86   S    
C109  H55   S    
C24   C25   A    
C89   C92   A    
C75   C77   A    
C76   C87   A    
Cr2   O21   S    
C115  C116  S    
C9    O15   A    
Cr4   O14   S    
Cr3   O23   S    
Cr2   O5    S    
C112  H58   S    
C81   H28   S    
C65   O24   A    
C110  H52   S    
C84   H32   S    
C22   C26   A    
C111  H60   S    
C10   O17   A    
C122  H84   S    
C37   H7    S    
C45   C46   A    
C3    C125  S    
C3    C4    A    
Cr6   O19   S    
C88   C123  S    
C98   H47   S    
Cr1   O5    S    
C96   C105  S    
Cr4   O13   S    
C66   H17   S    
C5    C107  A    
C100  H40   S    
C16   C25   S    
C93   C99   A    
C46   C47   A    
C36   C37   A    
C126  H94   S    
C124  H87   S    
C2    C19   S    
C116  H67   S    
C50   C57   A    
C14   C19   A    
C68   C69   A    
C44   C45   A    
C58   C63   A    
C20   C22   A    
C80   C81   A    
C73   C79   A    
C116  H69   S    
C23   H3    S    
C90   H26   S    
C115  H70   S    
C8    O11   A    
C33   H5    S    
C7    C76   S    
C6    O8    A    
C1    O20   A    
C3    C108  A    
C94   H36   S    
C64   C69   A    
C99   H38   S    
Cr3   O22   S    
Cr3   O5    S    
C109  C110  S    
C62   H20   S    
C7    O10   A    
C116  H68   S    
C51   C52   A    
C118  H73   S    
C64   C66   A    
Cr6   O17   S    
C110  H54   S    
Cr6   O11   S    
C78   C79   A    
C61   C71   S    
C90   C91   A    
C38   C39   S    
C108  H48   S    
C112  H59   S    
C49   C53   A    
C117  H76   S    
Cr2   O20   S    
C22   H2    S    
C100  C101  A    
C117  C118  S    
C95   H41   S    
C121  H85   S    
C5    C43   S    
C102  C103  A    
C35   C41   A    
C75   H30   S    
C43   O26   A    
Cr4   O6    S    
C113  H66   S    
C103  H42   S    
C45   H16   S    
Cr5   O15   S    
C12   C13   A    
C2    C98   A    
C64   H19   S    
C82   C83   A    
C106  C107  A    
C46   C56   S    
C103  C104  A    
C114  H63   S    
C10   O16   A    
C15   H27   S    
C14   C15   A    
Cr3   O3    S    
C89   C90   A    
C67   H23   S    
C120  H79   S    
Cr6   O18   S    
C52   C53   A    
Cr5   O9    S    
C27   C28   A    
C5    C108  A    
C10   C72   S    
