data_mof_unit_54977.cif
_audit_creation_date              2012-12-11T14:40:16-0500
_audit_creation_method            fapswitch 2.2
_symmetry_space_group_name_H-M    P1
_symmetry_Int_Tables_number       1
_space_group_crystal_system       triclinic
_cell_length_a                    19.736427
_cell_length_b                    10.837318
_cell_length_c                    19.505619
_cell_angle_alpha                 90.132864
_cell_angle_beta                  97.389045
_cell_angle_gamma                 89.882744
_cell_volume                      4137.39232908

loop_
_atom_site_label
_atom_site_type_symbol
_atom_type_description
_atom_site_fract_x
_atom_site_fract_y
_atom_site_fract_z
_atom_type_partial_charge
C1    C     C_R   0.724662 0.954043 0.361270 0.552161
C2    C     C_3   0.254381 0.394894 0.565968 0.060991
C3    C     C_2   0.858706 0.700262 0.998778 0.211231
C4    C     C_3   0.246819 0.900087 0.433337 0.054318
C5    C     C_3   0.754528 0.893903 0.565811 0.061178
C6    C     C_3   0.717366 0.508442 0.469923 -0.131543
C7    C     C_3   0.227176 0.514159 0.532336 -0.150303
C8    C     C_3   0.217346 0.008456 0.469792 -0.132461
C9    C     C_3   0.729596 0.014882 0.532652 -0.150495
C10   C     C_3   0.786439 0.515981 0.517481 -0.113949
C11   C     C_3   0.180949 0.436658 0.478906 -0.113713
C12   C     C_3   0.286332 0.016027 0.517443 -0.112266
C13   C     C_R   0.274084 0.950117 0.639726 0.539475
C14   C     C_3   0.681587 0.940461 0.479233 -0.112280
C15   C     C_3   0.815348 0.406859 0.479752 -0.113789
C16   C     C_3   0.208356 0.316378 0.513250 -0.105401
C17   C     C_3   0.315334 0.906865 0.479841 -0.112037
C18   C     C_3   0.706733 0.818405 0.513116 -0.105789
C19   C     C_3   0.787992 0.315169 0.529801 -0.124585
C20   C     C_3   0.266557 0.310823 0.467499 -0.148784
C21   C     C_3   0.287874 0.815275 0.529893 -0.122556
C22   C     C_3   0.764547 0.809285 0.467033 -0.149985
C23   C     C_3   0.759050 0.423365 0.566802 0.055544
C24   C     C_R   0.224701 0.453789 0.361219 0.546260
C25   C     C_3   0.239189 0.429764 0.433883 0.061026
C26   C     C_3   0.258892 0.923505 0.566777 0.058443
C27   C     C_3   0.739412 0.929934 0.433876 0.061261
C28   C     C_3   0.515657 0.279501 0.970846 -0.102485
C29   C     C_3   0.474679 0.268864 0.032828 -0.108856
C30   C     C_3   0.026159 0.766239 0.966268 -0.101351
C31   C     C_3   0.986830 0.780914 0.029230 -0.103185
C32   C     C_3   0.566909 0.182431 0.002870 -0.001871
C33   C     C_3   0.432460 0.162513 0.997170 -0.003471
C34   C     C_3   0.067019 0.658024 0.001408 -0.003434
C35   C     C_R   0.774107 0.450077 0.639739 0.551590
C36   C     C_3   0.933517 0.686736 0.998388 -0.004030
C37   C     C_3   0.527003 0.172544 0.064489 0.013392
C38   C     C_3   0.472406 0.173433 0.935616 0.011788
C39   C     C_3   0.028795 0.672925 0.064055 0.010548
C40   C     C_3   0.971715 0.672936 0.935716 0.009632
C41   C     C_R   0.534058 0.180009 0.337309 0.556663
C42   C     C_R   0.435892 0.183404 0.651523 0.553324
C43   C     C_R   0.061095 0.683322 0.348475 0.549959
C44   C     C_R   0.941383 0.682794 0.651714 0.546231
C45   C     C_3   0.484072 0.065680 0.029865 -0.107893
C46   C     C_3   0.718940 0.308012 0.482569 -0.113553
C47   C     C_3   0.524365 0.076262 0.966757 -0.111328
C48   C     C_3   0.974740 0.578736 0.033979 -0.105943
C49   C     C_3   0.013300 0.564164 0.969869 -0.109485
C50   C     C_1   0.779341 0.468818 0.913735 0.009733
C51   C     C_1   0.239085 0.418575 0.097549 0.016120
C52   C     C_1   0.259627 0.914157 0.900935 0.017940
C53   C     C_1   0.733648 0.933381 0.093132 0.031122
C54   C     C_1   0.756559 0.433816 0.041071 0.024372
C55   C     C_1   0.254967 0.400291 0.967280 0.016637
C56   C     C_1   0.238414 0.873770 0.028010 0.018964
C57   C     C_3   0.312847 0.388367 0.521197 -0.124092
C58   C     C_1   0.747605 0.921600 0.962012 0.009619
C59   C     C_1   0.768205 0.452605 0.972221 0.020503
C60   C     C_1   0.248451 0.406456 0.038203 0.011276
C61   C     C_1   0.248299 0.893575 0.958849 0.024572
C62   C     C_1   0.740767 0.927641 0.032885 0.017658
C63   C     C_1   0.747176 0.409364 0.099183 0.014729
C64   C     C_1   0.258998 0.389951 0.906548 0.027232
C65   C     C_1   0.231314 0.852283 0.087056 0.008089
C66   C     C_1   0.754166 0.905054 0.902241 0.014904
C67   C     C_R   0.739748 0.365689 0.361198 0.544617
C68   C     C_3   0.218879 0.808079 0.482579 -0.117172
C69   C     C_R   0.260982 0.362580 0.637982 0.547072
C70   C     C_R   0.239754 0.865669 0.361199 0.550250
C71   C     C_R   0.761092 0.862073 0.637841 0.549172
C72   C     C_R   0.720898 0.954719 0.162624 0.541502
C73   C     C_R   0.277826 0.951241 0.835612 0.532874
C74   C     C_R   0.222299 0.450923 0.164368 0.530986
C75   C     C_R   0.793982 0.494941 0.845368 0.526316
C76   C     C_R   0.558312 0.181651 0.135395 0.540407
C77   C     C_R   0.441463 0.182048 0.864558 0.543594
C78   C     C_R   0.059248 0.681770 0.135466 0.529127
C79   C     C_3   0.812625 0.883680 0.520732 -0.122998
C80   C     C_R   0.940887 0.682050 0.864536 0.528423
C81   C     C_R   0.736445 0.362564 0.165317 0.532217
C82   C     C_R   0.264611 0.359096 0.836296 0.543422
C83   C     C_R   0.223934 0.816178 0.156028 0.527341
C84   C     C_R   0.763426 0.863054 0.834593 0.532353
C85   C     C_1   0.454815 0.174940 0.583160 -0.026310
C86   C     C_1   0.504782 0.172002 0.400628 -0.016765
C87   C     C_1   0.969338 0.674392 0.588012 -0.018804
C88   C     C_1   0.035554 0.675602 0.413444 -0.019393
C89   C     C_1   0.486255 0.169287 0.457058 -0.054783
C90   C     C_3   0.746785 0.400135 0.433333 0.057121
C91   C     C_1   0.468893 0.170510 0.524927 -0.060271
C92   C     C_1   0.015019 0.671808 0.468691 -0.056197
C93   C     C_1   0.990956 0.671178 0.533284 -0.054695
C94   C     C_3   0.690188 0.417191 0.520783 -0.121929
C95   C     C_3   0.285303 0.508770 0.485940 -0.119629
C96   C     C_3   0.190060 0.917326 0.520671 -0.123162
C97   C     C_3   0.787339 0.005912 0.485931 -0.117299
C98   C     C_2   0.642725 0.191693 0.006149 0.215655
C99   C     C_2   0.356767 0.149977 0.993555 0.214549
C100  C     C_2   0.141534 0.639517 0.001201 0.211980
Cr1   Cr    Cr6+3 0.765830 0.160660 0.268180 1.032091
Cr2   Cr    Cr6+3 0.384070 0.324050 0.751550 1.028840
Cr3   Cr    Cr6+3 0.115930 0.824050 0.248450 1.033974
Cr4   Cr    Cr6+3 0.884070 0.824050 0.751550 1.026020
Cr5   Cr    Cr6+3 0.234170 0.160660 0.731820 1.025346
Cr6   Cr    Cr6+3 0.265830 0.660660 0.268180 1.020396
Cr7   Cr    Cr6+3 0.734170 0.660660 0.731820 1.029946
Cr8   Cr    Cr6+3 0.612110 0.009150 0.248770 1.031894
Cr9   Cr    Cr6+3 0.387890 0.009150 0.751230 1.035480
Cr10  Cr    Cr6+3 0.112110 0.509150 0.248770 1.028969
Cr11  Cr    Cr6+3 0.887890 0.509150 0.751230 1.036302
Cr12  Cr    Cr6+3 0.615930 0.324050 0.248450 1.031096
H1    H     H_    0.689269 0.225015 0.463924 0.116904
H2    H     H_    0.211036 0.593334 0.562563 0.112431
H3    H     H_    0.188126 0.084206 0.441538 0.116522
H4    H     H_    0.715087 0.094653 0.563403 0.112410
H5    H     H_    0.315072 0.100275 0.535474 0.104731
H6    H     H_    0.627532 0.963803 0.460574 0.131350
H7    H     H_    0.815601 0.599950 0.535433 0.104288
H8    H     H_    0.126479 0.455879 0.459997 0.128452
H9    H     H_    0.866348 0.404595 0.461497 0.128602
H10   H     H_    0.175596 0.238801 0.526018 0.137432
H11   H     H_    0.366377 0.904607 0.461667 0.128534
H12   H     H_    0.367262 0.371075 0.540665 0.125265
H13   H     H_    0.672696 0.742561 0.525663 0.137031
H14   H     H_    0.816923 0.238169 0.557216 0.121445
H15   H     H_    0.283213 0.232351 0.437111 0.111545
H16   H     H_    0.316629 0.738384 0.557615 0.120961
H17   H     H_    0.779715 0.730367 0.436078 0.111063
H18   H     H_    0.529342 0.367162 0.946683 0.158799
H19   H     H_    0.453541 0.347325 0.060101 0.154215
H20   H     H_    0.048199 0.842857 0.938604 0.157410
H21   H     H_    0.975029 0.870277 0.053090 0.156969
H22   H     H_    0.471325 0.978942 0.055509 0.150718
H23   H     H_    0.189334 0.725028 0.463888 0.103568
H24   H     H_    0.544531 0.998380 0.938272 0.147928
H25   H     H_    0.953749 0.502633 0.062869 0.150120
H26   H     H_    0.024045 0.475863 0.944343 0.149578
H27   H     H_    0.674803 0.184570 0.055418 0.079481
H28   H     H_    0.325018 0.151025 0.943924 0.080202
H29   H     H_    0.174422 0.628771 0.049537 0.063523
H30   H     H_    0.825190 0.703911 0.950470 0.065019
H31   H     H_    0.866605 0.861297 0.539876 0.122223
H32   H     H_    0.639432 0.419697 0.539531 0.124587
H33   H     H_    0.317673 0.585211 0.471045 0.134965
H34   H     H_    0.139251 0.919819 0.539317 0.123461
H35   H     H_    0.820935 0.080826 0.471390 0.134199
H36   H     H_    0.687764 0.584052 0.441961 0.115625
O1    O     O_R   0.783230 0.287800 0.346510 -0.516907
O2    O     O_R   0.454570 0.285140 0.836900 -0.497412
O3    O     O_R   0.045430 0.785140 0.163100 -0.500085
O4    O     O_R   0.954570 0.785140 0.836900 -0.496484
O5    O     O_R   0.677850 0.374730 0.185500 -0.513415
O6    O     O_R   0.322150 0.374730 0.814500 -0.514310
O7    O     O_R   0.177850 0.874730 0.185500 -0.497492
O8    O     O_R   0.822150 0.874730 0.814500 -0.511616
O9    O     O_3   0.664630 0.164620 0.255130 -0.280428
O10   O     O_3   0.335370 0.164620 0.744870 -0.299480
O11   O     O_3   0.164630 0.664620 0.255130 -0.311881
O12   O     O_R   0.216770 0.287800 0.653490 -0.515236
O13   O     O_3   0.835370 0.664620 0.744870 -0.311706
O14   O     O_R   0.760130 0.037060 0.338610 -0.501935
O15   O     O_R   0.239870 0.037060 0.661390 -0.503080
O16   O     O_R   0.260130 0.537060 0.338610 -0.504381
O17   O     O_R   0.739870 0.537060 0.661390 -0.498053
O18   O     O_R   0.666620 0.921370 0.332440 -0.518337
O19   O     O_R   0.333380 0.921370 0.667560 -0.519944
O20   O     O_R   0.166620 0.421370 0.332440 -0.522379
O21   O     O_R   0.833380 0.421370 0.667560 -0.515357
O22   O     O_R   0.557170 0.082420 0.312350 -0.493319
O23   O     O_R   0.283230 0.787800 0.346510 -0.513553
O24   O     O_R   0.442830 0.082420 0.687650 -0.475032
O25   O     O_R   0.057170 0.582420 0.312350 -0.482615
O26   O     O_R   0.942830 0.582420 0.687650 -0.476013
O27   O     O_R   0.548310 0.285980 0.316250 -0.499752
O28   O     O_R   0.451690 0.285980 0.683750 -0.493384
O29   O     O_R   0.048310 0.785980 0.316250 -0.488308
O30   O     O_R   0.951690 0.785980 0.683750 -0.495900
O31   O     O_R   0.680520 0.375500 0.327470 -0.499211
O32   O     O_R   0.319480 0.375500 0.672530 -0.518232
O33   O     O_R   0.180520 0.875500 0.327470 -0.507910
O34   O     O_R   0.716770 0.787800 0.653490 -0.516094
O35   O     O_R   0.819480 0.875500 0.672530 -0.513175
O36   O     O_R   0.780350 0.286970 0.193350 -0.504657
O37   O     O_R   0.219650 0.286970 0.806650 -0.498905
O38   O     O_R   0.280350 0.786970 0.193350 -0.486623
O39   O     O_R   0.719650 0.786970 0.806650 -0.508814
O40   O     O_R   0.757460 0.036290 0.196640 -0.494689
O41   O     O_R   0.242540 0.036290 0.803360 -0.498048
O42   O     O_R   0.257460 0.536290 0.196640 -0.511573
O43   O     O_R   0.742540 0.536290 0.803360 -0.477648
O44   O     O_R   0.663740 0.920540 0.179290 -0.516443
O45   O     O_R   0.554500 0.081650 0.170370 -0.491937
O46   O     O_R   0.336260 0.920540 0.820710 -0.514882
O47   O     O_R   0.163740 0.420540 0.179290 -0.510040
O48   O     O_R   0.836260 0.420540 0.820710 -0.499207
O49   O     O_2   0.668766 0.204749 0.953200 -0.490734
O50   O     O_2   0.330503 0.138829 0.046494 -0.494349
O51   O     O_2   0.165371 0.635629 0.946555 -0.502709
O52   O     O_2   0.835174 0.704920 0.053568 -0.501602
O53   O     O_R   0.445500 0.081650 0.829630 -0.486663
O54   O     O_R   0.054500 0.581650 0.170370 -0.484581
O55   O     O_R   0.945500 0.581650 0.829630 -0.495233
O56   O     O_R   0.545430 0.285140 0.163100 -0.507299

loop_
_geom_bond_atom_site_label_1
_geom_bond_atom_site_label_2
_ccdc_geom_bond_type
C58   C62   S    
C21   C26   S    
Cr7   O17   S    
Cr8   O22   S    
C47   H24   S    
C67   O1    A    
Cr11  O26   S    
C33   C45   S    
Cr6   O23   S    
C14   C18   S    
C19   C23   S    
C2    C7    S    
C95   H33   S    
C51   C74   S    
C4    C8    S    
Cr2   O10   S    
C4    C70   S    
C85   C91   T    
C19   C46   S    
C81   O5    A    
Cr8   O45   S    
C29   H19   S    
C7    C11   S    
C41   C86   S    
C45   H22   S    
C68   C96   S    
C48   H25   S    
C63   C81   S    
C50   C59   T    
C3    C36   S    
C7    H2    S    
C28   C29   S    
C24   O20   A    
C44   O26   A    
C22   C79   S    
C15   C19   S    
C52   C61   T    
C18   H13   S    
C30   C31   S    
C65   C83   S    
C80   O55   A    
C83   O7    A    
C54   C63   T    
C11   C25   S    
Cr2   O28   S    
C40   C49   S    
Cr7   O39   S    
C69   O12   A    
Cr2   O32   S    
C11   C16   S    
Cr5   O37   S    
C16   H10   S    
C72   O40   A    
C10   H7    S    
Cr9   O19   S    
C8    H3    S    
C74   O42   A    
Cr10  O20   S    
C17   H11   S    
C79   H31   S    
C88   C92   T    
C29   C33   S    
C32   C98   S    
C14   H6    S    
Cr11  O13   S    
C12   C17   S    
C34   C100  S    
C40   C80   S    
C83   O38   A    
Cr6   O16   S    
C14   C27   S    
C89   C91   S    
C2    C69   S    
C2    C16   S    
Cr2   O6    S    
C46   H1    S    
Cr9   O24   S    
C31   H21   S    
Cr11  O48   S    
C55   C60   S    
C75   O48   A    
C41   O27   A    
Cr1   O9    S    
C44   C87   S    
C18   C22   S    
C49   H26   S    
C97   H35   S    
C71   O34   A    
C24   O16   A    
C3    H30   S    
C11   H8    S    
C58   C66   T    
C78   O3    A    
C13   O15   A    
C54   C59   S    
C45   C47   S    
C26   C96   S    
Cr4   O30   S    
C2    C57   S    
Cr12  O9    S    
C30   C34   S    
C82   O37   A    
C34   C39   S    
C21   C68   S    
C39   C78   S    
Cr5   O41   S    
C36   C40   S    
C24   C25   S    
Cr6   O38   S    
C20   H15   S    
C43   O29   A    
C52   C73   S    
C76   O45   A    
Cr11  O55   S    
Cr4   O13   S    
C4    C68   S    
Cr8   O9    S    
Cr7   O34   S    
C6    C94   S    
C6    C90   S    
C67   C90   S    
C17   C21   S    
C12   C26   S    
Cr11  O21   S    
C82   O6    A    
C75   O43   A    
C9    C14   S    
C5    C9    S    
C71   O35   A    
C8    C96   S    
C6    H36   S    
C53   C62   T    
C70   O33   A    
Cr5   O10   S    
C46   C94   S    
C28   C32   S    
C8    C12   S    
C55   C64   T    
Cr12  O27   S    
Cr5   O15   S    
C3    O52   D    
C30   C40   S    
Cr9   O46   S    
C56   C61   S    
C42   C85   S    
C16   C20   S    
C32   C37   S    
Cr4   O8    S    
C21   H16   S    
C64   C82   S    
C38   C47   S    
Cr1   O36   S    
C42   O24   A    
Cr2   O2    S    
Cr12  O31   S    
C4    C17   S    
Cr3   O7    S    
C48   C49   S    
C37   C76   S    
C1    O14   A    
C25   C95   S    
C23   C35   S    
C22   C27   S    
C22   H17   S    
C57   C95   S    
C35   O21   A    
C32   C47   S    
Cr9   O10   S    
C99   H28   S    
Cr7   O43   S    
C5    C79   S    
C43   C88   S    
C44   O30   A    
Cr1   O40   S    
Cr7   O13   S    
C7    C95   S    
Cr6   O42   S    
Cr10  O25   S    
Cr3   O29   S    
C56   C65   T    
C80   O4    A    
Cr8   O18   S    
C74   O47   A    
Cr1   O14   S    
C34   C49   S    
C9    C97   S    
C15   H9    S    
C98   O49   D    
Cr3   O33   S    
C9    H4    S    
C79   C97   S    
C68   H23   S    
Cr12  O5    S    
C78   O54   A    
C86   C89   T    
C77   O53   A    
C77   O2    A    
C6    C10   S    
C76   O56   A    
C46   C90   S    
C38   C77   S    
Cr3   O3    S    
C10   C23   S    
C96   H34   S    
C41   O22   A    
C19   H14   S    
C33   C38   S    
C23   C94   S    
Cr10  O54   S    
C98   H27   S    
C10   C15   S    
C94   H32   S    
Cr4   O4    S    
Cr9   O53   S    
C100  H29   S    
C20   C57   S    
C69   O32   A    
C67   O31   A    
C50   C75   S    
C15   C90   S    
C84   O8    A    
Cr3   O11   S    
C43   O25   A    
C1    O18   A    
C5    C18   S    
C30   H20   S    
C87   C93   T    
C99   O50   D    
Cr1   O1    S    
C92   C93   S    
C35   O17   A    
C31   C39   S    
C36   C48   S    
C28   H18   S    
C70   O23   A    
C13   C26   S    
C13   O19   A    
C27   C97   S    
C66   C84   S    
C12   H5    S    
Cr5   O12   S    
C100  O51   D    
Cr4   O35   S    
C5    C71   S    
C20   C25   S    
C29   C37   S    
Cr10  O47   S    
C1    C27   S    
Cr12  O56   S    
C31   C36   S    
Cr8   O44   S    
C84   O39   A    
C42   O28   A    
C51   C60   T    
C81   O36   A    
C33   C99   S    
C28   C38   S    
C73   O46   A    
C53   C72   S    
C37   C45   S    
C72   O44   A    
C73   O41   A    
Cr10  O11   S    
Cr6   O11   S    
C39   C48   S    
C57   H12   S    
