data_mof_unit_41454.cif
_audit_creation_date              2012-12-10T17:11:05-0500
_audit_creation_method            fapswitch 2.2
_symmetry_space_group_name_H-M    P1
_symmetry_Int_Tables_number       1
_space_group_crystal_system       triclinic
_cell_length_a                    10.002165
_cell_length_b                    10.704784
_cell_length_c                    16.819724
_cell_angle_alpha                 90.061114
_cell_angle_beta                  85.255693
_cell_angle_gamma                 90.009783
_cell_volume                      1794.73351342

loop_
_atom_site_label
_atom_site_type_symbol
_atom_type_description
_atom_site_fract_x
_atom_site_fract_y
_atom_site_fract_z
_atom_type_partial_charge
C1    C     C_R   0.501012 0.737447 0.494824 0.952419
C2    C     C_R   0.529080 0.530650 0.262323 -0.025013
C3    C     C_2   0.604614 0.070396 0.462067 -0.280735
C4    C     C_R   0.481537 0.496094 0.652902 0.876497
C5    C     C_2   0.502019 0.130355 0.501063 -0.402814
C6    C     C_2   0.616587 0.934977 0.468182 0.586557
C7    C     C_2   0.502494 0.868652 0.479287 -0.456466
C8    C     C_2   0.082325 0.424558 0.455457 0.555277
C9    C     C_2   0.932480 0.438937 0.448230 -0.267029
C10   C     C_R   0.500120 0.262505 0.499949 0.971034
C11   C     C_R   0.518444 0.504972 0.347158 0.854775
C12   C     C_R   0.354000 0.514483 0.784617 -0.189162
C13   C     C_R   0.470755 0.478967 0.738620 -0.083002
C14   C     C_R   0.577700 0.423878 0.774512 -0.303385
C15   C     C_R   0.573005 0.412912 0.857473 0.575719
C16   C     C_R   0.457186 0.453524 0.902876 0.003422
C17   C     C_R   0.347458 0.501985 0.866838 -0.265924
C18   C     C_3   0.840962 0.940204 0.493809 -0.306195
C19   C     C_3   0.098112 0.218768 0.417172 -0.318728
C20   C     C_3   0.647458 0.754896 0.992262 -0.328834
C21   C     C_3   0.348344 0.278742 0.011536 -0.292823
C22   C     C_3   0.801858 0.411170 0.869310 -0.313363
C23   C     C_R   0.428889 0.613352 0.147958 -0.148185
C24   C     C_R   0.421749 0.589732 0.228980 -0.149727
C25   C     C_R   0.646795 0.501886 0.214814 -0.184294
C26   C     C_R   0.653007 0.523992 0.133239 -0.151136
C27   C     C_R   0.542568 0.576676 0.099946 0.093277
C28   C     C_2   0.461353 0.468519 0.989114 0.434416
C29   C     C_2   0.532768 0.566086 0.014003 0.381747
H1    H     H_    0.664358 0.390018 0.738001 0.156975
H2    H     H_    0.731105 0.457941 0.240123 0.150159
H3    H     H_    0.259824 0.535513 0.902756 0.153414
H4    H     H_    0.342825 0.652587 0.121789 0.125872
H5    H     H_    0.270077 0.555595 0.757314 0.157747
H6    H     H_    0.805649 0.971550 0.555171 0.157394
H7    H     H_    0.878568 0.020445 0.456653 0.148143
H8    H     H_    0.926896 0.876157 0.499279 0.184325
H9    H     H_    0.010527 0.209574 0.381093 0.148821
H10   H     H_    0.069430 0.195462 0.480891 0.139429
H11   H     H_    0.173591 0.148741 0.394356 0.196937
H12   H     H_    0.740028 0.493616 0.095523 0.144125
H13   H     H_    0.729627 0.734599 0.030965 0.172047
H14   H     H_    0.563882 0.805918 0.025913 0.165495
H15   H     H_    0.689046 0.817148 0.943658 0.198253
H16   H     H_    0.433595 0.227389 0.979798 0.181037
H17   H     H_    0.267898 0.297012 0.971249 0.159008
H18   H     H_    0.305255 0.217671 0.060369 0.194330
H19   H     H_    0.796910 0.514188 0.860515 0.192365
H20   H     H_    0.843159 0.364188 0.813724 0.156725
H21   H     H_    0.872999 0.394077 0.915335 0.188362
H22   H     H_    0.683849 0.121818 0.428156 0.172174
H23   H     H_    0.421656 0.084140 0.536991 0.141895
H24   H     H_    0.404611 0.911354 0.476260 0.121011
H25   H     H_    0.096956 0.571151 0.527942 0.099290
H26   H     H_    0.889332 0.393620 0.398655 0.176769
H27   H     H_    0.891022 0.532516 0.549578 0.153283
H28   H     H_    0.331442 0.615714 0.265240 0.154882
N1    N     N_2   0.147950 0.498670 0.499150 -0.225151
N2    N     N_2   0.852290 0.498640 0.499130 -0.199208
O1    O     O_R   0.386960 0.680940 0.500010 -0.638338
O2    O     O_3   0.156023 0.338617 0.408128 -0.552625
O3    O     O_3   0.601651 0.644282 0.957859 -0.635971
O4    O     O_3   0.391693 0.390835 0.045313 -0.622327
O5    O     O_3   0.676365 0.359350 0.896239 -0.627795
O6    O     O_R   0.613100 0.680900 0.499990 -0.537607
O7    O     O_R   0.373570 0.500040 0.615810 -0.627216
O8    O     O_R   0.599710 0.500000 0.615790 -0.622471
O9    O     O_R   0.386900 0.319100 0.500010 -0.572453
O10   O     O_R   0.613040 0.319060 0.499990 -0.618833
O11   O     O_R   0.400290 0.500000 0.384210 -0.576126
O12   O     O_R   0.626430 0.499960 0.384190 -0.617387
O13   O     O_3   0.740523 0.874953 0.456563 -0.573040
Zn1   Zn    Zn3+2 0.349000 0.500030 0.500020 0.974639
Zn2   Zn    Zn3+2 0.651000 0.499970 0.499980 0.963320

loop_
_geom_bond_atom_site_label_1
_geom_bond_atom_site_label_2
_ccdc_geom_bond_type
C12   C17   A    
C16   C28   S    
O12   Zn2   S    
C6    O13   S    
C15   O5    S    
C28   O4    S    
C5    H23   S    
C25   H2    S    
C6    C7    D    
C9    H26   S    
C19   H9    S    
C10   O9    A    
C27   C29   S    
C18   H6    S    
C9    N2    D    
C20   H13   S    
H27   N2    S    
C22   H21   S    
C8    O2    S    
C23   C24   A    
C3    C6    S    
O11   Zn1   S    
C25   C26   A    
C11   O11   A    
C5    C10   S    
O8    Zn2   S    
C1    C7    S    
C13   C14   A    
C4    O7    A    
N2    Zn2   S    
C26   C27   A    
C16   C17   A    
C19   H10   S    
C14   H1    S    
C22   H20   S    
C2    C11   S    
C28   C29   D    
C20   H15   S    
C18   H8    S    
C19   O2    S    
C22   H19   S    
C2    C25   A    
C21   H16   S    
C23   C27   A    
C2    C24   A    
C11   O12   A    
C21   O4    S    
C19   H11   S    
C7    H24   S    
C12   H5    S    
C15   C16   A    
C10   O10   A    
O1    Zn1   S    
O10   Zn2   S    
C20   H14   S    
C12   C13   A    
C26   H12   S    
C23   H4    S    
C21   H17   S    
H25   N1    S    
C1    O1    A    
C4    C13   S    
C17   H3    S    
C3    H22   S    
C29   O3    S    
C8    C9    S    
C4    O8    A    
C22   O5    S    
C8    N1    D    
O9    Zn1   S    
C14   C15   A    
O7    Zn1   S    
C18   H7    S    
C1    O6    A    
C20   O3    S    
O6    Zn2   S    
N1    Zn1   S    
C21   H18   S    
C24   H28   S    
C3    C5    D    
C18   O13   S    
