data_mof_unit_64538.cif
_audit_creation_date              2012-12-10T20:37:25-0500
_audit_creation_method            fapswitch 2.2
_symmetry_space_group_name_H-M    P1
_symmetry_Int_Tables_number       1
_space_group_crystal_system       monoclinic
_cell_length_a                    36.024021
_cell_length_b                    39.763215
_cell_length_c                    26.859384
_cell_angle_alpha                 90.0
_cell_angle_beta                  132.207907
_cell_angle_gamma                 90.0
_cell_volume                      28498.3058192

loop_
_atom_site_label
_atom_site_type_symbol
_atom_type_description
_atom_site_fract_x
_atom_site_fract_y
_atom_site_fract_z
_atom_type_partial_charge
C1    C     C_R   0.400155 0.749972 0.999994 0.507310
C2    C     C_3   0.744378 0.718855 0.013471 -0.099711
C3    C     C_R   0.205156 0.272773 0.362018 0.155890
C4    C     C_R   0.705157 0.227228 0.362018 0.155891
C5    C     C_R   0.294856 0.772784 0.637982 0.155894
C6    C     C_R   0.294846 0.227225 0.637982 0.155891
C7    C     C_R   0.705160 0.772770 0.362018 0.155890
C8    C     C_R   0.199009 0.748925 0.397600 0.041709
C9    C     C_R   0.800993 0.251076 0.602400 0.041709
C10   C     C_R   0.800991 0.748925 0.602400 0.041709
C11   C     C_R   0.199009 0.251075 0.397600 0.041709
C12   C     C_R   0.699010 0.248926 0.397600 0.041708
C13   C     C_3   0.744055 0.281213 0.012828 -0.099702
C14   C     C_R   0.300991 0.751075 0.602400 0.041709
C15   C     C_R   0.300991 0.248925 0.602400 0.041709
C16   C     C_R   0.699009 0.751075 0.397600 0.041708
C17   C     C_1   0.234927 0.749695 0.469793 -0.038101
C18   C     C_1   0.765075 0.250307 0.530207 -0.038100
C19   C     C_1   0.765072 0.749695 0.530207 -0.038101
C20   C     C_1   0.234927 0.250305 0.469793 -0.038101
C21   C     C_1   0.734929 0.249696 0.469793 -0.038101
C22   C     C_1   0.265072 0.750305 0.530207 -0.038102
C23   C     C_1   0.265072 0.249695 0.530207 -0.038101
C24   C     C_3   0.255957 0.718785 0.987196 -0.099701
C25   C     C_1   0.734927 0.750305 0.469793 -0.038101
C26   C     C_R   0.497982 0.431243 0.043242 -0.116835
C27   C     C_R   0.502018 0.568757 0.956758 -0.116836
C28   C     C_R   0.502018 0.431243 0.956758 -0.116836
C29   C     C_R   0.497982 0.568757 0.043242 -0.116836
C30   C     C_R   0.997982 0.931243 0.043242 -0.116835
C31   C     C_R   0.002018 0.068757 0.956758 -0.116835
C32   C     C_R   0.002018 0.931243 0.956758 -0.116836
C33   C     C_R   0.997982 0.068757 0.043242 -0.116836
C34   C     C_R   0.497979 0.396126 0.043294 -0.127340
C35   C     C_3   0.755622 0.781145 0.986529 -0.099711
C36   C     C_R   0.502021 0.603874 0.956706 -0.127340
C37   C     C_R   0.502021 0.396126 0.956706 -0.127340
C38   C     C_R   0.497979 0.603874 0.043294 -0.127340
C39   C     C_R   0.997979 0.896126 0.043294 -0.127340
C40   C     C_R   0.002021 0.103874 0.956706 -0.127341
C41   C     C_R   0.002021 0.896126 0.956706 -0.127341
C42   C     C_R   0.997979 0.103874 0.043294 -0.127340
C43   C     C_R   0.500000 0.378218 0.000000 0.032239
C44   C     C_R   0.500000 0.621782 0.000000 0.032239
C45   C     C_R   0.000000 0.878218 0.000000 0.032238
C46   C     C_3   0.244355 0.218850 0.013427 -0.099710
C47   C     C_R   0.000000 0.121782 0.000000 0.032239
C48   C     C_R   0.500000 0.448812 1.000000 0.037797
C49   C     C_R   0.500000 0.551188 1.000000 0.037797
C50   C     C_R   0.000000 0.948811 0.000000 0.037797
C51   C     C_R   1.000000 0.051188 1.000000 0.037797
C52   C     C_1   0.500000 0.484878 1.000000 -0.030271
C53   C     C_1   0.500000 0.515122 1.000000 -0.030271
C54   C     C_1   1.000000 0.984878 1.000000 -0.030271
C55   C     C_1   1.000000 0.015122 1.000000 -0.030271
C56   C     C_R   0.500000 0.658894 0.000000 0.501493
C57   C     C_3   0.244043 0.781215 0.012804 -0.099701
C58   C     C_R   0.500000 0.341106 0.000000 0.501493
C59   C     C_R   0.000000 0.158894 0.000000 0.501493
C60   C     C_R   1.000000 0.841106 0.000000 0.501493
C61   C     C_R   0.500000 0.841058 1.000000 0.502962
C62   C     C_R   0.500000 0.158941 1.000000 0.502962
C63   C     C_R   0.000000 0.341058 0.000000 0.502962
C64   C     C_R   0.000000 0.658941 0.000000 0.502962
C65   C     C_R   0.454671 0.068784 0.956645 -0.116019
C66   C     C_R   0.545329 0.931216 0.043354 -0.116018
C67   C     C_R   0.545329 0.068784 0.043354 -0.116018
C68   C     C_3   0.755945 0.218787 0.987171 -0.099701
C69   C     C_R   0.454671 0.931216 0.956645 -0.116018
C70   C     C_R   0.954671 0.568784 0.956645 -0.116019
C71   C     C_R   0.045329 0.431216 0.043354 -0.116019
C72   C     C_R   0.045329 0.568784 0.043354 -0.116018
C73   C     C_R   0.954671 0.431216 0.956645 -0.116018
C74   C     C_R   0.454616 0.103906 0.956594 -0.126402
C75   C     C_R   0.545384 0.896094 0.043406 -0.126402
C76   C     C_R   0.545384 0.103906 0.043406 -0.126401
C77   C     C_R   0.454616 0.896094 0.956594 -0.126401
C78   C     C_R   0.954616 0.603906 0.956594 -0.126401
C79   C     C_3   0.707247 0.759741 0.939368 -0.099932
C80   C     C_R   0.045384 0.396094 0.043406 -0.126402
C81   C     C_R   0.045384 0.603906 0.043406 -0.126401
C82   C     C_R   0.954616 0.396094 0.956594 -0.126402
C83   C     C_R   0.500000 0.121819 1.000000 0.032007
C84   C     C_R   0.500000 0.878181 1.000000 0.032007
C85   C     C_R   1.000000 0.621819 1.000000 0.032006
C86   C     C_R   0.000000 0.378181 1.000000 0.032007
C87   C     C_R   0.500000 0.051207 1.000000 0.037679
C88   C     C_R   0.500000 0.948793 1.000000 0.037679
C89   C     C_R   1.000000 0.551207 1.000000 0.037679
C90   C     C_3   0.292746 0.240237 0.060618 -0.099933
C91   C     C_R   1.000000 0.448793 1.000000 0.037679
C92   C     C_1   0.500000 0.015126 1.000000 -0.029424
C93   C     C_1   0.500000 0.984874 1.000000 -0.029424
C94   C     C_1   1.000000 0.515126 1.000000 -0.029424
C95   C     C_1   1.000000 0.484874 1.000000 -0.029424
C96   C     C_3   0.283577 0.712846 0.392987 -0.312000
C97   C     C_3   0.716446 0.287203 0.607000 -0.312005
C98   C     C_3   0.716422 0.712849 0.607013 -0.312000
C99   C     C_3   0.283579 0.287151 0.392989 -0.312000
C100  C     C_3   0.783580 0.212851 0.392988 -0.312001
C101  C     C_3   0.292646 0.760066 0.060420 -0.099937
C102  C     C_3   0.216446 0.787197 0.607021 -0.312002
C103  C     C_3   0.216426 0.212841 0.607012 -0.312001
C104  C     C_3   0.783585 0.787140 0.392990 -0.312001
C105  C     C_R   0.599845 0.250028 0.000006 0.507310
C106  C     C_3   0.707349 0.239946 0.939572 -0.099936
C107  C     C_3   0.207254 0.259763 0.939382 -0.099932
C108  C     C_3   0.792753 0.740259 0.060632 -0.099932
C109  C     C_3   0.792651 0.260054 0.060428 -0.099937
C110  C     C_3   0.207353 0.739934 0.939580 -0.099936
C111  C     C_1   0.639590 0.749997 0.000046 -0.004631
C112  C     C_1   0.360410 0.250003 0.999954 -0.004632
C113  C     C_1   0.360410 0.749997 0.999954 -0.004632
C114  C     C_1   0.639590 0.250003 0.000046 -0.004632
C115  C     C_1   0.139590 0.249997 0.000046 -0.004631
C116  C     C_R   0.599845 0.749972 0.000006 0.507310
C117  C     C_1   0.860410 0.750003 0.999954 -0.004632
C118  C     C_1   0.860410 0.249997 0.999954 -0.004632
C119  C     C_1   0.139590 0.750003 0.000046 -0.004632
C120  C     C_3   0.761283 0.771408 0.047190 -0.099424
C121  C     C_3   0.238702 0.228608 0.952780 -0.099424
C122  C     C_3   0.238489 0.771154 0.952355 -0.099428
C123  C     C_3   0.761503 0.228836 0.047629 -0.099428
C124  C     C_3   0.261298 0.271391 0.047220 -0.099424
C125  C     C_3   0.738717 0.728592 0.952810 -0.099424
C126  C     C_3   0.738497 0.271164 0.952371 -0.099427
C127  C     C_R   0.400155 0.250028 0.999994 0.507309
C128  C     C_3   0.261511 0.728846 0.047645 -0.099427
C129  C     C_3   0.713552 0.750005 0.000029 0.049265
C130  C     C_3   0.286448 0.249995 0.999971 0.049265
C131  C     C_3   0.286448 0.750005 0.999971 0.049265
C132  C     C_3   0.713552 0.249995 0.000029 0.049265
C133  C     C_3   0.213552 0.250005 0.000029 0.049265
C134  C     C_3   0.786448 0.749995 0.999971 0.049265
C135  C     C_3   0.786448 0.250005 0.999971 0.049265
C136  C     C_3   0.213552 0.749995 0.000029 0.049265
C137  C     C_1   0.672989 0.750005 0.000050 -0.059473
C138  C     C_R   0.900155 0.249972 0.999994 0.507310
C139  C     C_1   0.327011 0.249994 0.999950 -0.059473
C140  C     C_1   0.327011 0.750006 0.999950 -0.059473
C141  C     C_1   0.672989 0.249994 0.000050 -0.059473
C142  C     C_1   0.172989 0.250005 0.000050 -0.059472
C143  C     C_1   0.827011 0.749994 0.999950 -0.059473
C144  C     C_1   0.827011 0.250006 0.999950 -0.059472
C145  C     C_1   0.172989 0.749994 0.000050 -0.059473
C146  C     C_R   0.157982 0.770803 0.362626 -0.145996
C147  C     C_R   0.842005 0.229185 0.637374 -0.145995
C148  C     C_R   0.842018 0.770803 0.637374 -0.145996
C149  C     C_R   0.099845 0.750027 0.000006 0.507310
C150  C     C_R   0.157982 0.229197 0.362626 -0.145996
C151  C     C_R   0.657983 0.270804 0.362626 -0.145997
C152  C     C_R   0.342007 0.729186 0.637374 -0.145994
C153  C     C_R   0.342016 0.270805 0.637374 -0.145995
C154  C     C_R   0.657979 0.729200 0.362626 -0.145995
C155  C     C_R   0.122856 0.771243 0.292527 -0.141220
C156  C     C_R   0.877131 0.228745 0.707473 -0.141219
C157  C     C_R   0.877144 0.771243 0.707473 -0.141219
C158  C     C_R   0.122856 0.228757 0.292527 -0.141219
C159  C     C_R   0.622856 0.271243 0.292527 -0.141220
C160  C     C_R   0.099845 0.249972 0.000006 0.507311
C161  C     C_R   0.377133 0.728747 0.707473 -0.141220
C162  C     C_R   0.377142 0.271245 0.707473 -0.141219
C163  C     C_R   0.622853 0.728760 0.292527 -0.141220
C164  C     C_R   0.128295 0.749744 0.256336 -0.001915
C165  C     C_R   0.871705 0.250256 0.743664 -0.001916
C166  C     C_R   0.871704 0.749744 0.743664 -0.001916
C167  C     C_R   0.128296 0.250256 0.256336 -0.001916
C168  C     C_R   0.628296 0.249745 0.256336 -0.001915
C169  C     C_R   0.371705 0.750256 0.743664 -0.001915
C170  C     C_R   0.371704 0.249744 0.743664 -0.001916
C171  C     C_R   0.900155 0.750027 0.999994 0.507309
C172  C     C_R   0.628296 0.750256 0.256336 -0.001916
C173  C     C_R   0.169541 0.727793 0.291555 -0.089630
C174  C     C_R   0.830475 0.272220 0.708445 -0.089630
C175  C     C_R   0.830459 0.727794 0.708445 -0.089630
C176  C     C_R   0.169541 0.272206 0.291555 -0.089630
C177  C     C_R   0.669542 0.227795 0.291555 -0.089630
C178  C     C_R   0.330471 0.772217 0.708445 -0.089630
C179  C     C_R   0.330461 0.227792 0.708445 -0.089630
C180  C     C_R   0.669544 0.772203 0.291555 -0.089630
C181  C     C_R   0.591100 0.749999 0.182151 0.502337
C182  C     C_3   0.255645 0.281150 0.986573 -0.099710
C183  C     C_R   0.408900 0.250001 0.817849 0.502337
C184  C     C_R   0.408901 0.749999 0.817849 0.502338
C185  C     C_R   0.591099 0.250001 0.182151 0.502337
C186  C     C_R   0.091099 0.249999 0.182151 0.502337
C187  C     C_R   0.908900 0.750001 0.817849 0.502337
C188  C     C_R   0.908901 0.249999 0.817849 0.502338
C189  C     C_R   0.091099 0.750001 0.182151 0.502337
C190  C     C_R   0.205155 0.727226 0.362018 0.155892
C191  C     C_R   0.794861 0.272788 0.637982 0.155889
C192  C     C_R   0.794844 0.727227 0.637982 0.155891
H1    H     H_    0.496401 0.383029 0.077187 0.132433
H2    H     H_    0.328379 0.232212 0.110443 0.106973
H3    H     H_    0.766542 0.214676 0.340002 0.151447
H4    H     H_    0.238583 0.802781 0.556572 0.255369
H5    H     H_    0.187250 0.807086 0.581707 0.140822
H6    H     H_    0.233487 0.785382 0.660010 0.151446
H7    H     H_    0.198414 0.762872 0.581028 0.145844
H8    H     H_    0.238562 0.197232 0.556574 0.255369
H9    H     H_    0.187221 0.192958 0.581700 0.140824
H10   H     H_    0.198406 0.237166 0.581012 0.145845
H11   H     H_    0.233464 0.214664 0.659999 0.151450
H12   H     H_    0.761450 0.802761 0.443425 0.255368
H13   H     H_    0.328197 0.768340 0.110082 0.106972
H14   H     H_    0.812795 0.807019 0.418302 0.140825
H15   H     H_    0.766547 0.785313 0.340004 0.151451
H16   H     H_    0.801598 0.762813 0.418992 0.145846
H17   H     H_    0.671795 0.231682 0.889903 0.106973
H18   H     H_    0.171621 0.267788 0.889557 0.106974
H19   H     H_    0.828391 0.732251 0.110469 0.106973
H20   H     H_    0.828205 0.268318 0.110097 0.106972
H21   H     H_    0.171802 0.731660 0.889918 0.106973
H22   H     H_    0.174029 0.710793 0.264399 0.143758
H23   H     H_    0.825998 0.289230 0.735600 0.143760
H24   H     H_    0.825970 0.710794 0.735601 0.143758
H25   H     H_    0.503599 0.616971 0.922813 0.132432
H26   H     H_    0.174030 0.289206 0.264399 0.143759
H27   H     H_    0.674030 0.210794 0.264399 0.143758
H28   H     H_    0.325993 0.789226 0.735601 0.143754
H29   H     H_    0.325974 0.210790 0.735601 0.143758
H30   H     H_    0.674036 0.789201 0.264399 0.143760
H31   H     H_    0.419396 0.055348 0.922906 0.110937
H32   H     H_    0.580604 0.944652 0.077094 0.110937
H33   H     H_    0.580604 0.055348 0.077094 0.110937
H34   H     H_    0.419396 0.944651 0.922906 0.110937
H35   H     H_    0.919396 0.555348 0.922906 0.110937
H36   H     H_    0.503599 0.383029 0.922813 0.132432
H37   H     H_    0.080604 0.444651 0.077094 0.110937
H38   H     H_    0.080604 0.555348 0.077094 0.110937
H39   H     H_    0.919396 0.444651 0.922906 0.110937
H40   H     H_    0.496413 0.444680 0.076890 0.110002
H41   H     H_    0.503587 0.555319 0.923110 0.110002
H42   H     H_    0.503587 0.444680 0.923110 0.110002
H43   H     H_    0.496413 0.555319 0.076890 0.110002
H44   H     H_    0.996413 0.944681 0.076890 0.110002
H45   H     H_    0.003587 0.055319 0.923110 0.110002
H46   H     H_    0.003587 0.944680 0.923110 0.110002
H47   H     H_    0.496401 0.616971 0.077187 0.132432
H48   H     H_    0.996413 0.055319 0.076890 0.110002
H49   H     H_    0.419089 0.117005 0.922611 0.133410
H50   H     H_    0.580911 0.882995 0.077389 0.133411
H51   H     H_    0.580911 0.117005 0.077389 0.133412
H52   H     H_    0.419089 0.882995 0.922611 0.133410
H53   H     H_    0.919089 0.617005 0.922611 0.133410
H54   H     H_    0.080911 0.382995 0.077389 0.133410
H55   H     H_    0.080911 0.617005 0.077389 0.133412
H56   H     H_    0.919089 0.382995 0.922611 0.133410
H57   H     H_    0.260782 0.306753 0.975535 0.107342
H58   H     H_    0.996401 0.883029 0.077187 0.132433
H59   H     H_    0.739259 0.693256 0.024546 0.107342
H60   H     H_    0.738672 0.306868 0.023374 0.107353
H61   H     H_    0.261351 0.693128 0.976671 0.107353
H62   H     H_    0.760741 0.806744 0.975454 0.107342
H63   H     H_    0.239218 0.193247 0.024465 0.107342
H64   H     H_    0.238649 0.806872 0.023329 0.107353
H65   H     H_    0.761328 0.193132 0.976626 0.107353
H66   H     H_    0.229914 0.211026 0.913967 0.107352
H67   H     H_    0.770058 0.789004 0.085977 0.107354
H68   H     H_    0.770459 0.211441 0.086777 0.107340
H69   H     H_    0.003599 0.116971 0.922813 0.132433
H70   H     H_    0.229526 0.788541 0.913193 0.107339
H71   H     H_    0.729942 0.710996 0.914022 0.107354
H72   H     H_    0.270086 0.288974 0.086033 0.107352
H73   H     H_    0.270474 0.711458 0.086807 0.107339
H74   H     H_    0.729541 0.288559 0.913223 0.107340
H75   H     H_    0.153196 0.787654 0.389675 0.113291
H76   H     H_    0.846781 0.212324 0.610325 0.113290
H77   H     H_    0.846805 0.787653 0.610325 0.113291
H78   H     H_    0.153195 0.212347 0.389674 0.113291
H79   H     H_    0.653196 0.287654 0.389675 0.113291
H80   H     H_    0.003599 0.883029 0.922813 0.132432
H81   H     H_    0.346784 0.712328 0.610325 0.113290
H82   H     H_    0.346801 0.287656 0.610325 0.113291
H83   H     H_    0.653189 0.712352 0.389674 0.113291
H84   H     H_    0.091453 0.788416 0.266699 0.139801
H85   H     H_    0.908522 0.211562 0.733301 0.139801
H86   H     H_    0.908547 0.788415 0.733301 0.139802
H87   H     H_    0.091452 0.211585 0.266699 0.139802
H88   H     H_    0.591453 0.288415 0.266699 0.139801
H89   H     H_    0.408527 0.711567 0.733301 0.139800
H90   H     H_    0.408544 0.288418 0.733301 0.139802
H91   H     H_    0.996401 0.116971 0.077187 0.132432
H92   H     H_    0.591447 0.711590 0.266699 0.139803
H93   H     H_    0.261442 0.697234 0.443426 0.255367
H94   H     H_    0.312783 0.692964 0.418300 0.140824
H95   H     H_    0.301595 0.737172 0.418986 0.145846
H96   H     H_    0.266538 0.714670 0.340000 0.151446
H97   H     H_    0.738603 0.302794 0.556578 0.255370
H98   H     H_    0.687257 0.307096 0.581694 0.140825
H99   H     H_    0.733478 0.285377 0.659984 0.151453
H100  H     H_    0.698407 0.262883 0.580987 0.145843
H101  H     H_    0.738556 0.697235 0.556574 0.255368
H102  H     H_    0.671609 0.767748 0.889531 0.106973
H103  H     H_    0.687214 0.692967 0.581700 0.140824
H104  H     H_    0.698405 0.737175 0.581013 0.145845
H105  H     H_    0.733460 0.714673 0.660000 0.151450
H106  H     H_    0.261443 0.302765 0.443425 0.255368
H107  H     H_    0.312785 0.307033 0.418301 0.140825
H108  H     H_    0.266541 0.285326 0.340002 0.151450
H109  H     H_    0.301596 0.262825 0.418990 0.145845
H110  H     H_    0.761445 0.197236 0.443425 0.255367
H111  H     H_    0.812787 0.192970 0.418301 0.140824
H112  H     H_    0.801597 0.237177 0.418989 0.145846
N1    N     N_2   0.246075 0.704258 0.395933 -0.520830
N2    N     N_2   0.753959 0.295771 0.604067 -0.520833
N3    N     N_2   0.753923 0.704259 0.604066 -0.520831
N4    N     N_2   0.246076 0.295741 0.395934 -0.520831
N5    N     N_2   0.746078 0.204260 0.395934 -0.520831
N6    N     N_2   0.253949 0.795764 0.604066 -0.520829
N7    N     N_2   0.253928 0.204255 0.604066 -0.520831
N8    N     N_2   0.746083 0.795735 0.395934 -0.520832
O1    O     O_3   0.500000 0.749970 0.000000 -0.427383
O2    O     O_R   0.101800 0.730420 0.039220 -0.538707
O3    O     O_R   0.101800 0.269580 0.039220 -0.538708
O4    O     O_R   0.898200 0.730420 0.960780 -0.538707
O5    O     O_R   0.553280 0.730340 0.149660 -0.542554
O6    O     O_R   0.446720 0.269660 0.850340 -0.542554
O7    O     O_R   0.446720 0.730340 0.850340 -0.542554
O8    O     O_R   0.553280 0.269660 0.149660 -0.542555
O9    O     O_R   0.053280 0.230340 0.149660 -0.542554
O10   O     O_R   0.946720 0.769660 0.850340 -0.542554
O11   O     O_R   0.946720 0.230340 0.850340 -0.542554
O12   O     O_3   0.500000 0.250030 0.000000 -0.427383
O13   O     O_R   0.053280 0.769660 0.149660 -0.542555
O14   O     O_R   0.498080 0.675140 0.039250 -0.546175
O15   O     O_R   0.501920 0.324860 0.960750 -0.546175
O16   O     O_R   0.501920 0.675140 0.960750 -0.546176
O17   O     O_R   0.498080 0.324860 0.039250 -0.546174
O18   O     O_R   0.998080 0.175140 0.039250 -0.546175
O19   O     O_R   0.001920 0.824860 0.960750 -0.546175
O20   O     O_R   0.001920 0.175140 0.960750 -0.546176
O21   O     O_R   0.998080 0.824860 0.039250 -0.546174
O22   O     O_R   0.458830 0.824790 0.960760 -0.545179
O23   O     O_3   0.000000 0.249970 0.000000 -0.427383
O24   O     O_R   0.541170 0.175210 0.039240 -0.545177
O25   O     O_R   0.541170 0.824790 0.039240 -0.545177
O26   O     O_R   0.458830 0.175210 0.960760 -0.545178
O27   O     O_R   0.958830 0.324790 0.960760 -0.545179
O28   O     O_R   0.041170 0.675210 0.039240 -0.545177
O29   O     O_R   0.041170 0.324790 0.039240 -0.545178
O30   O     O_R   0.958830 0.675210 0.960760 -0.545178
O31   O     O_R   0.596370 0.769570 0.149640 -0.548311
O32   O     O_R   0.403630 0.230430 0.850360 -0.548311
O33   O     O_R   0.403630 0.769570 0.850360 -0.548312
O34   O     O_3   0.000000 0.750030 0.000000 -0.427383
O35   O     O_R   0.596370 0.230430 0.149640 -0.548311
O36   O     O_R   0.096370 0.269570 0.149640 -0.548311
O37   O     O_R   0.903630 0.730430 0.850360 -0.548311
O38   O     O_R   0.903630 0.269570 0.850360 -0.548312
O39   O     O_R   0.096370 0.730430 0.149640 -0.548312
O40   O     O_R   0.437440 0.730340 0.039250 -0.537726
O41   O     O_R   0.562560 0.269660 0.960750 -0.537726
O42   O     O_R   0.562560 0.730340 0.960750 -0.537724
O43   O     O_R   0.437440 0.269660 0.039250 -0.537726
O44   O     O_R   0.937440 0.230340 0.039250 -0.537726
O45   O     O_R   0.398200 0.769580 0.960780 -0.538706
O46   O     O_R   0.062560 0.769660 0.960750 -0.537726
O47   O     O_R   0.062560 0.230340 0.960750 -0.537724
O48   O     O_R   0.937440 0.769660 0.039250 -0.537726
O49   O     O_R   0.601800 0.230420 0.039220 -0.538707
O50   O     O_R   0.601800 0.769580 0.039220 -0.538708
O51   O     O_R   0.398200 0.230420 0.960780 -0.538707
O52   O     O_R   0.898200 0.269580 0.960780 -0.538705
Zn1   Zn    Zn3+2 0.558810 0.777990 0.056050 0.936998
Zn2   Zn    Zn3+2 0.502750 0.278070 0.943930 0.937267
Zn3   Zn    Zn3+2 0.502750 0.721930 0.943930 0.937268
Zn4   Zn    Zn3+2 0.497250 0.278070 0.056070 0.937267
Zn5   Zn    Zn3+2 0.997250 0.221930 0.056070 0.937267
Zn6   Zn    Zn3+2 0.002750 0.778070 0.943930 0.937267
Zn7   Zn    Zn3+2 0.002750 0.221930 0.943930 0.937268
Zn8   Zn    Zn3+2 0.997250 0.778070 0.056070 0.937267
Zn9   Zn    Zn3+2 0.441190 0.222010 0.943950 0.936997
Zn10  Zn    Zn3+2 0.441190 0.777990 0.943950 0.936996
Zn11  Zn    Zn3+2 0.558810 0.222010 0.056050 0.936998
Zn12  Zn    Zn3+2 0.058810 0.277990 0.056050 0.936997
Zn13  Zn    Zn3+2 0.941190 0.722010 0.943950 0.936997
Zn14  Zn    Zn3+2 0.941190 0.277990 0.943950 0.936997
Zn15  Zn    Zn3+2 0.058810 0.722010 0.056050 0.936998
Zn16  Zn    Zn3+2 0.497250 0.721930 0.056070 0.937267

loop_
_geom_bond_atom_site_label_1
_geom_bond_atom_site_label_2
_ccdc_geom_bond_type
C119  C149  S    
C62   C83   S    
C6    C179  A    
C18   C21   T    
C81   H55   S    
C112  C139  T    
C4    C177  A    
O28   Zn15  S    
C106  C132  S    
C59   O18   A    
O2    Zn15  S    
C124  C133  S    
C179  H29   S    
C182  H57   S    
H101  N3    S    
C124  H72   S    
C77   H52   S    
C78   H53   S    
C41   H80   S    
C174  H23   S    
C89   C94   S    
C108  C120  S    
C80   C86   A    
C131  C140  S    
C187  O37   A    
C43   C58   S    
C134  C143  S    
C8    C190  A    
C35   H62   S    
C128  H73   S    
C180  H30   S    
C4    C12   A    
C74   C83   A    
C60   O19   A    
C138  O52   A    
C99   H109  S    
C174  C191  A    
C1    C113  S    
C76   C83   A    
C158  C167  A    
C65   C87   A    
C187  O10   A    
C11   C20   S    
O40   Zn16  S    
C24   C110  S    
C122  H70   S    
C181  O5    A    
C188  O11   A    
C100  H112  S    
O47   Zn7   S    
C103  H9    S    
C124  C182  S    
C105  O41   A    
C4    N5    S    
C105  C114  S    
C11   C150  A    
O6    Zn2   S    
C6    N7    S    
C97   N2    S    
C164  C173  A    
C163  C172  A    
C69   C88   A    
C28   H42   S    
C27   C36   A    
C36   C44   A    
C119  C145  T    
C64   C85   S    
C111  C137  T    
C16   C25   S    
O42   Zn3   S    
C98   N3    S    
O52   Zn14  S    
C155  H84   S    
C61   C84   S    
C36   H25   S    
C8    C17   S    
C82   H56   S    
C115  C160  S    
C175  H24   S    
C57   H64   S    
C62   O26   A    
C181  O31   A    
C2    H59   S    
O41   Zn2   S    
C24   C131  S    
C7    N8    S    
C103  N7    S    
O43   Zn4   S    
C59   O20   A    
C2    C108  S    
C13   C132  S    
C51   C55   S    
C146  H75   S    
C60   O21   A    
C160  O47   A    
C3    C11   A    
C47   C59   S    
C3    C176  A    
C48   C52   S    
C129  C137  S    
O33   Zn10  S    
C46   H63   S    
C192  N3    S    
C41   C45   A    
O32   Zn9   S    
C118  C138  S    
C63   O29   A    
C10   C148  A    
C123  C132  S    
C109  C135  S    
C69   C77   A    
C98   H103  S    
C61   O22   A    
C69   H34   S    
O20   Zn7   S    
C42   H91   S    
C149  O2    A    
C107  H18   S    
C29   C49   A    
H4    N6    S    
C133  C142  S    
C72   H38   S    
C33   C42   A    
C66   C88   A    
C96   N1    S    
C49   C53   S    
C75   C84   A    
O8    Zn4   S    
C149  O46   A    
C102  N6    S    
C96   H95   S    
C104  H15   S    
C64   O30   A    
O11   Zn7   S    
C29   H43   S    
C112  C127  S    
C13   C109  S    
C160  O3    A    
O48   Zn8   S    
C172  C181  S    
C37   H36   S    
O1    Zn1   S    
C116  O42   A    
C188  O38   A    
C29   C38   A    
C32   C41   A    
O34   Zn8   S    
O21   Zn8   S    
C152  C161  A    
C39   C45   A    
C161  C169  A    
C79   C125  S    
C35   C120  S    
C24   H61   S    
C186  O36   A    
C177  H27   S    
C1    O40   A    
C68   C123  S    
C120  C129  S    
C114  C141  T    
C76   H51   S    
C99   H107  S    
C102  H5    S    
C175  C192  A    
C171  O48   A    
C109  C123  S    
C77   C84   A    
C165  C174  A    
C65   C74   A    
C58   O17   A    
C97   H99   S    
C151  C159  A    
O29   Zn12  S    
C169  C184  S    
O12   Zn9   S    
C40   H69   S    
C127  O51   A    
C20   C23   T    
C6    C15   A    
O23   Zn12  S    
C71   H37   S    
O19   Zn6   S    
C78   C85   A    
C16   C154  A    
C80   H54   S    
C70   C89   A    
C122  C131  S    
C73   H39   S    
C52   C53   T    
C132  C141  S    
C54   C55   T    
C28   C48   A    
O9    Zn5   S    
C148  H77   S    
C68   C135  S    
C8    C146  A    
O44   Zn5   S    
C31   C51   A    
C147  H76   S    
C57   C101  S    
C121  H66   S    
C186  O9    A    
C101  C128  S    
C170  C179  A    
C14   C22   S    
C33   H48   S    
C9    C191  A    
C138  O44   A    
O1    Zn3   S    
C39   H58   S    
C28   C37   A    
H110  N5    S    
C35   C79   S    
C184  O33   A    
C104  N8    S    
C7    C180  A    
C148  C157  A    
O34   Zn6   S    
O7    Zn3   S    
C5    C178  A    
O24   Zn11  S    
C91   C95   S    
C2    C125  S    
C9    C18   S    
C163  H92   S    
C14   C152  A    
C24   C128  S    
C126  H74   S    
C30   H44   S    
C98   H105  S    
C81   C85   A    
C27   C49   A    
O1    Zn10  S    
C125  C134  S    
C102  H7    S    
C189  O39   A    
O13   Zn8   S    
O23   Zn7   S    
O34   Zn15  S    
C190  N1    S    
H93   N1    S    
C166  C175  A    
C50   C54   S    
C191  N2    S    
O5    Zn16  S    
C178  H28   S    
O37   Zn13  S    
C56   O14   A    
C152  H81   S    
C128  C136  S    
O12   Zn11  S    
C68   H65   S    
C161  H89   S    
C67   H33   S    
O39   Zn15  S    
C168  C177  A    
C79   C129  S    
C1    O45   A    
C173  C190  A    
C31   C40   A    
C35   C134  S    
C57   C122  S    
C110  C136  S    
C146  C155  A    
C96   H94   S    
C3    N4    S    
C111  C116  S    
C104  H14   S    
C121  C130  S    
C72   C81   A    
C26   C48   A    
C172  C180  A    
C30   C50   A    
C115  C142  T    
C176  H26   S    
C87   C92   S    
C150  H78   S    
C130  C139  S    
C165  C188  S    
C34   C43   A    
C107  C182  S    
C166  C187  S    
C70   H35   S    
H97   N2    S    
C82   C86   A    
C167  C186  S    
C10   C192  A    
C37   C43   A    
C38   C44   A    
O46   Zn6   S    
C44   C56   S    
C90   H2    S    
C10   C19   S    
C125  H71   S    
O30   Zn13  S    
C99   N4    S    
O12   Zn2   S    
C147  C156  A    
C5    C14   A    
C13   C126  S    
O38   Zn14  S    
C34   H1    S    
C7    C16   A    
C63   O27   A    
C126  C135  S    
O23   Zn5   S    
C63   C86   S    
O34   Zn13  S    
O35   Zn11  S    
C107  C121  S    
C73   C82   A    
C65   H31   S    
O17   Zn4   S    
C100  H3    S    
C64   O28   A    
C150  C158  A    
O22   Zn10  S    
C90   C124  S    
C98   H104  S    
H8    N7    S    
C56   O16   A    
C46   C90   S    
C123  H68   S    
C33   C51   A    
C120  H67   S    
C106  C126  S    
C17   C22   T    
C153  C162  A    
C100  H111  S    
C173  H22   S    
C103  H10   S    
C107  C133  S    
C75   H50   S    
C110  C122  S    
C46   C133  S    
C100  N5    S    
C106  H17   S    
C32   H46   S    
C156  C165  A    
C66   C75   A    
C92   C93   T    
C96   H96   S    
C104  H16   S    
O27   Zn14  S    
C94   C95   T    
C90   C130  S    
O14   Zn16  S    
C71   C91   A    
C189  O13   A    
C185  O35   A    
C105  O49   A    
H106  N4    S    
O50   Zn1   S    
C40   C47   A    
C45   C60   S    
O3    Zn12  S    
C170  C183  S    
C70   C78   A    
C2    C129  S    
C127  O43   A    
O45   Zn10  S    
C117  C143  T    
C118  C144  T    
C102  H6    S    
C79   H102  S    
O15   Zn2   S    
C159  C168  A    
C97   H98   S    
O12   Zn4   S    
O4    Zn13  S    
C117  C171  S    
C99   H108  S    
C157  H86   S    
C74   H49   S    
C26   C34   A    
C162  C170  A    
C108  C134  S    
C30   C39   A    
C46   C121  S    
C153  H82   S    
C109  H20   S    
C136  C145  S    
C15   C23   S    
C38   H47   S    
O16   Zn3   S    
C61   O25   A    
C159  H88   S    
C12   C151  A    
C68   C106  S    
C71   C80   A    
C162  H90   S    
O23   Zn14  S    
C15   C153  A    
C183  O6    A    
C154  C163  A    
C110  H21   S    
C73   C91   A    
C66   H32   S    
C130  C182  S    
C183  O32   A    
C26   H40   S    
O18   Zn5   S    
C12   C21   S    
C9    C147  A    
C113  C140  T    
C57   C136  S    
C32   C50   A    
C101  H13   S    
C62   O24   A    
C135  C144  S    
O25   Zn1   S    
C58   O15   A    
H12   N8    S    
C164  C189  S    
C101  C131  S    
C169  C178  A    
C108  H19   S    
C116  O50   A    
C13   H60   S    
C88   C93   S    
C168  C185  S    
O10   Zn6   S    
C157  C166  A    
O31   Zn1   S    
C155  C164  A    
C67   C87   A    
C97   H100  S    
O36   Zn12  S    
C184  O7    A    
C156  H85   S    
O1    Zn16  S    
C72   C89   A    
C151  H79   S    
C158  H87   S    
C171  O4    A    
C42   C47   A    
C31   H45   S    
C154  H83   S    
C19   C25   T    
C103  H11   S    
C27   H41   S    
C5    N6    S    
C185  O8    A    
O49   Zn11  S    
C67   C76   A    
O26   Zn9   S    
O51   Zn9   S    
C167  C176  A    
