data_mof_unit_16696.cif
_audit_creation_date              2012-12-10T17:54:17-0500
_audit_creation_method            fapswitch 2.2
_symmetry_space_group_name_H-M    P1
_symmetry_Int_Tables_number       1
_space_group_crystal_system       triclinic
_cell_length_a                    27.728018
_cell_length_b                    10.6177
_cell_length_c                    9.9113
_cell_angle_alpha                 89.886834
_cell_angle_beta                  90.108557
_cell_angle_gamma                 91.655607
_cell_volume                      2916.73506257

loop_
_atom_site_label
_atom_site_type_symbol
_atom_type_description
_atom_site_fract_x
_atom_site_fract_y
_atom_site_fract_z
_atom_type_partial_charge
C1    C     C_R   0.501262 0.260736 0.500147 0.856248
C2    C     C_R   0.972248 0.369041 0.489916 0.075581
C3    C     C_R   0.976100 0.600530 0.509994 0.048269
C4    C     C_R   0.406088 0.498789 0.499818 0.867254
C5    C     C_R   0.948933 0.485695 0.500918 0.072985
C6    C     C_R   0.943681 0.256443 0.493051 -0.205593
C7    C     C_R   0.893722 0.259107 0.497137 -0.133134
C8    C     C_R   0.870460 0.373880 0.499664 -0.022568
C9    C     C_R   0.897913 0.487545 0.502601 -0.055634
C10   C     C_R   0.874253 0.603088 0.507001 -0.020703
C11   C     C_R   0.823827 0.602771 0.507410 0.506054
C12   C     C_R   0.277719 0.483361 0.619935 -0.093479
C13   C     C_R   0.820090 0.377972 0.500554 0.506506
C14   C     C_R   0.721923 0.481290 0.380950 -0.106054
C15   C     C_R   0.671871 0.484135 0.379657 -0.206496
C16   C     C_R   0.501404 0.739432 0.499850 0.878917
C17   C     C_R   0.671921 0.510756 0.623231 -0.236213
C18   C     C_R   0.721973 0.508312 0.624050 -0.107469
C19   C     C_R   0.746851 0.493381 0.503038 0.328774
C20   C     C_R   0.023168 0.368491 0.477602 -0.012736
C21   C     C_R   0.050459 0.481525 0.496540 0.080176
C22   C     C_R   0.027042 0.597341 0.517238 0.063682
C23   C     C_R   0.252809 0.481523 0.497214 0.262699
C24   C     C_R   0.047442 0.258618 0.442770 -0.298481
C25   C     C_R   0.105218 0.703336 0.546812 -0.083365
C26   C     C_R   0.951237 0.715055 0.510406 -0.204749
C27   C     C_R   0.901247 0.716013 0.509279 -0.131911
C28   C     C_R   0.593895 0.500120 0.500183 0.840755
C29   C     C_R   0.055446 0.706340 0.546055 -0.211367
C30   C     C_R   0.582374 0.137198 0.623772 -0.174805
C31   C     C_R   0.620365 0.074180 0.683517 -0.111264
C32   C     C_R   0.620422 0.943117 0.683213 -0.119529
C33   C     C_R   0.582504 0.874626 0.623088 -0.190172
C34   C     C_R   0.101554 0.479031 0.495263 -0.095035
C35   C     C_R   0.543403 0.937123 0.563335 0.094070
C36   C     C_R   0.543325 0.069116 0.563704 0.096655
C37   C     C_R   0.504540 0.128690 0.500022 -0.088758
C38   C     C_R   0.467936 0.061997 0.432849 -0.206938
C39   C     C_R   0.468022 0.933383 0.432492 -0.186869
C40   C     C_R   0.176656 0.368518 0.476477 0.560026
C41   C     C_R   0.504704 0.871967 0.499317 -0.102602
C42   C     C_R   0.436461 0.335641 0.140126 -0.164934
C43   C     C_R   0.405083 0.254836 0.069958 -0.186717
C44   C     C_R   0.405130 0.254643 0.930303 -0.177686
C45   C     C_R   0.125639 0.365145 0.469193 -0.155632
C46   C     C_R   0.436549 0.335272 0.860000 -0.160363
C47   C     C_R   0.468712 0.418886 0.927711 0.168925
C48   C     C_R   0.468694 0.419003 0.072319 0.172548
C49   C     C_R   0.529977 0.577441 0.071480 -0.110716
C50   C     C_R   0.529960 0.577428 0.928346 -0.111204
C51   C     C_R   0.178713 0.589670 0.519693 0.526264
C52   C     C_R   0.278041 0.484942 0.374491 0.042289
C53   C     C_R   0.328250 0.490811 0.375841 -0.250740
C54   C     C_R   0.327801 0.489218 0.621080 -0.208483
C55   C     C_1   0.252792 0.483914 0.247034 0.212806
C56   C     C_R   0.097628 0.254815 0.436630 0.442581
C57   C     C_R   0.128559 0.591378 0.520451 -0.005464
C58   C     C_R   0.353376 0.493506 0.499036 -0.054874
C59   C     C_R   0.646538 0.498657 0.500923 -0.038863
H1    H     H_    0.346392 0.490497 0.717295 0.171050
H2    H     H_    0.650072 0.127255 0.728989 0.152776
H3    H     H_    0.258114 0.480853 0.714352 0.155006
H4    H     H_    0.650169 0.894351 0.728465 0.149897
H5    H     H_    0.584599 0.773102 0.622167 0.142950
H6    H     H_    0.438876 0.881335 0.382589 0.161512
H7    H     H_    0.554476 0.640729 0.125210 0.149738
H8    H     H_    0.434378 0.329863 0.247090 0.200064
H9    H     H_    0.380642 0.191830 0.124475 0.164673
H10   H     H_    0.380719 0.191484 0.875902 0.167396
H11   H     H_    0.434565 0.329144 0.753017 0.204923
H12   H     H_    0.125392 0.789735 0.569099 0.222932
H13   H     H_    0.554438 0.640727 0.874507 0.143558
H14   H     H_    0.653103 0.474363 0.284155 0.163071
H15   H     H_    0.741419 0.469945 0.287393 0.136287
H16   H     H_    0.873388 0.170416 0.498411 0.193060
H17   H     H_    0.958902 0.164199 0.496296 0.142523
H18   H     H_    0.027521 0.174657 0.413868 0.178271
H19   H     H_    0.347573 0.493515 0.280817 0.169251
H20   H     H_    0.065577 0.967194 0.405842 0.337431
H21   H     H_    0.969364 0.806160 0.507908 0.140838
H22   H     H_    0.653206 0.522369 0.718015 0.160105
H23   H     H_    0.883839 0.806079 0.509938 0.189371
H24   H     H_    0.741492 0.517822 0.718387 0.136241
H25   H     H_    0.040282 0.795240 0.572365 0.137920
H26   H     H_    0.438746 0.109786 0.383094 0.144974
H27   H     H_    0.584371 0.238979 0.623476 0.154910
N1    N     N_R   0.201359 0.479685 0.498117 -0.369315
N2    N     N_R   0.798110 0.491284 0.503950 -0.359492
N3    N     N_R   0.499540 0.498800 0.142780 -0.122353
N4    N     N_R   0.499520 0.498720 0.857170 -0.121511
N5    N     N_1   0.232518 0.483026 0.144883 -0.158992
O1    O     O_R   0.500000 0.316780 0.614690 -0.639984
O2    O     O_R   0.571250 0.499990 0.614680 -0.635733
O3    O     O_R   0.571240 0.499970 0.385350 -0.615114
O4    O     O_2   0.201964 0.262854 0.465121 -0.451129
O5    O     O_2   0.156506 0.136461 0.265793 -0.192207
O6    O     O_2   0.148407 0.048901 0.493860 -0.253022
O7    O     O_3   0.078375 0.010051 0.324006 -0.542901
O8    O     O_2   0.793193 0.269966 0.498082 -0.551516
O9    O     O_2   0.204948 0.697095 0.540387 -0.515651
O10   O     O_2   0.800555 0.712669 0.510714 -0.551978
O11   O     O_R   0.500000 0.316750 0.385360 -0.628547
O12   O     O_R   0.428760 0.500030 0.614650 -0.635296
O13   O     O_R   0.428750 0.500010 0.385320 -0.640049
O14   O     O_R   0.500000 0.683250 0.614640 -0.612224
O15   O     O_R   0.500000 0.683220 0.385310 -0.609902
S1    S     S_3+6 0.121983 0.110606 0.379968 0.081352
Zn1   Zn    Zn3+2 0.500000 0.500020 0.653130 0.937078
Zn2   Zn    Zn3+2 0.500000 0.499980 0.346870 0.945297

loop_
_geom_bond_atom_site_label_1
_geom_bond_atom_site_label_2
_ccdc_geom_bond_type
C10   C27   A    
C8    C13   A    
C22   C29   A    
C31   H2    S    
H20   O7    S    
C35   C36   A    
C7    C8    A    
C39   C41   A    
C54   H1    S    
C12   C23   A    
C26   C27   A    
C14   H15   S    
C40   N1    A    
C36   C37   A    
O11   Zn2   S    
O2    Zn1   S    
O13   Zn2   S    
C4    O12   A    
N3    Zn2   S    
C28   O3    A    
C18   C19   A    
C50   H13   S    
C55   N5    T    
C50   N4    A    
C20   C24   A    
C45   C56   A    
C44   C46   A    
C43   H9    S    
C34   C57   A    
O12   Zn1   S    
C25   H12   S    
C30   H27   S    
C9    C10   A    
C52   C55   S    
C16   O15   A    
C23   N1    S    
C21   C22   A    
C39   H6    S    
C2    C6    A    
C25   C57   A    
O1    Zn1   S    
C17   C18   A    
C27   H23   S    
C25   C29   A    
C40   C45   A    
O14   Zn1   S    
C49   H7    S    
C38   H26   S    
C2    C20   A    
C47   C48   A    
C29   H25   S    
C19   N2    S    
C51   N1    A    
C8    C9    A    
C7    H16   S    
C21   C34   A    
C26   H21   S    
O7    S1    S    
C28   O2    A    
C13   O8    S    
C43   C44   A    
C56   S1    S    
C5    C9    A    
C37   C38   A    
C12   H3    S    
C31   C32   A    
C11   N2    A    
C18   H24   S    
C44   H10   S    
C11   O10   S    
C34   C45   A    
C42   C48   A    
C16   O14   A    
C17   C59   A    
C51   C57   A    
C15   H14   S    
O5    S1    D    
C1    O1    A    
C48   N3    A    
C42   H8    S    
C47   N4    A    
C2    C5    A    
C42   C43   A    
C40   O4    S    
C52   C53   A    
C54   C58   A    
C28   C59   S    
C51   O9    S    
C46   C47   A    
C15   C59   A    
C14   C19   A    
C3    C26   A    
C32   H4    S    
C49   N3    A    
C3    C5    A    
C53   C58   A    
C6    H17   S    
C6    C7    A    
C1    C37   S    
C24   C56   A    
O3    Zn2   S    
C30   C36   A    
C32   C33   A    
C53   H19   S    
N4    Zn1   S    
C30   C31   A    
C23   C52   A    
C38   C39   A    
C33   H5    S    
C4    O13   A    
C13   N2    A    
C33   C35   A    
C17   H22   S    
C35   C41   A    
C46   H11   S    
C10   C11   A    
O6    S1    D    
C24   H18   S    
C20   C21   A    
C49   C50   A    
C4    C58   S    
C14   C15   A    
C3    C22   A    
C1    O11   A    
C12   C54   A    
C16   C41   S    
O15   Zn2   S    
