data_mof_unit_46442.cif
_audit_creation_date              2013-03-05T16:25:17-0500
_audit_creation_method            fapswitch 2.2
_symmetry_space_group_name_H-M    P1
_symmetry_Int_Tables_number       1
_space_group_crystal_system       triclinic
_cell_length_a                    15.158981
_cell_length_b                    13.879677
_cell_length_c                    17.747572
_cell_angle_alpha                 90.009241
_cell_angle_beta                  91.955688
_cell_angle_gamma                 90.264928
_cell_volume                      3731.90524445

loop_
_atom_site_label
_atom_site_type_symbol
_atom_site_description
_atom_site_fract_x
_atom_site_fract_y
_atom_site_fract_z
_atom_type_partial_charge
O1    O     O_R   0.371460 0.581430 0.500010 -0.530258
O2    O     O_R   0.628540 0.418570 0.499990 -0.553167
O3    O     O_R   0.628540 0.581430 0.499990 -0.531407
O4    O     O_R   0.371460 0.418570 0.500010 -0.535519
C1    C     C_R   0.329647 0.499761 0.502181 0.844130
C2    C     C_R   0.670084 0.500240 0.498120 0.866077
O5    O     O_R   0.500000 0.581470 0.391250 -0.577118
O6    O     O_R   0.500000 0.418530 0.608750 -0.537480
O7    O     O_R   0.500000 0.581470 0.608750 -0.587554
O8    O     O_R   0.500000 0.418530 0.391250 -0.538504
C3    C     C_R   0.501017 0.499926 0.355488 0.809365
C4    C     C_R   0.499795 0.499849 0.644358 0.798690
Cu1   Cu    Cu3+1 0.500000 0.596430 0.500000 1.009533
Cu2   Cu    Cu3+1 0.500000 0.403570 0.500000 1.037293
C5    C     C_R   0.474459 0.578570 0.846563 0.104428
C6    C     C_R   0.518749 0.408357 0.155682 0.089221
C7    C     C_R   0.504230 0.585305 0.152683 0.104160
C8    C     C_R   0.539071 0.416242 0.844530 0.097807
C9    C     C_R   0.469528 0.577147 0.767263 -0.237792
C10   C     C_R   0.513213 0.411526 0.234463 -0.190337
C11   C     C_R   0.502455 0.585376 0.231814 -0.217021
C12   C     C_R   0.535262 0.418915 0.765836 -0.217220
H1    H     H_    0.441400 0.636727 0.735681 0.132857
H2    H     H_    0.516099 0.346021 0.267189 0.181136
H3    H     H_    0.499033 0.652222 0.262520 0.145523
H4    H     H_    0.560325 0.358478 0.734673 0.192285
C13   C     C_R   0.501137 0.498699 0.727073 -0.089107
C14   C     C_R   0.504977 0.499111 0.272601 -0.100094
C15   C     C_R   0.508677 0.496576 0.885134 0.077941
C16   C     C_R   0.512185 0.495927 0.114975 0.064174
C17   C     C_1   0.511172 0.494865 0.966207 -0.085366
C18   C     C_1   0.512314 0.494436 0.033856 -0.093973
C19   C     C_R   0.092742 0.576998 0.474391 -0.262388
C20   C     C_R   0.901298 0.420213 0.457808 -0.272251
C21   C     C_R   0.909029 0.571079 0.525901 -0.267937
C22   C     C_R   0.093931 0.411701 0.517003 -0.287089
H5    H     H_    0.056818 0.640387 0.455538 0.150988
H6    H     H_    0.934609 0.363265 0.428569 0.146599
H7    H     H_    0.947711 0.627280 0.553587 0.144212
H8    H     H_    0.056741 0.349516 0.534521 0.148922
C23   C     C_R   0.183727 0.582492 0.484344 0.395058
C24   C     C_R   0.808719 0.421705 0.458988 0.379829
C25   C     C_R   0.817417 0.577519 0.523634 0.381119
C26   C     C_R   0.186900 0.412726 0.522596 0.394251
C27   C     C_R   0.232288 0.498598 0.503612 -0.241162
C28   C     C_R   0.766668 0.500066 0.493731 -0.227356
C29   C     C_R   0.047526 0.492833 0.492049 0.035958
C30   C     C_R   0.951072 0.493849 0.492292 0.036420
C31   C     C_R   0.542544 0.107913 0.557738 -0.393293
C32   C     C_R   0.439045 0.891771 0.455231 -0.410577
C33   C     C_R   0.459526 0.107709 0.440589 -0.401748
C34   C     C_R   0.561791 0.892435 0.543674 -0.394443
H9    H     H_    0.572438 0.071960 0.605974 0.155945
H10   H     H_    0.387723 0.928936 0.423759 0.155387
H11   H     H_    0.431578 0.071390 0.391524 0.154011
H12   H     H_    0.613287 0.928581 0.576198 0.153305
C35   C     C_R   0.547265 0.209636 0.554647 0.577671
C36   C     C_R   0.441995 0.789524 0.452884 0.560609
C37   C     C_R   0.454182 0.209453 0.444133 0.578448
C38   C     C_R   0.556857 0.791058 0.547504 0.550988
N1    N     N_R   0.500000 0.258690 0.500000 -0.231747
N2    N     N_R   0.500000 0.741310 0.500000 -0.248132
C39   C     C_R   0.500887 0.054613 0.499174 0.078648
C40   C     C_R   0.500940 0.945226 0.499012 0.087543
C41   C     C_3   0.445136 0.666044 0.891343 -0.399152
C42   C     C_3   0.412760 0.752899 0.844365 -0.364877
C43   C     C_3   0.391091 0.838161 0.894572 -0.858895
H13   H     H_    0.339886 0.817554 0.934950 0.253787
H14   H     H_    0.451475 0.863196 0.926083 0.256199
H15   H     H_    0.365611 0.898535 0.859152 0.243020
H16   H     H_    0.464860 0.776214 0.805736 0.216309
H17   H     H_    0.352326 0.732629 0.810672 0.218188
H18   H     H_    0.391208 0.643092 0.928380 0.197909
H19   H     H_    0.502032 0.690225 0.927919 0.200403
C44   C     C_3   0.532440 0.313654 0.113800 -0.398445
C45   C     C_3   0.543928 0.223581 0.163722 -0.359265
C46   C     C_3   0.562087 0.134088 0.117036 -0.864845
H20   H     H_    0.507007 0.120704 0.075397 0.260220
H21   H     H_    0.624890 0.142967 0.087332 0.252140
H22   H     H_    0.568480 0.070657 0.154889 0.243762
H23   H     H_    0.600425 0.234205 0.204553 0.224634
H24   H     H_    0.482864 0.210638 0.195065 0.217404
H25   H     H_    0.475254 0.301756 0.073907 0.203847
H26   H     H_    0.592671 0.321521 0.080290 0.200572
C47   C     C_3   0.497769 0.678356 0.106781 -0.395645
C48   C     C_3   0.486896 0.771679 0.152084 -0.373910
C49   C     C_3   0.478127 0.859144 0.100426 -0.855443
H27   H     H_    0.537270 0.866685 0.065588 0.256271
H28   H     H_    0.418198 0.852010 0.063130 0.257404
H29   H     H_    0.471518 0.925146 0.135059 0.243194
H30   H     H_    0.426135 0.766771 0.184921 0.212654
H31   H     H_    0.545042 0.782736 0.191048 0.218847
H32   H     H_    0.558221 0.685199 0.073371 0.199787
H33   H     H_    0.440092 0.671681 0.066694 0.200389
C50   C     C_3   0.578419 0.327457 0.882197 -0.415715
C51   C     C_3   0.516696 0.240029 0.872113 -0.333931
C52   C     C_3   0.562985 0.147064 0.896133 -0.868723
H34   H     H_    0.618378 0.131883 0.858562 0.253785
H35   H     H_    0.589254 0.153163 0.954962 0.260784
H36   H     H_    0.515474 0.085956 0.892463 0.244237
H37   H     H_    0.457682 0.250418 0.906686 0.220117
H38   H     H_    0.494111 0.232306 0.812160 0.226703
H39   H     H_    0.642962 0.312339 0.856883 0.192131
H40   H     H_    0.592746 0.338783 0.943215 0.198710
O9    O     O_3   0.224178 0.670736 0.474031 -0.577931
C53   C     C_3   0.232568 0.719693 0.544145 0.136967
H41   H     H_    0.293461 0.764309 0.543327 0.174619
H42   H     H_    0.241278 0.670268 0.593527 0.104929
C54   C     C_3   0.154128 0.786893 0.555222 -0.402955
H43   H     H_    0.145620 0.835005 0.505457 0.224874
H44   H     H_    0.092852 0.743860 0.560949 0.207281
C55   C     C_3   0.168001 0.848123 0.626068 -0.930020
H45   H     H_    0.177870 0.801329 0.676404 0.255828
H46   H     H_    0.108845 0.893312 0.634090 0.264165
H47   H     H_    0.226432 0.895938 0.620724 0.256425
O10   O     O_3   0.757989 0.356485 0.416530 -0.597840
C56   C     C_3   0.778822 0.259640 0.434353 0.074358
H48   H     H_    0.716614 0.223373 0.449950 0.156359
H49   H     H_    0.826429 0.250646 0.483246 0.109054
C57   C     C_3   0.812900 0.209151 0.364539 -0.334495
H50   H     H_    0.762196 0.213694 0.317916 0.225596
H51   H     H_    0.873788 0.245517 0.345907 0.211012
C58   C     C_3   0.833130 0.103464 0.380597 -0.948748
H52   H     H_    0.884830 0.097329 0.426213 0.260370
H53   H     H_    0.857535 0.068735 0.328991 0.260089
H54   H     H_    0.772506 0.065106 0.397645 0.260512
O11   O     O_3   0.777733 0.657929 0.553572 -0.567803
C59   C     C_3   0.794319 0.740323 0.508521 0.135807
H55   H     H_    0.729685 0.772212 0.491506 0.181472
H56   H     H_    0.828057 0.724878 0.454797 0.095890
C60   C     C_3   0.848419 0.814929 0.554185 -0.356471
H57   H     H_    0.818895 0.825972 0.609720 0.228736
H58   H     H_    0.916879 0.788775 0.564147 0.200488
C61   C     C_3   0.851673 0.911502 0.513393 -0.958506
H59   H     H_    0.881346 0.902707 0.457442 0.264896
H60   H     H_    0.892600 0.963284 0.547295 0.260305
H61   H     H_    0.784097 0.941421 0.505779 0.257191
O12   O     O_3   0.234622 0.337826 0.556751 -0.591552
C62   C     C_3   0.202716 0.244997 0.536501 0.071939
H62   H     H_    0.260850 0.199808 0.524887 0.148941
H63   H     H_    0.160444 0.243901 0.483790 0.113839
C63   C     C_3   0.156228 0.198516 0.602790 -0.337279
H64   H     H_    0.205872 0.182515 0.648582 0.221120
H65   H     H_    0.107130 0.248492 0.626053 0.216786
C64   C     C_3   0.109537 0.105280 0.578783 -0.948681
H66   H     H_    0.057294 0.120267 0.534970 0.253297
H67   H     H_    0.078196 0.072256 0.628226 0.259207
H68   H     H_    0.157584 0.053563 0.556008 0.263364
O13   O     O_3   0.594309 0.261248 0.609641 -0.593788
C65   C     C_3   0.683035 0.229704 0.617814 0.031744
H69   H     H_    0.726780 0.292557 0.607808 0.162755
H70   H     H_    0.701945 0.173122 0.576791 0.111443
C66   C     C_3   0.701098 0.193608 0.698263 -0.359453
H71   H     H_    0.695133 0.254609 0.738172 0.214286
H72   H     H_    0.651676 0.137797 0.712589 0.218781
C67   C     C_3   0.793356 0.150772 0.707541 -0.924252
H73   H     H_    0.799891 0.087419 0.669872 0.255742
H74   H     H_    0.804895 0.126949 0.766769 0.256637
H75   H     H_    0.844110 0.205469 0.693900 0.255773
O14   O     O_3   0.381037 0.735412 0.410267 -0.542156
C68   C     C_3   0.361676 0.774418 0.337909 0.058453
H76   H     H_    0.362021 0.713865 0.297163 0.149791
H77   H     H_    0.412074 0.827020 0.318740 0.106962
C69   C     C_3   0.268467 0.817046 0.334207 -0.315204
H78   H     H_    0.219195 0.757656 0.336432 0.246626
H79   H     H_    0.258044 0.864896 0.383170 0.212716
C70   C     C_3   0.252236 0.874164 0.261634 -0.962207
H80   H     H_    0.299189 0.935714 0.259188 0.262973
H81   H     H_    0.183941 0.902840 0.259916 0.260612
H82   H     H_    0.260458 0.827105 0.211747 0.261730
O15   O     O_3   0.411672 0.261435 0.386951 -0.589176
C71   C     C_3   0.325315 0.226876 0.369195 0.044173
H83   H     H_    0.278643 0.286987 0.378150 0.167164
H84   H     H_    0.303192 0.165939 0.404859 0.104706
C72   C     C_3   0.318660 0.197160 0.286249 -0.362731
H85   H     H_    0.335312 0.259875 0.250364 0.226890
H86   H     H_    0.366530 0.138670 0.275875 0.206576
C73   C     C_3   0.225964 0.161542 0.264189 -0.924035
H87   H     H_    0.208401 0.098032 0.298794 0.257355
H88   H     H_    0.223419 0.140062 0.203883 0.260341
H89   H     H_    0.176989 0.219556 0.272467 0.255089
O16   O     O_3   0.612771 0.741077 0.596735 -0.551116
C74   C     C_3   0.596014 0.765049 0.672709 0.085468
H90   H     H_    0.585206 0.696858 0.703327 0.177129
H91   H     H_    0.535760 0.809786 0.680000 0.096376
C75   C     C_3   0.676492 0.814133 0.710600 -0.362921
H92   H     H_    0.733621 0.764302 0.709783 0.238533
H93   H     H_    0.693619 0.880802 0.679820 0.206744
C76   C     C_3   0.659042 0.840437 0.792271 -0.933802
H94   H     H_    0.603668 0.892410 0.794597 0.257736
H95   H     H_    0.718963 0.874422 0.818592 0.260091
H96   H     H_    0.642518 0.774882 0.824948 0.260961

loop_
_geom_bond_atom_site_label_1
_geom_bond_atom_site_label_2
_geom_bond_distance
_ccdc_geom_bond_type
C36   N2    1.369542 A    
O15   C71   1.417424 S    
C31   C39   1.406051 A    
C51   H38   1.111579 S    
C6    C44   1.528426 S    
C32   C40   1.406474 A    
C21   H7    1.081541 S    
C50   C51   1.535587 S    
C20   C24   1.404507 A    
C49   H27   1.110857 S    
C60   C61   1.524912 S    
C59   H55   1.109468 S    
C64   H68   1.110848 S    
C61   H61   1.111124 S    
C55   H46   1.109815 S    
C73   H87   1.110985 S    
O12   C62   1.416107 S    
C31   C35   1.414526 A    
C58   H52   1.110949 S    
C70   H81   1.110328 S    
C47   C48   1.536905 S    
C57   H50   1.111964 S    
O5    C3    1.297942 A    
C69   H79   1.109641 S    
C32   H10   1.075868 S    
C23   O9    1.382187 S    
O1    C1    1.297373 A    
C69   H78   1.111423 S    
C48   H30   1.108479 S    
C56   H49   1.116911 S    
C64   H66   1.111141 S    
C71   H83   1.111315 S    
C62   C63   1.532813 S    
C44   H26   1.111499 S    
C58   H53   1.110269 S    
C53   H41   1.109679 S    
C6    C16   1.416208 A    
C5    C41   1.527100 S    
C52   H34   1.110823 S    
C41   H18   1.111840 S    
O10   C56   1.415565 S    
C22   C29   1.394739 A    
C38   N2    1.369362 A    
C52   H35   1.107752 S    
C24   C28   1.415104 A    
C76   H95   1.110330 S    
O7    Cu1   1.941219 S    
O16   C74   1.420317 S    
C34   C38   1.410494 A    
C64   H67   1.110125 S    
C5    C9    1.406940 A    
C47   H32   1.112064 S    
C42   H17   1.111839 S    
Cu1   N2    2.010886 S    
C10   H2    1.079211 S    
C57   H51   1.110242 S    
C50   H39   1.111311 S    
C65   C66   1.529495 S    
C35   O13   1.386327 S    
O6    Cu2   1.941152 S    
O11   C59   1.421858 S    
C66   H72   1.110711 S    
C21   C25   1.391242 A    
C33   H11   1.079157 S    
O3    Cu1   1.960588 S    
C57   C58   1.524925 S    
O6    C4    1.293532 A    
O3    C2    1.294438 A    
C42   C43   1.524967 S    
C8    C12   1.396361 A    
Cu1   Cu2   2.676836 S    
C8    C50   1.516942 S    
C63   C64   1.525742 S    
O2    C2    1.295178 A    
C37   O15   1.387671 S    
C21   C30   1.393943 A    
C55   H45   1.110952 S    
C68   H77   1.115833 S    
C71   H84   1.113763 S    
C5    C15   1.419252 A    
C72   C73   1.525838 S    
C46   H21   1.110239 S    
C38   O16   1.384976 S    
C37   N1    1.371454 A    
C4    C13   1.467526 S    
C43   H13   1.110764 S    
C32   C36   1.420714 A    
C22   H8    1.080268 S    
C33   C39   1.406155 A    
C45   C46   1.524335 S    
C72   H86   1.110874 S    
C34   C40   1.404493 A    
C56   C57   1.529679 S    
C25   O11   1.384789 S    
C70   H80   1.111213 S    
C48   C49   1.524958 S    
C58   H54   1.110872 S    
C61   H60   1.110732 S    
C10   C14   1.399436 A    
C46   H20   1.110931 S    
Cu2   N1    2.010886 S    
C1    C27   1.476954 S    
C19   H5    1.083830 S    
C41   H19   1.112179 S    
C54   C55   1.525567 S    
C43   H14   1.110606 S    
C76   H96   1.111283 S    
C9    H1    1.080247 S    
C44   C45   1.539517 S    
C36   O14   1.391296 S    
C74   H90   1.105769 S    
O7    C4    1.297350 A    
C74   H91   1.117985 S    
C47   H33   1.111729 S    
C29   C30   1.462424 S    
C6    C10   1.404235 A    
C51   C52   1.525514 S    
C7    C16   1.417030 A    
C8    C15   1.414909 A    
C66   C67   1.525954 S    
C42   H16   1.110471 S    
C70   H82   1.110920 S    
C24   O10   1.390117 S    
C11   C14   1.399236 A    
C12   C13   1.395858 A    
C49   H28   1.109657 S    
O8    Cu2   1.941219 S    
C19   C29   1.392862 A    
C7    C47   1.528839 S    
C74   C75   1.529978 S    
C33   C37   1.416383 A    
C45   H24   1.110038 S    
C60   H57   1.107205 S    
C59   C60   1.532360 S    
C68   C69   1.533707 S    
C9    C13   1.397081 A    
C50   H40   1.108223 S    
C46   H22   1.110107 S    
C11   H3    1.078292 S    
C67   H73   1.111337 S    
C26   O12   1.395972 S    
C52   H36   1.110605 S    
C2    C28   1.468845 S    
C20   H6    1.081896 S    
C17   C18   1.200152 T    
C26   C27   1.419804 A    
O4    C1    1.296702 A    
C60   H58   1.109517 S    
C59   H56   1.118422 S    
C45   H23   1.112095 S    
C73   H88   1.110340 S    
C62   H62   1.109040 S    
C71   C72   1.528595 S    
C35   N1    1.369242 A    
C61   H59   1.110951 S    
C67   H75   1.110975 S    
O9    C53   1.419324 S    
C65   H69   1.111333 S    
C43   H15   1.110464 S    
C19   C23   1.386250 A    
O14   C68   1.415741 S    
C75   C76   1.526790 S    
C54   H44   1.109607 S    
C51   H37   1.111852 S    
C66   H71   1.109767 S    
C15   C17   1.438265 S    
C72   H85   1.111821 S    
C68   H76   1.108798 S    
O13   C65   1.419117 S    
C16   C18   1.439875 S    
C62   H63   1.115795 S    
C44   H25   1.112103 S    
C53   H42   1.117710 S    
C3    C14   1.474355 S    
C31   H9    1.078428 S    
C67   H74   1.110390 S    
C65   H70   1.115849 S    
C69   C70   1.525945 S    
O4    Cu2   1.960591 S    
C76   H94   1.111141 S    
O2    Cu2   1.958673 S    
C25   C28   1.411900 A    
C7    C11   1.405541 A    
C73   H89   1.110890 S    
C22   C26   1.409440 A    
O8    C3    1.296206 A    
C39   C40   1.518271 S    
O1    Cu1   1.958676 S    
O5    Cu1   1.941152 S    
C20   C30   1.396272 A    
C41   C42   1.538553 S    
C12   H4    1.082133 S    
C49   H29   1.109931 S    
C54   H43   1.111679 S    
C23   C27   1.416192 A    
C63   H64   1.111749 S    
C48   H31   1.111660 S    
C75   H92   1.111275 S    
C56   H48   1.110292 S    
C75   H93   1.108920 S    
C55   H47   1.110988 S    
C63   H65   1.109589 S    
C34   H12   1.076928 S    
C53   C54   1.532526 S    
