data_mof_unit_5226.cif
_audit_creation_date              2012-10-26T19:10:51-0400
_audit_creation_method            fapswitch 2.2
_symmetry_space_group_name_H-M    P1
_symmetry_Int_Tables_number       1
_space_group_crystal_system       triclinic
_cell_length_a                    10.739414
_cell_length_b                    9.641927
_cell_length_c                    23.476817
_cell_angle_alpha                 88.601585
_cell_angle_beta                  89.084059
_cell_angle_gamma                 90.544896
_cell_volume                      2429.83885407

loop_
_atom_site_label
_atom_site_type_symbol
_atom_type_description
_atom_site_fract_x
_atom_site_fract_y
_atom_site_fract_z
_atom_type_partial_charge
C1    C     C_R   0.260271 0.499667 0.499451 0.546413
C2    C     C_R   0.616335 0.525608 0.120012 0.392461
C3    C     C_R   0.572065 0.404176 0.240507 -0.059916
C4    C     C_R   0.499660 0.501240 0.391459 0.530065
C5    C     C_R   0.571002 0.404586 0.299780 -0.154992
C6    C     C_R   0.500805 0.502826 0.329053 -0.002297
C7    C     C_R   0.430374 0.599698 0.298238 -0.162905
C8    C     C_R   0.432076 0.599952 0.238813 -0.055138
C9    C     C_R   0.503123 0.502180 0.209693 0.242243
C10   C     C_R   0.522122 0.616770 0.760241 -0.062649
C11   C     C_R   0.519557 0.619174 0.700964 -0.152429
C12   C     C_R   0.288730 0.450908 0.972231 -0.128947
C13   C     C_R   0.502767 0.495505 0.671393 -0.001104
C14   C     C_R   0.488781 0.369379 0.702287 -0.152371
C15   C     C_R   0.490801 0.367405 0.761691 -0.056580
C16   C     C_R   0.738530 0.499878 0.503384 0.538255
C17   C     C_R   0.507492 0.491115 0.790741 0.249784
C18   C     C_3   0.073424 0.599999 0.546237 -0.218816
C19   C     C_3   0.071293 0.352533 0.518155 -0.222741
C20   C     C_3   0.930499 0.615586 0.543140 -0.110190
C21   C     C_3   0.927787 0.351326 0.522444 -0.102888
C22   C     C_3   0.067114 0.542599 0.438984 0.023724
C23   C     C_R   0.287981 0.452717 0.031295 -0.128704
C24   C     C_3   0.121307 0.499446 0.499566 0.058127
C25   C     C_3   0.876410 0.498814 0.504972 0.064307
C26   C     C_3   0.922189 0.530424 0.442784 -0.213164
C27   C     C_3   0.621696 0.086424 0.478986 0.048211
C28   C     C_3   0.625425 0.920058 0.483004 0.048037
C29   C     C_3   0.487804 0.080056 0.560011 -0.150401
C30   C     C_3   0.474765 0.914492 0.559046 -0.148139
C31   C     C_3   0.388971 0.081418 0.471042 0.050907
C32   C     C_3   0.404160 0.919671 0.461825 0.049086
C33   C     C_R   0.500443 0.498553 0.608733 0.545477
C34   C     C_R   0.398732 0.475225 0.060668 0.034135
C35   C     C_R   0.620716 0.509702 0.878276 0.393404
C36   C     C_R   0.400896 0.470840 0.881658 0.397721
C37   C     C_R   0.400279 0.471350 0.941169 0.032623
C38   C     C_R   0.513170 0.494145 0.969947 -0.044537
C39   C     C_R   0.625334 0.517465 0.938550 0.023612
C40   C     C_3   0.870746 0.628749 0.602954 -0.417748
C41   C     C_3   0.882332 0.291939 0.581038 -0.410848
C42   C     C_3   0.103896 0.693267 0.420684 -0.393885
C43   C     C_3   0.115233 0.448996 0.390713 -0.392637
C44   C     C_3   0.667527 0.150039 0.420682 -0.343359
C45   C     C_R   0.512303 0.496038 0.030139 -0.044121
C46   C     C_3   0.693585 0.858111 0.429913 -0.353964
C47   C     C_3   0.337494 0.159330 0.417400 -0.338001
C48   C     C_3   0.419290 0.891591 0.396263 -0.342048
C49   C     C_3   0.862596 0.510832 0.058051 -0.341197
C50   C     C_3   0.852379 0.602839 0.937354 -0.341474
C51   C     C_R   0.624185 0.516241 0.059841 0.024734
C52   C     C_R   0.738647 0.528683 0.028573 0.008812
C53   C     C_R   0.737189 0.545134 0.968357 0.005976
C54   C     C_R   0.398260 0.476044 0.120211 0.397162
Cu1   Cu    Cu3+1 0.499860 0.642410 0.500030 0.858994
Cu2   Cu    Cu3+1 0.499860 0.357590 0.500030 0.857700
H1    H     H_    0.201299 0.433599 0.951005 0.159298
H2    H     H_    0.531250 0.717810 0.678429 0.112250
H3    H     H_    0.475757 0.272485 0.680674 0.114756
H4    H     H_    0.117846 0.704388 0.541881 0.113977
H5    H     H_    0.101884 0.272156 0.488084 0.101243
H6    H     H_    0.904724 0.725955 0.622152 0.121288
H7    H     H_    0.767926 0.635152 0.601015 0.160427
H8    H     H_    0.895423 0.542546 0.632279 0.146708
H9    H     H_    0.784431 0.319135 0.590876 0.166144
H10   H     H_    0.888247 0.176956 0.581114 0.103997
H11   H     H_    0.941263 0.327598 0.616218 0.134944
H12   H     H_    0.479750 0.269914 0.785188 0.124557
H13   H     H_    0.072069 0.770729 0.451642 0.104849
H14   H     H_    0.205821 0.702201 0.414917 0.155042
H15   H     H_    0.061974 0.721870 0.379077 0.122199
H16   H     H_    0.218024 0.457086 0.385939 0.135556
H17   H     H_    0.087423 0.338931 0.397885 0.106895
H18   H     H_    0.075181 0.482290 0.349254 0.143078
H19   H     H_    0.878354 0.627042 0.426180 0.106399
H20   H     H_    0.886938 0.447325 0.414849 0.096665
H21   H     H_    0.696229 0.121265 0.508012 0.110604
H22   H     H_    0.691259 0.893972 0.517932 0.103300
H23   H     H_    0.100677 0.558890 0.588958 0.123199
H24   H     H_    0.200022 0.436627 0.053843 0.158532
H25   H     H_    0.605081 0.126920 0.385512 0.115639
H26   H     H_    0.684649 0.261705 0.419689 0.185864
H27   H     H_    0.761798 0.111216 0.410047 0.066012
H28   H     H_    0.670328 0.907618 0.388696 0.097731
H29   H     H_    0.795779 0.871845 0.434613 0.072580
H30   H     H_    0.678014 0.749169 0.421792 0.202621
H31   H     H_    0.569056 0.109186 0.586233 0.101774
H32   H     H_    0.540563 0.870119 0.590457 0.119065
H33   H     H_    0.306026 0.089454 0.500139 0.088232
H34   H     H_    0.113291 0.321354 0.559555 0.125352
H35   H     H_    0.312975 0.871326 0.474120 0.116976
H36   H     H_    0.287228 0.253597 0.425833 0.168929
H37   H     H_    0.406804 0.183445 0.383471 0.155861
H38   H     H_    0.263102 0.095331 0.398417 0.063283
H39   H     H_    0.485862 0.818994 0.381233 0.175571
H40   H     H_    0.327852 0.868323 0.377391 0.081637
H41   H     H_    0.458131 0.978904 0.371102 0.087457
H42   H     H_    0.405622 0.123401 0.582625 0.117726
H43   H     H_    0.379715 0.882578 0.574055 0.109284
H44   H     H_    0.855817 0.426651 0.091106 0.173934
H45   H     H_    0.911902 0.716859 0.521158 0.131633
H46   H     H_    0.937087 0.476206 0.028501 0.104080
H47   H     H_    0.892113 0.609743 0.077225 0.178766
H48   H     H_    0.902692 0.518519 0.915640 0.182071
H49   H     H_    0.826020 0.685606 0.906255 0.174192
H50   H     H_    0.917563 0.655185 0.966244 0.111948
H51   H     H_    0.371880 0.672707 0.319958 0.104536
H52   H     H_    0.535112 0.712620 0.782602 0.119230
H53   H     H_    0.894409 0.276555 0.490432 0.128923
H54   H     H_    0.626730 0.327833 0.218407 0.127583
H55   H     H_    0.626384 0.329327 0.322602 0.100805
H56   H     H_    0.377935 0.675671 0.215380 0.135536
N1    N     N_R   0.509776 0.489763 0.851743 -0.396602
N2    N     N_R   0.505706 0.501833 0.148518 -0.395358
N3    N     N_3   0.500250 0.143650 0.501250 -0.212316
N4    N     N_3   0.500250 0.856350 0.501250 -0.222751
O1    O     O_R   0.317570 0.620260 0.500030 -0.512056
O2    O     O_2   0.293391 0.452125 0.853683 -0.502907
O3    O     O_2   0.291241 0.450591 0.149748 -0.510214
O4    O     O_2   0.716559 0.563565 0.150018 -0.516186
O5    O     O_R   0.317570 0.379740 0.500030 -0.521176
O6    O     O_R   0.499840 0.620290 0.417900 -0.525755
O7    O     O_R   0.499840 0.379710 0.417900 -0.518638
O8    O     O_R   0.682190 0.620260 0.500010 -0.526868
O9    O     O_R   0.682190 0.379740 0.500010 -0.530045
O10   O     O_R   0.499920 0.620230 0.582140 -0.511751
O11   O     O_R   0.499920 0.379770 0.582140 -0.507883
O12   O     O_2   0.725697 0.517247 0.846058 -0.514011

loop_
_geom_bond_atom_site_label_1
_geom_bond_atom_site_label_2
_ccdc_geom_bond_type
C43   H17   S    
Cu1   Cu2   S    
C50   H48   S    
C43   H16   S    
C48   H39   S    
C11   C13   A    
C47   H36   S    
C10   H52   S    
C33   O11   A    
C44   H27   S    
C17   N1    S    
C7    C8    A    
C41   H11   S    
C30   N4    S    
C48   H41   S    
C12   C23   A    
C28   C46   S    
C29   C30   S    
C40   H7    S    
C29   H42   S    
C18   C24   S    
C9    N2    S    
C36   C37   A    
C19   C21   S    
C44   H26   S    
C8    H56   S    
C5    C6    A    
C20   C40   S    
C32   H35   S    
C20   C25   S    
C45   C51   A    
C10   C17   A    
C42   H14   S    
C40   H6    S    
Cu2   O11   S    
C12   C37   A    
C33   O10   A    
C38   C45   A    
C28   N4    S    
C27   C44   S    
C47   H38   S    
C22   C43   S    
C18   H23   S    
C31   H33   S    
C22   C42   S    
C50   H49   S    
C26   H20   S    
C23   H24   S    
C11   H2    S    
C28   H22   S    
C16   O9    A    
C18   C20   S    
C46   H29   S    
C23   C34   A    
C43   H18   S    
C29   N3    S    
Cu1   O6    S    
C31   C47   S    
C54   O3    S    
C32   C48   S    
C36   N1    A    
C31   N3    S    
C38   C39   A    
C50   C53   S    
C51   C52   A    
Cu2   O7    S    
C4    C6    S    
C44   H25   S    
C21   C41   S    
C49   H46   S    
C2    O4    S    
C8    C9    A    
C41   H9    S    
C20   H45   S    
C5    H55   S    
C3    C5    A    
C25   C26   S    
C30   H43   S    
C42   H13   S    
C4    O7    A    
C35   C39   A    
C13   C33   S    
C37   C38   A    
C14   H3    S    
C31   C32   S    
Cu1   O10   S    
C49   C52   S    
C26   H19   S    
C47   H37   S    
C4    O6    A    
C34   C45   A    
C1    O1    A    
Cu2   O9    S    
C32   N4    S    
C3    C9    A    
C41   H10   S    
C46   H28   S    
C12   H1    S    
C18   H4    S    
C34   C54   A    
C22   C26   S    
C7    H51   S    
C30   H32   S    
C36   O2    S    
C52   C53   A    
Cu1   O1    S    
C16   C25   S    
C15   C17   A    
C21   C25   S    
Cu1   O8    S    
C48   H40   S    
C27   H21   S    
C49   H47   S    
C21   H53   S    
C6    C7    A    
C2    C51   A    
C40   H8    S    
Cu2   O5    S    
C19   C24   S    
C16   O8    A    
C19   H34   S    
C49   H44   S    
C2    N2    A    
C39   C53   A    
C19   H5    S    
C15   H12   S    
C54   N2    A    
C42   H15   S    
Cu2   N3    S    
C35   N1    A    
C22   C24   S    
C35   O12   S    
C1    O5    A    
C29   H31   S    
C10   C11   A    
C1    C24   S    
Cu1   N4    S    
C27   C28   S    
C50   H50   S    
C14   C15   A    
C3    H54   S    
C13   C14   A    
C46   H30   S    
C27   N3    S    
