data_mof_unit_27757.cif
_audit_creation_date              2012-12-10T19:00:16-0500
_audit_creation_method            fapswitch 2.2
_symmetry_space_group_name_H-M    P1
_symmetry_Int_Tables_number       1
_space_group_crystal_system       triclinic
_cell_length_a                    9.594055
_cell_length_b                    10.791924
_cell_length_c                    13.34998
_cell_angle_alpha                 91.855168
_cell_angle_beta                  73.438203
_cell_angle_gamma                 89.783369
_cell_volume                      1324.07290614

loop_
_atom_site_label
_atom_site_type_symbol
_atom_type_description
_atom_site_fract_x
_atom_site_fract_y
_atom_site_fract_z
_atom_type_partial_charge
C1    C     C_R   0.501700 0.737341 0.495422 0.783633
C2    C     C_R   0.425299 0.517650 0.983069 0.033426
C3    C     C_R   0.444688 0.469710 0.879048 0.056125
C4    C     C_R   0.521767 0.470813 0.038113 0.076619
C5    C     C_R   0.610500 0.364094 0.997401 0.171297
C6    C     C_R   0.609621 0.308988 0.902067 -0.241786
C7    C     C_R   0.530393 0.362285 0.842722 -0.201840
C8    C     C_R   0.540587 0.529387 0.128862 -0.271794
C9    C     C_R   0.702079 0.365154 0.148506 -0.202000
C10   C     C_R   0.378676 0.530359 0.812239 -0.087318
C11   C     C_R   0.379317 0.936645 0.489667 0.132820
C12   C     C_R   0.422614 0.504100 0.699549 0.778648
C13   C     C_R   0.506979 0.869704 0.479974 -0.092278
C14   C     C_R   0.639787 0.932836 0.451781 -0.245250
C15   C     C_R   0.639716 0.062520 0.454362 -0.220347
C16   C     C_R   0.506797 0.128769 0.482136 -0.097343
C17   C     C_R   0.378955 0.063947 0.490270 0.125426
C18   C     C_3   0.235340 0.073472 0.571801 -0.466033
C19   C     C_3   0.236504 0.932798 0.570849 -0.490123
C20   C     C_R   0.944108 0.402063 0.457011 0.232333
C21   C     C_R   0.904253 0.586265 0.559371 0.171748
C22   C     C_R   0.053910 0.586389 0.556357 -0.099436
C23   C     C_R   0.501720 0.262334 0.496287 0.794548
C24   C     C_R   0.090153 0.401599 0.457744 0.243531
C25   C     C_3   0.139875 0.346989 0.349250 -0.488100
C26   C     C_3   0.981347 0.348488 0.348296 -0.514692
C27   C     C_R   0.577319 0.498362 0.300319 0.789936
C28   C     C_R   0.701404 0.313822 0.051935 -0.194110
C29   C     C_R   0.617846 0.470862 0.188386 -0.037438
C30   C     C_R   0.288652 0.633376 0.848845 -0.237277
C31   C     C_R   0.257188 0.673453 0.952287 -0.151945
C32   C     C_R   0.313508 0.611232 0.023303 0.105317
Cu1   Cu    Cu3+1 0.359330 0.500020 0.500010 0.932173
Cu2   Cu    Cu3+1 0.640670 0.499980 0.499990 0.918288
H1    H     H_    0.761628 0.318524 0.194495 0.139166
H2    H     H_    0.742336 0.110101 0.439572 0.156225
H3    H     H_    0.242994 0.116829 0.646741 0.197724
H4    H     H_    0.149078 0.112925 0.541088 0.195588
H5    H     H_    0.244699 0.893827 0.645113 0.190535
H6    H     H_    0.153279 0.890972 0.537956 0.208553
H7    H     H_    0.094180 0.655429 0.601337 0.158770
H8    H     H_    0.209555 0.410060 0.293006 0.216780
H9    H     H_    0.185333 0.251743 0.347308 0.193189
H10   H     H_    0.958313 0.413331 0.292079 0.222112
H11   H     H_    0.675115 0.226804 0.871192 0.142959
H12   H     H_    0.936698 0.254110 0.345059 0.184715
H13   H     H_    0.767433 0.231751 0.021787 0.131929
H14   H     H_    0.495010 0.619729 0.156481 0.130241
H15   H     H_    0.243733 0.684596 0.796419 0.140113
H16   H     H_    0.186137 0.753522 0.976750 0.135124
H17   H     H_    0.536766 0.317982 0.767600 0.153901
H18   H     H_    0.742561 0.882968 0.433715 0.160627
N1    N     N_R   0.852320 0.499070 0.499340 -0.203213
N2    N     N_R   0.148230 0.499110 0.499340 -0.203648
O1    O     O_R   0.381190 0.680360 0.500000 -0.580420
O2    O     O_R   0.618780 0.680320 0.499990 -0.598681
O3    O     O_R   0.323230 0.500000 0.650990 -0.572379
O4    O     O_R   0.560820 0.499960 0.650980 -0.598034
O5    O     O_R   0.381220 0.319680 0.500010 -0.571912
O6    O     O_R   0.618810 0.319640 0.500000 -0.581640
O7    O     O_R   0.439180 0.500040 0.349020 -0.575582
O8    O     O_R   0.676770 0.500000 0.349010 -0.585915
C33   C     C_3   0.807958 0.676617 0.639683 -0.340741
C34   C     C_3   0.843670 0.813944 0.617578 -0.389432
C35   C     C_3   0.888070 0.879829 0.706596 -0.874008
H19   H     H_    0.796506 0.880030 0.779648 0.255277
H20   H     H_    0.983456 0.832597 0.720506 0.249103
H21   H     H_    0.916255 0.977395 0.686472 0.254852
H22   H     H_    0.929091 0.823826 0.542299 0.210383
H23   H     H_    0.745096 0.862783 0.610592 0.230015
H24   H     H_    0.692459 0.667403 0.648967 0.238982
H25   H     H_    0.819412 0.652994 0.717518 0.180174
C36   C     C_3   0.243869 0.643367 0.139028 -0.435571
C37   C     C_3   0.076157 0.648708 0.171684 -0.350599
C38   C     C_3   0.015684 0.685800 0.287449 -0.836469
H26   H     H_    0.059554 0.623549 0.335784 0.265171
H27   H     H_    0.046103 0.782552 0.301907 0.238630
H28   H     H_    0.895265 0.679890 0.311454 0.263078
H29   H     H_    0.034339 0.717956 0.127580 0.215636
H30   H     H_    0.033812 0.556539 0.156289 0.224002
H31   H     H_    0.270880 0.571448 0.187539 0.210057
H32   H     H_    0.285408 0.734449 0.158292 0.197871

loop_
_geom_bond_atom_site_label_1
_geom_bond_atom_site_label_2
_ccdc_geom_bond_type
Cu1   O1    S    
C28   H13   S    
Cu2   O2    S    
C6    H11   S    
C27   C29   S    
C36   C37   S    
C15   H2    S    
C4    C8    A    
C25   H9    S    
C26   H10   S    
C22   N2    A    
C23   O5    A    
C11   C19   S    
C8    C29   A    
C19   H5    S    
C1    O2    A    
C3    C7    A    
C5    C6    A    
C22   H7    S    
C24   N2    A    
C15   C16   A    
Cu2   O8    S    
C2    C32   A    
C18   C19   S    
C27   O7    A    
C14   H18   S    
C20   C24   A    
C16   C17   A    
C35   H20   S    
C34   H23   S    
C9    C29   A    
C12   O4    A    
Cu1   O5    S    
C37   H30   S    
C13   C14   A    
Cu2   O6    S    
C36   H31   S    
C17   C18   S    
C23   O6    A    
C37   C38   S    
C24   C25   S    
C32   C36   S    
C20   N1    A    
C25   C26   S    
C2    C4    A    
C38   H26   S    
C8    H14   S    
C27   O8    A    
C5    C28   A    
C10   C30   A    
C31   C32   A    
C35   H21   S    
Cu1   Cu2   S    
C34   H22   S    
C38   H27   S    
C10   C12   S    
C12   O3    A    
C30   H15   S    
C33   H24   S    
C16   C23   S    
C37   H29   S    
C1    C13   S    
C31   H16   S    
C36   H32   S    
Cu2   O4    S    
Cu1   N2    S    
C11   C17   A    
Cu1   O3    S    
C18   H3    S    
C4    C5    A    
C25   H8    S    
C6    C7    A    
C34   C35   S    
C2    C3    A    
C18   H4    S    
C7    H17   S    
C3    C10   A    
C21   N1    A    
C11   C13   A    
C30   C31   A    
C20   C26   S    
C1    O1    A    
C38   H28   S    
C21   C33   S    
C19   H6    S    
C26   H12   S    
C33   C34   S    
C33   H25   S    
Cu2   N1    S    
Cu1   O7    S    
C35   H19   S    
C9    H1    S    
C14   C15   A    
C21   C22   A    
C9    C28   A    
