data_mof_unit_46220.cif
_audit_creation_date              2012-12-10T20:51:46-0500
_audit_creation_method            fapswitch 2.2
_symmetry_space_group_name_H-M    P1
_symmetry_Int_Tables_number       1
_space_group_crystal_system       triclinic
_cell_length_a                    8.085472
_cell_length_b                    8.917658
_cell_length_c                    16.833729
_cell_angle_alpha                 89.373462
_cell_angle_beta                  92.825928
_cell_angle_gamma                 89.987538
_cell_volume                      1212.22148289

loop_
_atom_site_label
_atom_site_type_symbol
_atom_type_description
_atom_site_fract_x
_atom_site_fract_y
_atom_site_fract_z
_atom_type_partial_charge
C1    C     C_R   0.499985 0.217925 0.500271 0.940046
C2    C     C_R   0.608370 0.434835 0.137698 0.404856
C3    C     C_R   0.480970 0.417119 0.899581 0.022304
C4    C     C_R   0.493979 0.528572 0.095798 0.111686
C5    C     C_R   0.612340 0.351649 0.860090 0.330561
C6    C     C_R   0.374659 0.611517 0.135074 0.259045
C7    C     C_R   0.631889 0.387412 0.779575 0.380494
C8    C     C_R   0.364739 0.594394 0.217674 0.382574
C9    C     C_1   0.499913 0.065196 0.500455 -0.213981
C10   C     C_1   0.499935 0.934788 0.500398 -0.215183
C11   C     C_R   0.718824 0.318257 0.265457 0.149549
C12   C     C_R   0.500012 0.782069 0.500146 0.939278
C13   C     C_R   0.886895 0.357739 0.274993 -0.094200
C14   C     C_R   0.998321 0.263126 0.317378 -0.133416
C15   C     C_R   0.942890 0.128910 0.350450 -0.101477
C16   C     C_R   0.775965 0.088888 0.341053 -0.109740
C17   C     C_R   0.663882 0.183365 0.298943 -0.156470
C18   C     C_R   0.273308 0.663645 0.740394 0.231597
C19   C     C_R   0.336237 0.799006 0.710799 -0.163374
C20   C     C_R   0.230160 0.902955 0.671825 -0.117123
C21   C     C_R   0.060872 0.872510 0.661911 -0.106884
C22   C     C_R   0.997236 0.738176 0.691091 -0.142664
C23   C     C_R   0.518391 0.499737 0.653790 0.958029
C24   C     C_R   0.102790 0.633876 0.730117 -0.027588
C25   C     C_R   0.481483 0.498968 0.346292 0.977549
C26   C     C_R   0.519256 0.486654 0.740059 -0.306079
C27   C     C_R   0.477996 0.499627 0.259809 -0.267802
C28   C     C_R   0.387266 0.551390 0.780054 -0.149252
C29   C     C_R   0.600044 0.418743 0.220440 -0.235561
C30   C     C_R   0.363200 0.510145 0.858552 0.373448
H1    H     H_    0.931117 0.461586 0.249690 0.169871
H2    H     H_    0.052136 0.529400 0.751535 0.172731
H3    H     H_    0.776225 0.278219 0.126017 0.345435
H4    H     H_    0.204524 0.504093 0.941956 0.366384
H5    H     H_    0.684131 0.224566 0.950812 0.385909
H6    H     H_    0.296393 0.721932 0.039018 0.380553
H7    H     H_    0.824795 0.255648 0.771664 0.381788
H8    H     H_    0.177453 0.733650 0.222938 0.385963
H9    H     H_    0.127683 0.293577 0.324425 0.158294
H10   H     H_    0.029350 0.055788 0.383207 0.145531
H11   H     H_    0.733470 0.984614 0.366423 0.145503
H12   H     H_    0.534710 0.151521 0.292258 0.126286
H13   H     H_    0.467316 0.823604 0.717735 0.121863
H14   H     H_    0.279275 0.007001 0.649148 0.144860
H15   H     H_    0.979015 0.952956 0.631580 0.148265
H16   H     H_    0.866149 0.714751 0.683301 0.155823
N1    N     N_1   0.073640 0.500030 0.499990 -0.028548
N2    N     N_1   0.926360 0.499970 0.500010 -0.025964
N3    N     N_2   0.482230 0.407609 0.982761 -0.119393
N4    N     N_2   0.493239 0.534633 0.012530 -0.112167
O1    O     O_R   0.636850 0.285340 0.500000 -0.599997
O2    O     O_3   0.227852 0.567688 0.895202 -0.743366
O3    O     O_3   0.725407 0.256191 0.898858 -0.742393
O4    O     O_3   0.264768 0.707757 0.094607 -0.750565
O5    O     O_3   0.755726 0.323582 0.737026 -0.755729
O6    O     O_3   0.250833 0.673474 0.259671 -0.753880
O7    O     O_R   0.363150 0.714660 0.500000 -0.602056
O8    O     O_R   0.363100 0.285350 0.500000 -0.636976
O9    O     O_R   0.636900 0.714650 0.500000 -0.636600
O10   O     O_R   0.652140 0.498630 0.616140 -0.577148
O11   O     O_R   0.347860 0.501370 0.383860 -0.586288
O12   O     O_R   0.378390 0.498650 0.616130 -0.632756
O13   O     O_R   0.621610 0.501350 0.383870 -0.622089
O14   O     O_3   0.726594 0.362946 0.094933 -0.727757
Zn1   Zn    Zn3+2 0.682780 0.499990 0.500010 1.002533
Zn2   Zn    Zn3+2 0.317220 0.500010 0.499990 0.995859

loop_
_geom_bond_atom_site_label_1
_geom_bond_atom_site_label_2
_ccdc_geom_bond_type
C3    C30   A    
C2    C4    A    
C24   H2    S    
C18   C28   S    
N2    Zn1   S    
C25   C27   S    
C11   C13   A    
C9    C10   T    
N1    Zn2   S    
H4    O2    S    
N1    N2    T    
C7    O5    S    
O7    Zn2   S    
O13   Zn1   S    
C8    O6    S    
C28   C30   A    
C3    N3    S    
H8    O6    S    
H6    O4    S    
C25   O11   A    
C13   C14   A    
O9    Zn1   S    
C1    O1    A    
C7    C26   A    
C10   C12   S    
C6    O4    S    
C2    C29   A    
C18   C24   A    
C12   O7    A    
C16   H11   S    
C5    O3    S    
C22   H16   S    
C2    O14   S    
O10   Zn1   S    
N3    N4    D    
C21   H15   S    
H3    O14   S    
O1    Zn1   S    
C23   O10   A    
C13   H1    S    
C22   C24   A    
C15   H10   S    
H5    O3    S    
O12   Zn2   S    
C15   C16   A    
H7    O5    S    
C1    O8    A    
C17   H12   S    
C1    C9    S    
C20   C21   A    
C11   C29   S    
C4    C6    A    
C18   C19   A    
C25   O13   A    
C23   C26   S    
C27   C29   A    
C5    C7    A    
C8    C27   A    
C30   O2    S    
C14   C15   A    
C11   C17   A    
C6    C8    A    
C20   H14   S    
C14   H9    S    
C21   C22   A    
C12   O9    A    
C26   C28   A    
O11   Zn2   S    
O8    Zn2   S    
C23   O12   A    
C19   C20   A    
C4    N4    S    
C16   C17   A    
C3    C5    A    
C19   H13   S    
