data_mof_unit_56002.cif
_audit_creation_date              2012-12-10T16:32:42-0500
_audit_creation_method            fapswitch 2.2
_symmetry_space_group_name_H-M    P1
_symmetry_Int_Tables_number       1
_space_group_crystal_system       triclinic
_cell_length_a                    16.958656
_cell_length_b                    16.958543
_cell_length_c                    16.958635
_cell_angle_alpha                 66.101139
_cell_angle_beta                  66.101021
_cell_angle_gamma                 66.101966
_cell_volume                      3903.6285289

loop_
_atom_site_label
_atom_site_type_symbol
_atom_type_description
_atom_site_fract_x
_atom_site_fract_y
_atom_site_fract_z
_atom_type_partial_charge
C1    C     C_R   0.597886 0.011596 0.597959 0.079380
C2    C     C_R   0.821613 0.564369 0.032768 0.927592
C3    C     C_R   0.434058 0.971737 0.177281 0.952422
C4    C     C_R   0.564364 0.032778 0.821613 0.927585
C5    C     C_R   0.564552 0.821645 0.032481 0.927811
C6    C     C_R   0.433901 0.177286 0.972404 0.951550
C7    C     C_R   0.032483 0.564551 0.821645 0.927818
C8    C     C_R   0.972402 0.433901 0.177286 0.951549
C9    C     C_R   0.821646 0.032471 0.564557 0.927831
C10   C     C_R   0.177285 0.972406 0.433899 0.951557
C11   C     C_R   0.553621 0.990329 0.551704 0.128537
C12   C     C_R   0.414974 0.947448 0.413692 0.082093
C13   C     C_R   0.466416 0.956567 0.461612 0.128300
C14   C     C_R   0.990377 0.551686 0.553609 0.128498
C15   C     C_R   0.956643 0.461596 0.466388 0.128250
C16   C     C_R   0.551691 0.553610 0.990370 0.128498
C17   C     C_R   0.461598 0.466392 0.956633 0.128249
C18   C     C_R   0.565977 0.029515 0.458587 -0.176892
C19   C     C_R   0.454591 0.916306 0.554704 -0.171598
C20   C     C_R   0.029735 0.458616 0.565793 -0.176890
C21   C     C_R   0.916219 0.554642 0.454727 -0.171608
C22   C     C_R   0.458620 0.565803 0.029717 -0.176888
C23   C     C_R   0.011622 0.597944 0.597883 0.079332
C24   C     C_R   0.554645 0.454722 0.916219 -0.171603
C25   C     C_R   0.523183 0.012890 0.414309 -0.169018
C26   C     C_R   0.497926 0.932761 0.599201 -0.176987
C27   C     C_R   0.414340 0.522999 0.013105 -0.169039
C28   C     C_R   0.599143 0.498067 0.932662 -0.177010
C29   C     C_R   0.013125 0.414337 0.522986 -0.169044
C30   C     C_R   0.932661 0.599139 0.498074 -0.177018
C31   C     C_R   0.555569 0.020777 0.684965 -0.254100
C32   C     C_R   0.453355 0.947250 0.323383 -0.248611
C33   C     C_R   0.020754 0.684967 0.555584 -0.254124
C34   C     C_R   0.947498 0.413682 0.414962 0.082028
C35   C     C_R   0.947320 0.323368 0.453345 -0.248597
C36   C     C_R   0.684968 0.555584 0.020752 -0.254117
C37   C     C_R   0.323370 0.453346 0.947314 -0.248605
C38   C     C_R   0.323799 0.950048 0.452855 -0.235603
C39   C     C_R   0.685334 0.019637 0.556468 -0.264692
C40   C     C_R   0.452852 0.323799 0.950060 -0.235600
C41   C     C_R   0.556441 0.685318 0.019690 -0.264683
C42   C     C_R   0.950062 0.452853 0.323797 -0.235598
C43   C     C_R   0.019699 0.556435 0.685316 -0.264678
C44   C     C_R   0.597777 0.044314 0.725752 -0.132515
C45   C     C_R   0.597948 0.597884 0.011616 0.079338
C46   C     C_R   0.397818 0.966278 0.270794 -0.149296
C47   C     C_R   0.044300 0.725755 0.597784 -0.132519
C48   C     C_R   0.966308 0.270788 0.397813 -0.149298
C49   C     C_R   0.725755 0.597785 0.044298 -0.132520
C50   C     C_R   0.270789 0.397814 0.966305 -0.149301
C51   C     C_R   0.270899 0.967499 0.397791 -0.149573
C52   C     C_R   0.725839 0.043829 0.598216 -0.130986
C53   C     C_R   0.397790 0.270899 0.967503 -0.149577
C54   C     C_R   0.598204 0.725833 0.043853 -0.130988
C55   C     C_R   0.967502 0.397791 0.270898 -0.149575
C56   C     C_R   0.413683 0.414964 0.947493 0.082038
C57   C     C_R   0.043858 0.598201 0.725832 -0.130992
C58   C     C_R   0.676941 0.067848 0.677060 0.325803
C59   C     C_R   0.305937 0.989182 0.305890 0.317717
C60   C     C_R   0.067851 0.677060 0.676940 0.325807
C61   C     C_R   0.989189 0.305889 0.305933 0.317706
C62   C     C_R   0.677060 0.676941 0.067847 0.325814
C63   C     C_R   0.305888 0.305933 0.989187 0.317723
C64   C     C_R   0.971749 0.177279 0.434054 0.952446
C65   C     C_R   0.032768 0.821614 0.564369 0.927586
C66   C     C_R   0.177279 0.434054 0.971749 0.952430
Cl1   Cl    Cl    0.713026 0.129192 0.713055 -0.596264
Cl2   Cl    Cl    0.234923 0.059717 0.234844 -0.445463
Cl3   Cl    Cl    0.129191 0.713064 0.713022 -0.596261
Cl4   Cl    Cl    0.059707 0.234843 0.234913 -0.445460
Cl5   Cl    Cl    0.713061 0.713024 0.129188 -0.596279
Cl6   Cl    Cl    0.234841 0.234913 0.059703 -0.445449
H1    H     H_    0.488045 0.900055 0.670692 0.136005
H2    H     H_    0.420117 0.606585 0.075746 0.141647
H3    H     H_    0.871973 0.593057 0.412104 0.144620
H4    H     H_    0.075772 0.420114 0.606568 0.141648
H5    H     H_    0.490543 0.008421 0.721364 0.170816
H6    H     H_    0.525206 0.937382 0.292988 0.177573
H7    H     H_    0.008362 0.721372 0.490574 0.170848
H8    H     H_    0.937497 0.292969 0.525189 0.177613
H9    H     H_    0.721371 0.490573 0.008362 0.170847
H10   H     H_    0.292971 0.525191 0.937488 0.177610
H11   H     H_    0.292772 0.944713 0.523870 0.173490
H12   H     H_    0.532091 0.047157 0.343134 0.143550
H13   H     H_    0.723027 0.003454 0.493276 0.172500
H14   H     H_    0.523871 0.292781 0.944711 0.173524
H15   H     H_    0.493228 0.722992 0.003551 0.172538
H16   H     H_    0.944713 0.523873 0.292780 0.173525
H17   H     H_    0.003564 0.493218 0.722989 0.172538
H18   H     H_    0.899831 0.670594 0.488331 0.136047
H19   H     H_    0.047512 0.343202 0.531755 0.143601
H20   H     H_    0.670598 0.488316 0.899841 0.136050
H21   H     H_    0.343204 0.531776 0.047484 0.143600
H22   H     H_    0.411844 0.872178 0.593161 0.144571
H23   H     H_    0.606875 0.075439 0.420039 0.141600
H24   H     H_    0.593061 0.412093 0.871980 0.144620
O1    O     O_R   0.982940 0.138950 0.510160 -0.642532
O2    O     O_R   0.982940 0.510160 0.138950 -0.641537
O3    O     O_R   0.861050 0.017060 0.489840 -0.657014
O4    O     O_R   0.138950 0.982940 0.510160 -0.641541
O5    O     O_R   0.867700 0.025880 0.612340 -0.571734
O6    O     O_R   0.132300 0.974120 0.387660 -0.567418
O7    O     O_R   0.025880 0.612340 0.867700 -0.571734
O8    O     O_R   0.974120 0.387660 0.132300 -0.567411
O9    O     O_R   0.612340 0.867700 0.025880 -0.571734
O10   O     O_R   0.387660 0.132300 0.974120 -0.567414
O11   O     O_R   0.387660 0.974120 0.132300 -0.568024
O12   O     O_R   0.017060 0.861050 0.489840 -0.656473
O13   O     O_R   0.612340 0.025880 0.867700 -0.571544
O14   O     O_R   0.132300 0.387660 0.974120 -0.568023
O15   O     O_R   0.867700 0.612340 0.025880 -0.571544
O16   O     O_R   0.974120 0.132300 0.387660 -0.568019
O17   O     O_R   0.025880 0.867700 0.612340 -0.571547
O18   O     O_R   0.138950 0.510160 0.982940 -0.642532
O19   O     O_R   0.861050 0.489840 0.017060 -0.656464
O20   O     O_R   0.510160 0.982940 0.138950 -0.642524
O21   O     O_R   0.489840 0.017060 0.861050 -0.656472
O22   O     O_R   0.489840 0.861050 0.017060 -0.657007
O23   O     O_R   0.510160 0.138950 0.982940 -0.641531
O24   O     O_R   0.017060 0.489840 0.861050 -0.657008
Zn1   Zn    Zn3+2 0.004880 0.004880 0.583590 1.051776
Zn2   Zn    Zn3+2 0.995120 0.995120 0.416410 1.044697
Zn3   Zn    Zn3+2 0.004880 0.583590 0.004880 1.051782
Zn4   Zn    Zn3+2 0.995120 0.416410 0.995120 1.044708
Zn5   Zn    Zn3+2 0.583590 0.004880 0.004880 1.051779
Zn6   Zn    Zn3+2 0.416410 0.995120 0.995120 1.044695

loop_
_geom_bond_atom_site_label_1
_geom_bond_atom_site_label_2
_ccdc_geom_bond_type
C61   Cl4   S    
C16   C28   A    
C4    O13   A    
C11   C18   A    
C50   C63   A    
C38   H11   S    
C40   C56   A    
C34   C42   A    
C30   H18   S    
O7    Zn3   S    
C5    O9    A    
C18   C25   A    
C43   H17   S    
C34   C35   A    
C3    O20   A    
C24   H24   S    
C59   Cl2   S    
C48   C64   S    
C10   C51   S    
C35   H8    S    
C1    C31   A    
C26   H1    S    
C23   C43   A    
C20   H4    S    
O4    Zn1   S    
C40   H14   S    
C19   C26   A    
C8    O2    A    
O1    Zn1   S    
O14   Zn4   S    
C47   C60   A    
C37   C56   A    
C44   C58   A    
C23   C33   A    
C1    C11   S    
C25   H12   S    
C15   C29   A    
C49   C62   A    
O21   Zn6   S    
C15   C34   S    
C39   C52   A    
C9    O3    A    
C7    O7    A    
C12   C32   A    
C18   H23   S    
C13   C25   A    
C9    C52   S    
C32   C46   A    
C14   C30   A    
C35   C48   A    
C8    C55   S    
C31   H5    S    
C20   C29   A    
O2    Zn3   S    
C41   H15   S    
C2    O15   A    
C17   C24   A    
C31   C44   A    
C13   C19   A    
O15   Zn3   S    
C17   C27   A    
C14   C20   A    
C5    C54   S    
C10   O6    A    
C1    C39   A    
C33   H7    S    
C57   C60   A    
C38   C51   A    
C4    C44   S    
C11   C26   A    
C3    O11   A    
O5    Zn1   S    
C14   C23   S    
O16   Zn2   S    
C2    C49   S    
C42   C55   A    
C8    O8    A    
C2    O19   A    
C36   H9    S    
C6    O10   A    
O17   Zn1   S    
C36   C45   A    
C28   H20   S    
C65   O12   A    
C66   O14   A    
C10   O4    A    
C50   C66   S    
C17   C56   S    
C19   H22   S    
C52   C58   A    
O3    Zn2   S    
O18   Zn3   S    
O23   Zn5   S    
O13   Zn5   S    
C64   O1    A    
O20   Zn5   S    
C33   C47   A    
C37   H10   S    
C27   H21   S    
C51   C59   A    
C39   H13   S    
C6    C53   S    
C6    O23   A    
C29   H19   S    
O10   Zn6   S    
C16   C22   A    
O19   Zn4   S    
C66   O18   A    
C65   O17   A    
C7    O24   A    
C24   C28   A    
O11   Zn6   S    
O12   Zn2   S    
C16   C45   S    
O8    Zn4   S    
C22   H2    S    
C54   C62   A    
C21   C30   A    
C21   H3    S    
C3    C46   S    
O9    Zn5   S    
C5    O22   A    
C22   C27   A    
C37   C50   A    
C53   C63   A    
C48   C61   A    
C60   Cl3   S    
C55   C61   A    
C63   Cl6   S    
C47   C65   S    
C62   Cl5   S    
C12   C38   A    
C4    O21   A    
C41   C54   A    
C64   O16   A    
C43   C57   A    
C32   H6    S    
C58   Cl1   S    
C15   C21   A    
C42   H16   S    
C12   C13   S    
C46   C59   A    
C9    O5    A    
C40   C53   A    
C41   C45   A    
O22   Zn6   S    
O6    Zn2   S    
C7    C57   S    
C36   C49   A    
O24   Zn4   S    
