data_mof_unit_26006.cif
_audit_creation_date              2012-12-11T17:45:27-0500
_audit_creation_method            fapswitch 2.2
_symmetry_space_group_name_H-M    P1
_symmetry_Int_Tables_number       1
_space_group_crystal_system       triclinic
_cell_length_a                    15.081531
_cell_length_b                    14.891393
_cell_length_c                    15.116927
_cell_angle_alpha                 110.237766
_cell_angle_beta                  109.0742
_cell_angle_gamma                 108.971574
_cell_volume                      2617.39088667

loop_
_atom_site_label
_atom_site_type_symbol
_atom_type_description
_atom_site_fract_x
_atom_site_fract_y
_atom_site_fract_z
_atom_type_partial_charge
C1    C     C_R   0.975686 0.250179 0.063336 -0.126138
C2    C     C_R   0.704374 0.195560 0.793545 -0.131652
C3    C     C_R   0.777608 0.593553 0.050283 0.060178
C4    C     C_R   0.313780 0.757410 0.224368 -0.134025
C5    C     C_R   0.942574 0.409597 0.685829 -0.138675
C6    C     C_R   0.674284 0.501932 0.979449 -0.045820
C7    C     C_R   0.960429 0.504202 0.679142 0.040547
C8    C     C_R   0.701385 0.131376 0.699589 0.064088
C9    C     C_R   0.062296 0.869490 0.069587 0.055342
C10   C     C_R   0.610118 0.261303 0.099238 -0.113553
C11   C     C_R   0.691389 0.350334 0.202146 -0.152474
C12   C     C_R   0.322024 0.785146 0.326171 0.052561
C13   C     C_R   0.745640 0.332105 0.283700 0.115529
C14   C     C_R   0.711949 0.223183 0.262045 -0.159881
C15   C     C_R   0.628034 0.134544 0.159867 -0.116642
C16   C     C_R   0.204853 0.408021 0.898325 -0.153891
C17   C     C_R   0.577980 0.153701 0.078184 -0.097076
C18   C     C_R   0.851801 0.429762 0.484930 -0.250563
C19   C     C_R   0.944849 0.512893 0.583878 0.074777
C20   C     C_R   0.026951 0.598420 0.589031 0.016272
C21   C     C_R   0.014924 0.596510 0.494800 -0.249783
C22   C     C_R   0.927323 0.508692 0.394862 0.064920
C23   C     C_R   0.293505 0.498572 0.923238 -0.010037
C24   C     C_R   0.841874 0.425582 0.388449 0.024448
C25   C     C_R   0.154134 0.792106 0.743260 -0.195755
C26   C     C_R   0.251821 0.871196 0.839239 -0.114754
C27   C     C_R   0.329511 0.842861 0.878804 -0.115419
C28   C     C_R   0.995943 0.592275 0.298384 -0.175477
C29   C     C_R   0.310234 0.735969 0.822029 -0.115515
C30   C     C_R   0.212348 0.656122 0.726598 -0.122821
C31   C     C_R   0.133030 0.683553 0.687433 0.111819
C32   C     C_R   0.230979 0.026792 0.501182 -0.124506
C33   C     C_R   0.313454 0.005206 0.497412 -0.123539
C34   C     C_R   0.940659 0.501873 0.302974 0.064905
C35   C     C_R   0.332536 0.932452 0.529701 0.106812
C36   C     C_R   0.270108 0.883936 0.568709 -0.184774
C37   C     C_R   0.184257 0.901783 0.567194 -0.124086
C38   C     C_R   0.164818 0.973323 0.533798 -0.124592
C39   C     C_R   0.519538 0.984294 0.621715 -0.231106
C40   C     C_R   0.294928 0.590357 0.989716 -0.139111
C41   C     C_R   0.615505 0.016898 0.617605 0.057575
C42   C     C_R   0.616015 0.950203 0.524540 0.027471
C43   C     C_R   0.517999 0.864212 0.433635 -0.247886
C44   C     C_R   0.420865 0.851719 0.431035 0.070858
C45   C     C_R   0.685325 0.408457 0.950028 -0.167803
C46   C     C_R   0.422152 0.913042 0.527391 0.015271
C47   C     C_R   0.724078 0.016678 0.444384 -0.195609
C48   C     C_R   0.825136 0.069065 0.454247 -0.132399
C49   C     C_R   0.915355 0.078018 0.530763 -0.122775
C50   C     C_R   0.903983 0.031764 0.595194 -0.139912
C51   C     C_R   0.803528 0.980853 0.587143 -0.152388
C52   C     C_R   0.911198 0.409222 0.211227 -0.133418
C53   C     C_R   0.713888 0.976733 0.514379 0.125398
C54   C     C_3   0.474867 0.393869 0.849969 -0.390251
C55   C     C_3   0.368216 0.392815 0.833069 -0.420759
C56   C     C_R   0.023679 0.593383 0.782251 -0.106183
C57   C     C_3   0.553272 0.500417 0.052813 -0.425266
C58   C     C_3   0.572027 0.599757 0.946310 -0.388280
C59   C     C_3   0.571314 0.499726 0.957750 0.407794
C60   C     C_3   0.391659 0.497842 0.928802 0.416049
C61   C     C_3   0.450086 0.503147 0.037704 -0.376397
C62   C     C_3   0.465283 0.597880 0.927917 -0.439870
C63   C     C_R   0.150944 0.046318 0.792560 -0.198207
C64   C     C_R   0.219053 0.747498 0.312002 -0.120622
C65   C     C_R   0.118178 0.049851 0.869844 0.046597
C66   C     C_R   0.191101 0.130269 0.980246 0.084764
C67   C     C_R   0.791124 0.197399 0.699551 -0.146717
C68   C     C_R   0.296096 0.204556 0.011977 -0.195719
C69   C     C_R   0.327614 0.199377 0.934068 -0.139742
C70   C     C_R   0.255509 0.120814 0.824762 -0.124571
C71   C     C_R   0.170524 0.042707 0.084163 -0.220180
C72   C     C_R   0.098108 0.987644 0.110440 0.059297
C73   C     C_R   0.049511 0.042542 0.156718 0.013797
C74   C     C_R   0.068366 0.143234 0.164170 -0.237486
C75   C     C_R   0.103047 0.170913 0.097391 0.060742
C76   C     C_R   0.069615 0.254639 0.975080 -0.138463
C77   C     C_R   0.162176 0.123943 0.062618 0.044408
C78   C     C_R   0.003992 0.804635 0.098083 -0.111845
C79   C     C_R   0.853050 0.948857 0.094177 -0.122597
C80   C     C_R   0.767533 0.908585 0.112736 -0.136181
C81   C     C_R   0.787566 0.907417 0.209167 -0.100228
C82   C     C_R   0.893325 0.947836 0.287475 -0.114114
C83   C     C_R   0.979482 0.994374 0.272075 -0.199166
C84   C     C_R   0.959578 0.991134 0.173550 0.124057
C85   C     C_R   0.054609 0.226131 0.049384 0.060445
C86   C     C_R   0.091863 0.805446 0.006087 -0.150456
H1    H     H_    0.942059 0.237721 0.113621 0.095001
H2    H     H_    0.715430 0.433232 0.216614 0.112093
H3    H     H_    0.378104 0.773832 0.205006 0.090313
H4    H     H_    0.752719 0.206628 0.322965 0.104516
H5    H     H_    0.603538 0.051010 0.143329 0.100241
H6    H     H_    0.788799 0.366214 0.482936 0.129988
H7    H     H_    0.081890 0.658560 0.499744 0.131629
H8    H     H_    0.093109 0.813748 0.714481 0.109605
H9    H     H_    0.266962 0.953947 0.883984 0.139423
H10   H     H_    0.404499 0.903348 0.953775 0.094798
H11   H     H_    0.371186 0.715396 0.852869 0.096934
H12   H     H_    0.047610 0.678195 0.807065 0.116532
H13   H     H_    0.197624 0.572938 0.684268 0.107207
H14   H     H_    0.099447 0.988392 0.534552 0.099628
H15   H     H_    0.174372 0.322608 0.842173 0.101687
H16   H     H_    0.218877 0.085266 0.479131 0.101981
H17   H     H_    0.363242 0.045874 0.470381 0.111606
H18   H     H_    0.285154 0.829238 0.595816 0.128253
H19   H     H_    0.132667 0.860288 0.591816 0.114310
H20   H     H_    0.516272 0.030042 0.692540 0.124807
H21   H     H_    0.517914 0.814846 0.361475 0.123360
H22   H     H_    0.655922 0.015085 0.388496 0.115415
H23   H     H_    0.821151 0.176827 0.645085 0.139182
H24   H     H_    0.833981 0.104767 0.404198 0.123170
H25   H     H_    0.993954 0.120100 0.539546 0.104800
H26   H     H_    0.973881 0.039706 0.654483 0.112736
H27   H     H_    0.018326 0.676627 0.349583 0.106545
H28   H     H_    0.796831 0.951294 0.642052 0.108128
H29   H     H_    0.468383 0.318079 0.851389 0.142060
H30   H     H_    0.486223 0.390541 0.779989 0.160265
H31   H     H_    0.326914 0.388943 0.754819 0.153903
H32   H     H_    0.314385 0.317438 0.827420 0.163134
H33   H     H_    0.548709 0.426446 0.057093 0.149174
H34   H     H_    0.993257 0.834291 0.166446 0.117140
H35   H     H_    0.397175 0.433136 0.040574 0.165046
H36   H     H_    0.637087 0.679083 0.019278 0.171202
H37   H     H_    0.584924 0.597748 0.877382 0.157607
H38   H     H_    0.424629 0.591105 0.848103 0.156558
H39   H     H_    0.349345 0.675702 0.020792 0.087040
H40   H     H_    0.483618 0.677109 0.992264 0.143911
H41   H     H_    0.619856 0.570801 0.132956 0.151067
H42   H     H_    0.470187 0.580262 0.107032 0.153973
H43   H     H_    0.281292 0.117385 0.765366 0.134943
H44   H     H_    0.096205 0.983914 0.708100 0.106669
H45   H     H_    0.150370 0.833317 0.981800 0.103478
H46   H     H_    0.353902 0.264476 0.096831 0.128206
H47   H     H_    0.408195 0.255664 0.958136 0.113420
H48   H     H_    0.216533 0.008533 0.057796 0.120899
H49   H     H_    0.033750 0.185487 0.202802 0.128297
H50   H     H_    0.859868 0.324335 0.184309 0.113989
H51   H     H_    0.836712 0.948904 0.018881 0.111223
H52   H     H_    0.685703 0.876930 0.051828 0.104404
H53   H     H_    0.721058 0.872962 0.222161 0.105850
H54   H     H_    0.908566 0.941491 0.359330 0.124329
H55   H     H_    0.061002 0.028365 0.334320 0.110583
H56   H     H_    0.658238 0.168782 0.829859 0.087846
H57   H     H_    0.193806 0.745420 0.370038 0.121593
H58   H     H_    0.126178 0.252698 0.947274 0.122636
H59   H     H_    0.623757 0.322893 0.903028 0.100488
H60   H     H_    0.759433 0.695586 0.164265 0.083256
H61   H     H_    0.883085 0.730018 0.195695 0.098910
H62   H     H_    0.002473 0.891875 0.798406 0.099297
H63   H     H_    0.956156 0.977319 0.781527 0.096711
H64   H     H_    0.898006 0.325359 0.619869 0.105036
H65   H     H_    0.515189 0.085465 0.998101 0.102100
H66   H     H_    0.573866 0.275514 0.034876 0.091574
N1    N     N_R   0.947080 0.293830 0.002870 -0.041579
N2    N     N_R   0.153670 0.443180 0.946090 -0.036726
N3    N     N_R   0.002360 0.556820 0.208890 -0.040108
N4    N     N_R   0.210070 0.556820 0.002870 -0.033777
N5    N     N_R   0.945960 0.443180 0.152110 -0.038999
N6    N     N_R   0.151710 0.706170 0.208890 -0.045041
N7    N     N_R   0.004320 0.293830 0.946090 -0.042320
N8    N     N_R   0.789930 0.443180 0.997130 -0.039547
N9    N     N_3   0.808876 0.701280 0.129908 -0.207790
N10   N     N_3   0.012193 0.970409 0.837434 -0.212633
N11   N     N_R   0.054040 0.556820 0.847890 -0.039630
N12   N     N_R   0.848290 0.293830 0.791110 -0.042483
N13   N     N_R   0.995680 0.706170 0.053910 -0.045292
N14   N     N_R   0.052920 0.706170 0.997130 -0.042709
N15   N     N_R   0.791050 0.293830 0.847890 -0.037946
N16   N     N_R   0.846330 0.556820 0.053910 -0.052962
N17   N     N_R   0.997640 0.443180 0.791110 -0.039322
N18   N     N_R   0.208950 0.706170 0.152110 -0.039770
Ni1   Ni    Ni4+2 0.869690 0.369690 0.000000 0.211459
Ni2   Ni    Ni4+2 0.130310 0.630310 0.000000 0.215569
Ni3   Ni    Ni4+2 0.000970 0.369690 0.869780 0.215145
Ni4   Ni    Ni4+2 0.999030 0.630310 0.130220 0.205195

loop_
_geom_bond_atom_site_label_1
_geom_bond_atom_site_label_2
_ccdc_geom_bond_type
C25   C31   A    
C39   H20   S    
C66   C68   A    
C63   C65   A    
C76   N7    A    
C58   C62   S    
N13   N14   A    
C6    C45   A    
C27   C29   A    
C41   C42   A    
C48   H24   S    
C35   C36   A    
C86   N14   A    
C9    C72   S    
C56   H12   S    
C3    C6    A    
C71   H48   S    
C62   H38   S    
C81   C82   A    
C39   C41   A    
C78   H34   S    
N14   Ni2   S    
C56   N11   A    
C26   C27   A    
C29   C30   A    
C4    N18   A    
C18   C24   A    
C22   C24   A    
C61   H35   S    
C36   C37   A    
C42   C53   S    
C30   C31   A    
C12   C64   A    
C86   H45   S    
C57   C59   S    
N3    N5    A    
C40   H39   S    
C10   C17   A    
C23   C40   A    
C26   H9    S    
C60   C62   S    
C18   C19   A    
C73   C74   A    
C63   H44   S    
C1    H1    S    
C68   H46   S    
C14   H4    S    
C82   H54   S    
C13   C14   A    
C10   H66   S    
C67   N12   A    
N6    Ni4   S    
N17   Ni3   S    
C83   C84   A    
C68   C69   A    
C54   H30   S    
C65   N10   S    
C28   N3    A    
C32   C38   A    
C4    C12   A    
C73   C84   S    
N2    N4    A    
C57   H33   S    
C28   C34   A    
C25   H8    S    
C55   C60   S    
C74   H49   S    
C27   H10   S    
C17   H65   S    
C45   N8    A    
C7    C56   A    
C44   C46   A    
C3    N16   A    
C5    C7    A    
C54   C59   S    
C1    C85   A    
C23   C60   S    
C22   C34   S    
H60   N9    S    
C58   H36   S    
C51   H28   S    
C74   C75   A    
C8    C41   S    
C72   C73   A    
C38   H14   S    
H61   N9    S    
C62   H40   S    
N6    N18   A    
N15   Ni1   S    
C52   H50   S    
N13   Ni4   S    
C30   H13   S    
N4    Ni2   S    
C70   H43   S    
C5    H64   S    
C13   C24   S    
C60   C61   S    
C51   C53   A    
N1    N7    A    
N16   Ni4   S    
C43   C44   A    
C37   H19   S    
C37   C38   A    
C9    C86   A    
C47   C48   A    
C63   C70   A    
C11   H2    S    
C54   H29   S    
N1    Ni1   S    
C50   H26   S    
C50   C51   A    
C58   H37   S    
N12   Ni3   S    
C43   H21   S    
C1    N1    A    
N11   Ni2   S    
C75   C77   A    
C39   C46   A    
C76   H58   S    
N3    Ni4   S    
C48   C49   A    
C79   H51   S    
C47   H22   S    
C16   C23   A    
C7    C19   S    
C10   C11   A    
C16   N2    A    
C2    H56   S    
C49   C50   A    
C45   H59   S    
C58   C59   S    
C42   C43   A    
C71   C77   A    
C75   C85   S    
C4    H3    S    
C55   H31   S    
C52   N5    A    
C15   C17   A    
C66   C77   S    
C54   C55   S    
C78   N13   A    
C69   H47   S    
N2    Ni3   S    
C33   H17   S    
C6    C59   S    
N12   N15   A    
C2    C8    A    
C80   C81   A    
C57   H41   S    
C57   C61   S    
C64   H57   S    
C29   H11   S    
C34   C52   A    
C81   H53   S    
C49   H25   S    
C36   H18   S    
C83   H55   S    
C18   H6    S    
C32   C33   A    
C19   C20   A    
C25   C26   A    
H62   N10   S    
C71   C72   A    
C12   C44   S    
N5    Ni1   S    
C11   C13   A    
C67   H23   S    
C79   C84   A    
C21   H7    S    
C80   H52   S    
C47   C53   A    
C76   C85   A    
C33   C35   A    
N8    Ni1   S    
C61   H42   S    
C32   H16   S    
C9    C78   A    
N8    N16   A    
C69   C70   A    
N11   N17   A    
C28   H27   S    
C3    N9    S    
C15   H5    S    
C79   C80   A    
C16   H15   S    
C20   C21   A    
C8    C67   A    
C65   C66   A    
N7    Ni3   S    
C64   N6    A    
C5    N17   A    
C14   C15   A    
C40   N4    A    
H63   N10   S    
N18   Ni2   S    
C82   C83   A    
C21   C22   A    
C35   C46   S    
C2    N15   A    
C55   H32   S    
C20   C31   S    
