data_mof_unit_15741.cif
_audit_creation_date              2013-03-05T16:11:43-0500
_audit_creation_method            fapswitch 2.2
_symmetry_space_group_name_H-M    P1
_symmetry_Int_Tables_number       1
_space_group_crystal_system       triclinic
_cell_length_a                    10.716914
_cell_length_b                    9.845158
_cell_length_c                    10.633428
_cell_angle_alpha                 88.79626
_cell_angle_beta                  90.279663
_cell_angle_gamma                 89.914571
_cell_volume                      1121.66754114

loop_
_atom_site_label
_atom_site_type_symbol
_atom_site_description
_atom_site_fract_x
_atom_site_fract_y
_atom_site_fract_z
_atom_type_partial_charge
O1    O     O_R   0.316770 0.614620 0.499990 -0.601693
O2    O     O_R   0.683230 0.385380 0.500010 -0.601669
O3    O     O_R   0.683230 0.614620 0.500010 -0.598351
O4    O     O_R   0.316770 0.385380 0.499990 -0.598360
C1    C     C_R   0.872297 0.500539 0.501761 -0.313292
C2    C     C_R   0.127706 0.499463 0.498226 -0.313290
C3    C     C_R   0.260204 0.499995 0.498995 1.033122
C4    C     C_R   0.739797 0.500006 0.501002 1.033068
O5    O     O_R   0.499970 0.614650 0.313950 -0.588075
O6    O     O_R   0.500030 0.385350 0.686050 -0.588092
O7    O     O_R   0.500030 0.614650 0.686050 -0.595147
O8    O     O_R   0.499970 0.385350 0.313950 -0.595142
C5    C     C_R   0.500213 0.501396 0.257884 1.082904
C6    C     C_R   0.499787 0.498604 0.742116 1.082888
Zn1   Zn    Zn3+2 0.500000 0.653120 0.500000 1.105306
Zn2   Zn    Zn3+2 0.500000 0.346880 0.500000 1.105314
N1    N     N_R   0.500000 0.857200 0.500000 -0.125516
N2    N     N_R   0.500000 0.142800 0.500000 -0.125523
C7    C     C_3   0.502699 0.629398 0.035876 0.155727
C8    C     C_3   0.497303 0.370601 0.964124 0.155727
C9    C     C_3   0.603186 0.560355 0.956506 0.141870
C10   C     C_3   0.396817 0.439643 0.043494 0.141887
C11   C     C_3   0.399431 0.565565 0.955772 0.132558
C12   C     C_3   0.600571 0.434434 0.044228 0.132551
C13   C     C_3   0.499897 0.496520 0.875611 -0.380303
C14   C     C_3   0.500104 0.503479 0.124388 -0.380298
C15   C     C_R   0.583934 0.070122 0.571331 0.042542
C16   C     C_R   0.416061 0.929877 0.428673 0.042496
C17   C     C_R   0.416037 0.073699 0.428572 0.034622
C18   C     C_R   0.583961 0.926301 0.571430 0.034653
C19   C     C_R   0.065401 0.401794 0.573026 0.217360
C20   C     C_R   0.934601 0.598209 0.426961 0.217394
C21   C     C_R   0.936504 0.402734 0.575586 0.216015
C22   C     C_R   0.063501 0.597261 0.424386 0.215945
H1    H     H_    0.650917 0.123154 0.628279 0.214817
H2    H     H_    0.349069 0.876845 0.371734 0.214774
H3    H     H_    0.348872 0.129508 0.371413 0.196038
H4    H     H_    0.651125 0.870492 0.628591 0.196035
N3    N     N_R   0.287736 0.636722 0.910405 0.283342
O9    O     O_R   0.209152 0.685789 0.990386 -0.181652
O10   O     O_R   0.263101 0.647249 0.790799 -0.330255
N4    N     N_R   0.712266 0.363278 0.089597 0.283342
O11   O     O_R   0.790850 0.314207 0.009620 -0.181654
O12   O     O_R   0.736901 0.352758 0.209204 -0.330256
N5    N     N_R   0.503324 0.770881 0.074020 0.271440
O13   O     O_R   0.595059 0.850657 0.042519 -0.237557
O14   O     O_R   0.408277 0.820205 0.133336 -0.284357
N6    N     N_R   0.496679 0.229119 0.925979 0.271437
O15   O     O_R   0.404940 0.149343 0.957475 -0.237558
O16   O     O_R   0.591727 0.179793 0.866666 -0.284375
N7    N     N_R   0.717851 0.624707 0.911543 0.287424
O17   O     O_R   0.802407 0.662206 0.991577 -0.185478
O18   O     O_R   0.737615 0.643453 0.791957 -0.353429
N8    N     N_R   0.282151 0.375288 0.088452 0.287436
O19   O     O_R   0.197591 0.337806 0.008415 -0.185489
O20   O     O_R   0.262400 0.356504 0.208036 -0.353405
N9    N     N_R   0.132958 0.307818 0.652946 0.266297
O21   O     O_R   0.200152 0.352767 0.745233 -0.299629
O22   O     O_R   0.144580 0.181765 0.620487 -0.266460
N10   N     N_R   0.867037 0.692189 0.347051 0.266336
O23   O     O_R   0.799867 0.647245 0.254746 -0.299596
O24   O     O_R   0.855366 0.818217 0.379543 -0.266488
N11   N     N_R   0.871634 0.310896 0.659402 0.245406
O25   O     O_R   0.891058 0.180613 0.655023 -0.274622
O26   O     O_R   0.793729 0.357574 0.741363 -0.310944
N12   N     N_R   0.128377 0.689065 0.340538 0.245386
O27   O     O_R   0.108828 0.819329 0.344734 -0.274456
O28   O     O_R   0.206347 0.642355 0.258656 -0.311046

loop_
_geom_bond_atom_site_label_1
_geom_bond_atom_site_label_2
_geom_bond_distance
_ccdc_geom_bond_type
O4    Zn2   1.999353 S    
C1    C4    1.419987 S    
N12   O28   1.300213 A    
C19   C21   1.381797 A    
C2    C3    1.419972 S    
O1    Zn1   2.000464 S    
O2    Zn2   2.000463 S    
N2    C15   1.365662 A    
C7    C11   1.536437 S    
O6    C6    1.275378 A    
C21   N11   1.438477 S    
C1    C20   1.406440 A    
C2    C22   1.406408 A    
N11   O26   1.300230 A    
C19   N9    1.435742 S    
N6    O16   1.299567 A    
N12   O27   1.300883 A    
O5    Zn1   2.022075 S    
O3    Zn1   1.999352 S    
C10   N8    1.461299 S    
N2    C17   1.366108 A    
O6    Zn2   2.022074 S    
N5    O13   1.300025 A    
C15   C18   1.415918 A    
N1    C18   1.366104 A    
C22   N12   1.438514 S    
N9    O21   1.299887 A    
C8    N6    1.458943 S    
N4    O12   1.299650 A    
O4    C3    1.279956 A    
C11   N3    1.460832 S    
Zn2   N2    2.009200 S    
C16   C17   1.415921 A    
C7    C9    1.537811 S    
C12   C14   1.542402 S    
C2    C19   1.406428 A    
C1    C21   1.406387 A    
N5    O14   1.299567 A    
C6    C13   1.419230 S    
N10   O24   1.300956 A    
O7    C6    1.277546 A    
N8    O20   1.299537 A    
C5    C14   1.419230 S    
N9    O22   1.301034 A    
N4    O11   1.299592 A    
C20   N10   1.435734 S    
N11   O25   1.300969 A    
O8    Zn2   2.006446 S    
C9    N7    1.461299 S    
C11   C13   1.542401 S    
C12   N4    1.460833 S    
O8    C5    1.277545 A    
C16   H2    1.079253 S    
N3    O10   1.299651 A    
O3    C4    1.279958 A    
C10   C14   1.541326 S    
C9    C12   1.536079 S    
C17   H3    1.081643 S    
N3    O9    1.299593 A    
Zn1   N1    2.009200 S    
C7    C14   1.541037 S    
C9    C13   1.541325 S    
N8    O19   1.299386 A    
N6    O15   1.300026 A    
O1    C3    1.282034 A    
O5    C5    1.275380 A    
C18   H4    1.081643 S    
C15   H1    1.079242 S    
C10   C11   1.536079 S    
N1    C16   1.365668 A    
O7    Zn1   2.006445 S    
C8    C12   1.536438 S    
O2    C4    1.282040 A    
C7    N5    1.458944 S    
N7    O17   1.299386 A    
C8    C10   1.537808 S    
N10   O23   1.299870 A    
N7    O18   1.299538 A    
C8    C13   1.541035 S    
C20   C22   1.381838 A    
