data_mof_unit_25278.cif
_audit_creation_date              2012-12-11T14:54:33-0500
_audit_creation_method            fapswitch 2.2
_symmetry_space_group_name_H-M    P1
_symmetry_Int_Tables_number       1
_space_group_crystal_system       triclinic
_cell_length_a                    18.943974
_cell_length_b                    10.976964
_cell_length_c                    18.804314
_cell_angle_alpha                 90.138473
_cell_angle_beta                  90.022935
_cell_angle_gamma                 89.829325
_cell_volume                      3910.27764123

loop_
_atom_site_label
_atom_site_type_symbol
_atom_type_description
_atom_site_fract_x
_atom_site_fract_y
_atom_site_fract_z
_atom_type_partial_charge
C1    C     C_R   0.731344 0.378227 0.646538 0.548201
C2    C     C_R   0.301132 0.866067 0.461098 -0.139793
C3    C     C_R   0.955731 0.560856 0.474516 -0.141918
C4    C     C_3   0.595619 0.873863 0.397431 0.001581
C5    C     C_3   0.576044 0.792775 0.460708 -0.425979
C6    C     C_3   0.358689 0.662041 0.535936 0.006038
C7    C     C_3   0.427862 0.648134 0.496338 -0.415943
C8    C     C_3   0.095619 0.373864 0.397431 0.001581
C9    C     C_3   0.076044 0.292776 0.460707 -0.425979
C10   C     C_3   0.858690 0.162042 0.535937 0.006037
C11   C     C_3   0.927863 0.148134 0.496339 -0.415944
C12   C     C_R   0.190247 0.465764 0.528919 -0.109837
C13   C     C_R   0.801132 0.366068 0.461098 -0.139792
C14   C     C_R   0.694911 0.944321 0.456231 0.250662
C15   C     C_R   0.301964 0.851116 0.535095 0.255723
C16   C     C_R   0.194911 0.444322 0.456231 0.250662
C17   C     C_R   0.801964 0.351116 0.535095 0.255723
C18   C     C_R   0.758053 0.895992 0.429267 0.035854
C19   C     C_R   0.253788 0.920451 0.576601 0.037775
C20   C     C_R   0.258053 0.395992 0.429267 0.035854
C21   C     C_R   0.270179 0.375680 0.354536 0.570491
C22   C     C_R   0.753788 0.420451 0.576601 0.037775
C23   C     C_R   0.811810 0.857395 0.475643 -0.178738
C24   C     C_R   0.213070 0.011748 0.544926 -0.190520
C25   C     C_R   0.311810 0.357394 0.475643 -0.178738
C26   C     C_R   0.713070 0.511748 0.544926 -0.190520
C27   C     C_R   0.805407 0.873718 0.548283 -0.188309
C28   C     C_R   0.212167 0.023126 0.472146 -0.155360
C29   C     C_R   0.305406 0.373718 0.548283 -0.188309
C30   C     C_R   0.712166 0.523126 0.472146 -0.155360
C31   C     C_R   0.745163 0.930223 0.574647 -0.031149
C32   C     C_R   0.231344 0.878227 0.646538 0.548202
C33   C     C_R   0.254505 0.947772 0.429722 -0.015298
C34   C     C_R   0.245163 0.430223 0.574647 -0.031149
C35   C     C_R   0.754505 0.447772 0.429722 -0.015298
C36   C     C_R   0.498603 0.055691 0.963192 -0.136386
C37   C     C_R   0.499775 0.055215 0.035968 -0.135876
C38   C     C_R   0.998603 0.555690 0.963192 -0.136386
C39   C     C_R   0.999775 0.555215 0.035968 -0.135876
C40   C     C_R   0.493902 0.164476 0.073805 0.029030
C41   C     C_R   0.505793 0.165157 0.926106 0.028169
C42   C     C_R   0.993903 0.664476 0.073805 0.029030
C43   C     C_R   0.770179 0.875680 0.354536 0.570491
C44   C     C_R   0.005793 0.665157 0.926106 0.028169
C45   C     C_R   0.496312 0.275908 0.037223 -0.127673
C46   C     C_R   0.504547 0.276201 0.963443 -0.127899
C47   C     C_R   0.996311 0.775908 0.037223 -0.127673
C48   C     C_R   0.004547 0.776201 0.963443 -0.127899
C49   C     C_R   0.531717 0.155661 0.646872 0.540932
C50   C     C_R   0.463711 0.154186 0.355935 0.558228
C51   C     C_R   0.031717 0.655661 0.646872 0.540932
C52   C     C_R   0.963712 0.654186 0.355935 0.558227
C53   C     C_R   0.780167 0.051442 0.979155 -0.182263
C54   C     C_3   0.558503 0.347051 0.449833 -0.272066
C55   C     C_R   0.220124 0.052374 0.020982 -0.182892
C56   C     C_R   0.280167 0.551442 0.979155 -0.182263
C57   C     C_R   0.720124 0.552374 0.020982 -0.182892
C58   C     C_R   0.788330 0.024206 0.050236 -0.173787
C59   C     C_R   0.211882 0.025117 0.949858 -0.174737
C60   C     C_R   0.288330 0.524206 0.050236 -0.173787
C61   C     C_R   0.711882 0.525117 0.949858 -0.174737
C62   C     C_R   0.744939 0.937298 0.082596 0.027987
C63   C     C_R   0.255158 0.937558 0.917368 0.027100
C64   C     C_R   0.244939 0.437298 0.082596 0.027987
C65   C     C_3   0.569882 0.351000 0.529551 -0.240173
C66   C     C_R   0.755158 0.437558 0.917368 0.027100
C67   C     C_R   0.687034 0.889183 0.045472 0.261954
C68   C     C_R   0.313024 0.888659 0.954394 0.262022
C69   C     C_R   0.187034 0.389183 0.045472 0.261954
C70   C     C_R   0.813023 0.388659 0.954394 0.262023
C71   C     C_R   0.681437 0.910306 0.972041 0.211732
C72   C     C_R   0.318623 0.909709 0.027858 0.211613
C73   C     C_R   0.181437 0.410306 0.972041 0.211732
C74   C     C_R   0.818623 0.409709 0.027858 0.211613
C75   C     C_R   0.729574 0.991252 0.938238 -0.004344
C76   C     C_3   0.058503 0.847051 0.449833 -0.272065
C77   C     C_R   0.270620 0.991471 0.061771 -0.004228
C78   C     C_R   0.229574 0.491252 0.938238 -0.004344
C79   C     C_R   0.770620 0.491471 0.061771 -0.004228
C80   C     C_R   0.741093 0.969067 0.647599 0.546052
C81   C     C_R   0.259872 0.975197 0.354721 0.560750
C82   C     C_R   0.241093 0.469067 0.647599 0.546051
C83   C     C_R   0.759872 0.475197 0.354721 0.560750
C84   C     C_R   0.731161 0.382263 0.850848 0.565443
C85   C     C_R   0.268859 0.382039 0.149122 0.571105
C86   C     C_R   0.231161 0.882263 0.850848 0.565443
C87   C     C_3   0.069882 0.851000 0.529551 -0.240173
C88   C     C_R   0.768859 0.882039 0.149122 0.571105
C89   C     C_R   0.532127 0.157311 0.853520 0.540885
C90   C     C_R   0.467814 0.156974 0.146457 0.546309
C91   C     C_R   0.032128 0.657311 0.853520 0.540885
C92   C     C_R   0.967813 0.656974 0.146457 0.546309
C93   C     C_R   0.727471 0.018960 0.861828 0.565416
C94   C     C_R   0.272600 0.019151 0.138204 0.571117
C95   C     C_R   0.227471 0.518960 0.861828 0.565416
C96   C     C_R   0.772600 0.519151 0.138204 0.571117
C97   C     C_R   0.477761 0.158838 0.431515 0.038635
C98   C     C_R   0.690248 0.965763 0.528919 -0.109837
C99   C     C_R   0.496118 0.167534 0.579036 0.007163
C100  C     C_R   0.977761 0.658838 0.431515 0.038635
C101  C     C_R   0.996119 0.667534 0.579036 0.007163
C102  C     C_R   0.496727 0.267461 0.464398 -0.003475
C103  C     C_R   0.506459 0.271545 0.537134 0.002018
C104  C     C_R   0.996727 0.767461 0.464398 -0.003475
C105  C     C_R   0.006459 0.771545 0.537134 0.002018
C106  C     C_R   0.464495 0.065351 0.547918 -0.154712
C107  C     C_R   0.455731 0.060856 0.474516 -0.141917
C108  C     C_R   0.964495 0.565351 0.547918 -0.154711
Cr1   Cr    Cr6+3 0.771950 0.169480 0.750100 1.078459
Cr2   Cr    Cr6+3 0.383410 0.010620 0.249390 1.020532
Cr3   Cr    Cr6+3 0.116590 0.510620 0.750610 1.036451
Cr4   Cr    Cr6+3 0.883410 0.510620 0.249390 1.020532
Cr5   Cr    Cr6+3 0.228050 0.169480 0.249900 1.038672
Cr6   Cr    Cr6+3 0.271950 0.669480 0.750100 1.078459
Cr7   Cr    Cr6+3 0.728050 0.669480 0.249900 1.038673
Cr8   Cr    Cr6+3 0.614930 0.323340 0.749170 1.016451
Cr9   Cr    Cr6+3 0.385070 0.323340 0.250830 1.020439
Cr10  Cr    Cr6+3 0.114930 0.823340 0.749170 1.016451
Cr11  Cr    Cr6+3 0.885070 0.823340 0.250830 1.020439
Cr12  Cr    Cr6+3 0.616590 0.010620 0.750610 1.036451
H1    H     H_    0.452944 0.984848 0.578980 0.172017
H2    H     H_    0.168549 0.067493 0.921466 0.190911
H3    H     H_    0.331689 0.566149 0.078698 0.190721
H4    H     H_    0.668549 0.567493 0.921466 0.190911
H5    H     H_    0.042608 0.936469 0.427199 0.135011
H6    H     H_    0.119196 0.803918 0.546116 0.157755
H7    H     H_    0.542608 0.436470 0.427199 0.135011
H8    H     H_    0.619196 0.303918 0.546116 0.157755
H9    H     H_    0.601448 0.299034 0.420633 0.162946
H10   H     H_    0.561211 0.442945 0.552917 0.143056
H11   H     H_    0.101448 0.799034 0.420633 0.162946
H12   H     H_    0.434339 0.978556 0.451372 0.141683
H13   H     H_    0.061211 0.942944 0.552917 0.143056
H14   H     H_    0.643577 0.011096 0.549502 0.151930
H15   H     H_    0.337076 0.816046 0.427518 0.121872
H16   H     H_    0.143577 0.511096 0.549502 0.151930
H17   H     H_    0.837076 0.316046 0.427518 0.121872
H18   H     H_    0.859034 0.814921 0.455126 0.147523
H19   H     H_    0.177489 0.068211 0.575943 0.139879
H20   H     H_    0.359034 0.314920 0.455126 0.147522
H21   H     H_    0.677489 0.568211 0.575943 0.139878
H22   H     H_    0.848149 0.847071 0.583306 0.135695
H23   H     H_    0.952944 0.484848 0.578980 0.172018
H24   H     H_    0.178410 0.091825 0.448981 0.145929
H25   H     H_    0.348149 0.347070 0.583306 0.135695
H26   H     H_    0.678410 0.591824 0.448980 0.145929
H27   H     H_    0.496469 0.968686 0.936277 0.147479
H28   H     H_    0.501170 0.967881 0.062279 0.145390
H29   H     H_    0.996469 0.468686 0.936277 0.147478
H30   H     H_    0.001170 0.467881 0.062279 0.145390
H31   H     H_    0.491149 0.361744 0.065289 0.140413
H32   H     H_    0.510741 0.362126 0.935989 0.141029
H33   H     H_    0.991149 0.861744 0.065289 0.140413
H34   H     H_    0.934339 0.478556 0.451372 0.141683
H35   H     H_    0.010741 0.862126 0.935989 0.141029
H36   H     H_    0.597224 0.801660 0.050464 0.347659
H37   H     H_    0.402739 0.799893 0.949231 0.347681
H38   H     H_    0.097224 0.301660 0.050464 0.347659
H39   H     H_    0.902739 0.299893 0.949231 0.347681
H40   H     H_    0.602153 0.897229 0.910153 0.349203
H41   H     H_    0.397450 0.894595 0.090377 0.348469
H42   H     H_    0.102153 0.397229 0.910153 0.349203
H43   H     H_    0.897450 0.394595 0.090377 0.348469
H44   H     H_    0.618650 0.817583 0.354830 0.168558
H45   H     H_    0.816322 0.115044 0.955221 0.204366
H46   H     H_    0.545657 0.907952 0.374527 0.176727
H47   H     H_    0.539752 0.841889 0.497148 0.159790
H48   H     H_    0.550928 0.709508 0.439344 0.093576
H49   H     H_    0.622489 0.761110 0.491245 0.142008
H50   H     H_    0.313236 0.636330 0.501383 0.126957
H51   H     H_    0.362082 0.594563 0.578759 0.199247
H52   H     H_    0.472286 0.657939 0.534443 0.152472
H53   H     H_    0.430833 0.556081 0.471857 0.121254
H54   H     H_    0.432453 0.716928 0.453822 0.138834
H55   H     H_    0.118650 0.317585 0.354829 0.168558
H56   H     H_    0.184034 0.116449 0.045079 0.204440
H57   H     H_    0.045657 0.407953 0.374527 0.176728
H58   H     H_    0.039752 0.341890 0.497147 0.159790
H59   H     H_    0.050927 0.209509 0.439343 0.093576
H60   H     H_    0.122489 0.261111 0.491244 0.142008
H61   H     H_    0.813237 0.136330 0.501384 0.126958
H62   H     H_    0.862083 0.094565 0.578761 0.199248
H63   H     H_    0.972287 0.157940 0.534443 0.152472
H64   H     H_    0.930833 0.056080 0.471858 0.121254
H65   H     H_    0.932453 0.216927 0.453822 0.138834
H66   H     H_    0.316322 0.615044 0.955221 0.204366
H67   H     H_    0.684034 0.616449 0.045079 0.204440
H68   H     H_    0.831689 0.066149 0.078698 0.190721
O1    O     O_R   0.787510 0.042610 0.670410 -0.519739
O2    O     O_R   0.454250 0.051070 0.169440 -0.540647
O3    O     O_R   0.045750 0.551070 0.830560 -0.539603
O4    O     O_R   0.954250 0.551070 0.169440 -0.540647
O5    O     O_R   0.681210 0.959150 0.825320 -0.477430
O6    O     O_R   0.318790 0.959150 0.174680 -0.475965
O7    O     O_R   0.181210 0.459150 0.825320 -0.477430
O8    O     O_R   0.818790 0.459150 0.174680 -0.475965
O9    O     O_3   0.667820 0.167810 0.749960 -0.288872
O10   O     O_3   0.332180 0.167810 0.250040 -0.285259
O11   O     O_3   0.167820 0.667810 0.749960 -0.288872
O12   O     O_R   0.212490 0.042610 0.329590 -0.525103
O13   O     O_3   0.832180 0.667810 0.250040 -0.285259
O14   O     O_R   0.765670 0.292090 0.675090 -0.451513
O15   O     O_R   0.234330 0.292090 0.324910 -0.518493
O16   O     O_R   0.265670 0.792090 0.675090 -0.451512
O17   O     O_R   0.734330 0.792090 0.324910 -0.518493
O18   O     O_R   0.670220 0.409020 0.668560 -0.540558
O19   O     O_R   0.329780 0.409020 0.331440 -0.523480
O20   O     O_R   0.170220 0.909020 0.668560 -0.540558
O21   O     O_R   0.829780 0.909020 0.331440 -0.523480
O22   O     O_R   0.556580 0.251590 0.674980 -0.499709
O23   O     O_R   0.287510 0.542610 0.670410 -0.519738
O24   O     O_R   0.443420 0.251590 0.325020 -0.500242
O25   O     O_R   0.056580 0.751590 0.674980 -0.499709
O26   O     O_R   0.943420 0.751590 0.325020 -0.500242
O27   O     O_R   0.545890 0.049670 0.670030 -0.517737
O28   O     O_R   0.454110 0.049670 0.329970 -0.537799
O29   O     O_R   0.045890 0.549670 0.670030 -0.517737
O30   O     O_R   0.954110 0.549670 0.329970 -0.537800
O31   O     O_R   0.681340 0.957860 0.676500 -0.497440
O32   O     O_R   0.318660 0.957860 0.323500 -0.503958
O33   O     O_R   0.181340 0.457860 0.676500 -0.497440
O34   O     O_R   0.712490 0.542610 0.329590 -0.525103
O35   O     O_R   0.818660 0.457860 0.323500 -0.503958
O36   O     O_R   0.787380 0.044010 0.830940 -0.497849
O37   O     O_R   0.212620 0.044010 0.169060 -0.496158
O38   O     O_R   0.287380 0.544010 0.830940 -0.497849
O39   O     O_R   0.712620 0.544010 0.169060 -0.496158
O40   O     O_R   0.765540 0.293390 0.823910 -0.455207
O41   O     O_R   0.234460 0.293390 0.176090 -0.456204
O42   O     O_R   0.265540 0.793390 0.823910 -0.455207
O43   O     O_R   0.734460 0.793390 0.176090 -0.456204
O44   O     O_R   0.670090 0.410410 0.829090 -0.533221
O45   O     O_R   0.556450 0.252890 0.823790 -0.501741
O46   O     O_R   0.329910 0.410410 0.170910 -0.532255
O47   O     O_R   0.170090 0.910410 0.829090 -0.533221
O48   O     O_R   0.829910 0.910410 0.170910 -0.532255
O49   O     O_3   0.638018 0.819630 0.081654 -0.698311
O50   O     O_3   0.361907 0.818164 0.918115 -0.695639
O51   O     O_3   0.138018 0.319630 0.081654 -0.698311
O52   O     O_3   0.861907 0.318163 0.918115 -0.695639
O53   O     O_3   0.634416 0.840329 0.934245 -0.719145
O54   O     O_3   0.365295 0.838610 0.065525 -0.720372
O55   O     O_3   0.134416 0.340329 0.934245 -0.719145
O56   O     O_R   0.443550 0.252890 0.176210 -0.500102
O57   O     O_3   0.865295 0.338610 0.065525 -0.720372
O58   O     O_3   0.638457 0.976560 0.413428 -0.570294
O59   O     O_3   0.352590 0.778486 0.568137 -0.550063
O60   O     O_3   0.138457 0.476561 0.413428 -0.570294
O61   O     O_3   0.852591 0.278488 0.568137 -0.550064
O62   O     O_R   0.056450 0.752890 0.823790 -0.501741
O63   O     O_R   0.943550 0.752890 0.176210 -0.500102
O64   O     O_R   0.545750 0.051070 0.830560 -0.539603

loop_
_geom_bond_atom_site_label_1
_geom_bond_atom_site_label_2
_ccdc_geom_bond_type
C58   C62   A    
C99   C103  A    
Cr3   O3    S    
C74   C79   A    
C89   O64   A    
C55   C59   A    
C43   O17   A    
C80   O1    A    
C21   O15   A    
C23   H18   S    
C46   H32   S    
Cr11  O13   S    
C80   O31   A    
C65   H10   S    
C8    H55   S    
C31   C80   S    
C82   O33   A    
C45   C46   A    
C51   O29   A    
Cr12  O27   S    
C15   C19   A    
C39   H30   S    
C41   C46   A    
C62   C67   A    
C61   H4    S    
Cr1   O14   S    
C13   C35   A    
C37   C40   A    
C90   O56   A    
Cr12  O31   S    
C90   O2    A    
C38   C39   A    
C55   C77   A    
C76   H11   S    
C31   C98   A    
C67   C71   A    
Cr2   O10   S    
C106  C107  A    
C19   C32   S    
C7    H54   S    
C7    H53   S    
C77   C94   S    
C100  C104  A    
C27   H22   S    
C56   C78   A    
Cr3   O33   S    
C5    H48   S    
C89   O45   A    
C54   H9    S    
C57   C79   A    
Cr4   O8    S    
Cr8   O22   S    
Cr7   O34   S    
C94   O37   A    
Cr3   O11   S    
C83   O34   A    
Cr1   O9    S    
C3    C100  A    
C12   C16   A    
Cr1   O1    S    
C8    C9    S    
C87   C105  S    
Cr8   O45   S    
C70   C74   A    
C12   H16   S    
H39   O52   S    
C4    H44   S    
C14   C98   A    
C28   H24   S    
C23   C27   A    
H40   O53   S    
C32   O20   A    
C26   H21   S    
Cr2   O32   S    
Cr10  O25   S    
C38   H29   S    
Cr7   O43   S    
C97   C102  A    
C9    H59   S    
C68   C72   A    
H38   O51   S    
C83   O35   A    
C51   O25   A    
C101  C108  A    
Cr5   O15   S    
C50   O24   A    
C1    C22   S    
Cr2   O6    S    
C11   H65   S    
C7    H52   S    
Cr8   O44   S    
C25   C29   A    
C76   H5    S    
C36   C41   A    
C53   C75   A    
C70   O52   S    
Cr4   O13   S    
C81   O12   A    
Cr5   O41   S    
C1    O14   A    
C61   C66   A    
C104  C105  A    
Cr1   O40   S    
C38   C44   A    
C30   H26   S    
C39   C42   A    
C6    H51   S    
C16   O60   S    
C24   H19   S    
C101  C105  A    
C40   C45   A    
C88   O48   A    
Cr10  O11   S    
Cr11  O21   S    
Cr4   O30   S    
C58   H68   S    
C85   O46   A    
C86   O42   A    
C65   H8    S    
C72   O54   S    
C6    O59   S    
C25   H20   S    
C85   O41   A    
C71   O53   S    
Cr10  O62   S    
C43   O21   A    
C54   C65   S    
C74   O57   S    
C35   C83   S    
C87   H13   S    
C47   H33   S    
C10   H61   S    
C73   C78   A    
C27   C31   A    
C29   C34   A    
Cr2   O2    S    
C3    H34   S    
C56   C60   A    
C2    H15   S    
C45   H31   S    
C13   H17   S    
Cr6   O23   S    
C49   O22   A    
C60   H3    S    
Cr2   O28   S    
C76   C104  S    
C96   O39   A    
Cr7   O39   S    
C72   C77   A    
C1    O18   A    
Cr6   O38   S    
Cr11  O63   S    
C32   O16   A    
C49   C99   S    
Cr11  O48   S    
C36   H27   S    
Cr5   O37   S    
C47   C48   A    
C73   O55   S    
C50   O28   A    
C78   C95   S    
C16   C20   A    
C86   O47   A    
C52   O26   A    
Cr12  O9    S    
C11   H63   S    
C64   C69   A    
C69   C73   A    
C2    C15   A    
C69   O51   S    
C76   C87   S    
C4    O58   S    
H41   O54   S    
Cr1   O36   S    
Cr4   O4    S    
C30   C35   A    
C2    C33   A    
C53   H45   S    
C92   O63   A    
C48   H35   S    
C15   O59   S    
C28   C33   A    
C26   C30   A    
Cr6   O11   S    
Cr7   O17   S    
C63   C86   S    
C22   C26   A    
H36   O49   S    
Cr10  O20   S    
Cr6   O16   S    
H43   O57   S    
C65   C103  S    
C12   C34   A    
C84   O40   A    
C64   C85   S    
C75   C93   S    
C24   C28   A    
C82   O23   A    
C6    H50   S    
Cr5   O10   S    
C4    H46   S    
C99   C106  A    
C98   H14   S    
C63   C68   A    
C36   C37   A    
C50   C97   S    
C95   O7    A    
C41   C89   S    
C94   O6    A    
C52   O30   A    
C14   C18   A    
C54   C102  S    
Cr9   O24   S    
C93   O5    A    
C11   H64   S    
Cr12  O64   S    
Cr12  O5    S    
C56   H66   S    
C107  H12   S    
Cr9   O19   S    
Cr6   O42   S    
C53   C58   A    
C57   C61   A    
C6    C7    S    
C3    C108  A    
C51   C101  S    
Cr3   O29   S    
C54   H7    S    
C49   O27   A    
C59   C63   A    
C17   C22   A    
C13   C17   A    
C60   C64   A    
C10   O61   S    
C9    H60   S    
C108  H23   S    
C21   O19   A    
C19   C24   A    
C95   O38   A    
C79   C96   S    
C68   O50   S    
C18   C43   S    
C71   C75   A    
Cr8   O9    S    
C81   O32   A    
C66   C70   A    
C62   C88   S    
Cr9   O46   S    
C59   H2    S    
C18   C23   A    
C10   H62   S    
Cr7   O13   S    
C106  H1    S    
C17   O61   S    
Cr4   O35   S    
Cr5   O12   S    
C67   O49   S    
C8    H57   S    
C93   O36   A    
C42   C92   S    
C42   C47   A    
C5    H47   S    
C37   H28   S    
C91   O3    A    
C102  C103  A    
C84   O44   A    
C44   C91   S    
C55   H56   S    
C57   H67   S    
C10   C11   S    
C9    H58   S    
C66   C84   S    
C97   C107  A    
Cr9   O56   S    
C92   O4    A    
H37   O50   S    
C4    C5    S    
C88   O43   A    
C96   O8    A    
C20   C21   S    
C8    O60   S    
Cr11  O26   S    
C20   C25   A    
C52   C100  S    
C5    H49   S    
C34   C82   S    
C40   C90   S    
H42   O55   S    
Cr10  O47   S    
C33   C81   S    
C87   H6    S    
Cr8   O18   S    
Cr9   O10   S    
C44   C48   A    
C29   H25   S    
Cr3   O7    S    
C14   O58   S    
C91   O62   A    
