data_mof_unit_25704.cif
_audit_creation_date              2012-12-11T14:14:04-0500
_audit_creation_method            fapswitch 2.2
_symmetry_space_group_name_H-M    P1
_symmetry_Int_Tables_number       1
_space_group_crystal_system       triclinic
_cell_length_a                    17.519312
_cell_length_b                    7.27696
_cell_length_c                    16.720714
_cell_angle_alpha                 89.987909
_cell_angle_beta                  99.501443
_cell_angle_gamma                 90.020866
_cell_volume                      2102.43550403

loop_
_atom_site_label
_atom_site_type_symbol
_atom_type_description
_atom_site_fract_x
_atom_site_fract_y
_atom_site_fract_z
_atom_type_partial_charge
O1    O     O_R   0.414560 0.494370 0.416770 -0.529343
O2    O     O_R   0.585440 0.994370 0.583230 -0.531470
O3    O     O_R   0.578370 0.819590 0.429320 -0.527984
O4    O     O_R   0.421630 0.319590 0.570680 -0.537028
C1    C     C_R   0.602677 0.654506 0.411862 0.870252
C2    C     C_R   0.397268 0.154456 0.588058 0.861886
O5    O     O_R   0.414740 0.823790 0.407360 -0.498522
O6    O     O_R   0.585260 0.323790 0.592640 -0.500117
O7    O     O_R   0.420650 0.998510 0.561120 -0.527360
O8    O     O_R   0.579350 0.498510 0.438880 -0.521559
C3    C     C_R   0.390189 0.655091 0.383470 0.733833
C4    C     C_R   0.609803 0.155086 0.616533 0.733151
O9    O     O_3   0.502130 0.662240 0.550470 -0.380977
O10   O     O_3   0.497870 0.162240 0.449530 -0.364421
V1    V     V_3+5 0.499600 0.935390 0.490640 1.832989
V2    V     V_3+5 0.500400 0.435390 0.509360 1.817228
C5    C     C_2   0.803399 0.202796 0.755006 0.308538
C6    C     C_2   0.196606 0.702754 0.244990 0.309293
C7    C     C_2   0.814998 0.123600 0.829516 -0.313923
C8    C     C_2   0.185008 0.623560 0.170493 -0.314128
H1    H     H_    0.766381 0.102763 0.860240 0.193902
H2    H     H_    0.233627 0.602512 0.139811 0.194409
C9    C     C_2   0.724212 0.258797 0.714905 0.196688
C10   C     C_2   0.275799 0.758841 0.285102 0.196697
C11   C     C_2   0.665494 0.137379 0.693520 0.172670
C12   C     C_2   0.334518 0.637467 0.306462 0.175531
C13   C     C_R   0.337564 0.135271 0.642057 -0.347401
C14   C     C_R   0.662331 0.635435 0.357781 -0.343180
C15   C     C_R   0.166995 0.121448 0.864219 -0.245682
C16   C     C_R   0.832913 0.621309 0.135652 -0.245786
C17   C     C_R   0.286627 0.268944 0.843514 0.060278
C18   C     C_R   0.713213 0.768677 0.156148 0.059347
C19   C     C_R   0.229991 0.238590 0.890963 0.313099
C20   C     C_R   0.769929 0.738358 0.108794 0.315539
C21   C     C_R   0.165423 0.021472 0.790254 0.410735
C22   C     C_R   0.834365 0.521321 0.209601 0.410867
C23   C     C_R   0.228513 0.041779 0.745358 -0.199223
C24   C     C_R   0.771264 0.541836 0.254428 -0.203282
C25   C     C_R   0.286918 0.176108 0.769878 -0.111743
C26   C     C_R   0.712903 0.676086 0.229859 -0.120026
C27   C     C_R   0.345945 0.210948 0.721766 0.380704
C28   C     C_R   0.653902 0.710969 0.277998 0.412008
C29   C     C_R   0.277264 0.007988 0.618362 0.262138
C30   C     C_R   0.722610 0.508142 0.381437 0.262805
C31   C     C_R   0.234906 0.936840 0.675204 0.483334
C32   C     C_R   0.764784 0.436862 0.324510 0.484562
H3    H     H_    0.329678 0.370957 0.865405 0.236651
H4    H     H_    0.670117 0.870421 0.134107 0.229010
O11   O     O_R   0.920750 0.773600 0.061260 -0.507458
O12   O     O_R   0.079250 0.273600 0.938740 -0.507357
O13   O     O_R   0.085340 0.439850 0.092570 -0.523525
O14   O     O_R   0.914660 0.939850 0.907430 -0.523518
C33   C     C_R   0.110905 0.609321 0.114938 0.834881
C34   C     C_R   0.889097 0.109325 0.885063 0.834907
O15   O     O_R   0.921720 0.444130 0.070790 -0.533778
O16   O     O_R   0.078280 0.944130 0.929210 -0.533814
O17   O     O_R   0.914480 0.269530 0.916840 -0.539841
O18   O     O_R   0.085520 0.769530 0.083160 -0.539866
C35   C     C_R   0.896506 0.612005 0.086228 0.834958
C36   C     C_R   0.103481 0.112059 0.913755 0.835219
O19   O     O_3   0.997840 0.601520 0.949550 -0.376581
O20   O     O_3   0.002160 0.101520 0.050450 -0.376657
V3    V     V_3+5 0.000400 0.328340 0.009360 1.721897
V4    V     V_3+5 0.999600 0.828340 0.990640 1.721879
S1    S     S_3+6 0.880529 0.272234 0.704393 0.148073
O21   O     O_2   0.856313 0.434441 0.650589 -0.217314
O22   O     O_2   0.951591 0.324607 0.763160 -0.286335
O23   O     O_3   0.900761 0.097624 0.645516 -0.438330
H5    H     H_    0.935040 0.151327 0.610099 0.430124
S2    S     S_3+6 0.119450 0.771972 0.295567 0.148120
O24   O     O_2   0.143622 0.934274 0.349320 -0.217030
O25   O     O_2   0.048375 0.824083 0.236778 -0.287001
O26   O     O_3   0.099246 0.597308 0.354480 -0.438144
H6    H     H_    0.064545 0.650641 0.389515 0.430160
S3    S     S_3+6 0.079514 0.899396 0.747123 0.148788
O27   O     O_2   0.065614 0.920270 0.656473 -0.249408
O28   O     O_2   0.087685 0.699545 0.769467 -0.249710
O29   O     O_3   0.000671 0.976591 0.780467 -0.489469
H7    H     H_    0.961471 0.878652 0.766179 0.395771
S4    S     S_3+6 0.920044 0.398428 0.252721 0.147324
O30   O     O_2   0.933759 0.418137 0.343420 -0.250175
O31   O     O_2   0.911627 0.198852 0.229954 -0.250891
O32   O     O_3   0.999092 0.475762 0.219739 -0.489289
H8    H     H_    0.038180 0.377600 0.233937 0.395883
S5    S     S_3+6 0.705006 0.496422 0.718848 0.182451
O33   O     O_2   0.697785 0.582117 0.636265 -0.259286
O34   O     O_2   0.630895 0.525653 0.751220 -0.226189
O35   O     O_3   0.778897 0.597542 0.780391 -0.430983
H9    H     H_    0.775814 0.550300 0.835352 0.351072
S6    S     S_3+6 0.295049 0.996488 0.281021 0.181730
O36   O     O_2   0.302343 0.082313 0.363570 -0.257488
O37   O     O_2   0.369134 0.025689 0.248583 -0.232524
O38   O     O_3   0.221179 0.097603 0.219473 -0.431036
H10   H     H_    0.224268 0.050435 0.164512 0.350450
S7    S     S_3+6 0.628745 0.014442 0.770886 0.129757
O39   O     O_2   0.550738 0.932964 0.739096 -0.286079
O40   O     O_2   0.682821 0.863313 0.803535 -0.264299
O41   O     O_3   0.620219 0.160136 0.846977 -0.435940
H11   H     H_    0.608589 0.081032 0.891666 0.415134
S8    S     S_3+6 0.371442 0.515320 0.229034 0.120951
O42   O     O_2   0.449606 0.434683 0.260762 -0.285089
O43   O     O_2   0.317610 0.363633 0.196405 -0.267353
O44   O     O_3   0.379658 0.661402 0.152961 -0.440675
H12   H     H_    0.391076 0.582541 0.108123 0.413737
S9    S     S_3+6 0.431319 0.333559 0.765841 0.118356
O45   O     O_2   0.459282 0.258983 0.849370 -0.261456
O46   O     O_2   0.496003 0.314359 0.718127 -0.310415
O47   O     O_3   0.410708 0.557890 0.774332 -0.437416
H13   H     H_    0.435072 0.621342 0.732564 0.397925
S10   S     S_3+6 0.568658 0.833897 0.233924 0.106195
O48   O     O_2   0.540531 0.758060 0.150633 -0.289074
O49   O     O_2   0.504358 0.817442 0.282236 -0.297655
O50   O     O_3   0.590042 0.057542 0.225376 -0.448943
H14   H     H_    0.541325 0.114899 0.198206 0.413171
Cl1   Cl    Cl    0.257295 0.921504 0.518182 -0.450927
Cl2   Cl    Cl    0.742590 0.421149 0.481539 -0.452941
S11   S     S_3+6 0.226063 0.692877 0.674598 0.136364
O51   O     O_2   0.233338 0.622044 0.759839 -0.297025
O52   O     O_2   0.150069 0.633338 0.626154 -0.220098
O53   O     O_3   0.297746 0.600948 0.631775 -0.504058
H15   H     H_    0.273330 0.501470 0.595981 0.365896
S12   S     S_3+6 0.772617 0.192842 0.324529 0.149845
O54   O     O_2   0.765652 0.123004 0.239166 -0.296364
O55   O     O_2   0.848142 0.131333 0.373306 -0.225000
O56   O     O_3   0.700043 0.102261 0.366464 -0.473026
H16   H     H_    0.724208 0.006275 0.404395 0.363357
Cl3   Cl    Cl    0.241654 0.352753 0.985487 -0.586588
Cl4   Cl    Cl    0.758358 0.852345 0.014219 -0.585947

loop_
_geom_bond_atom_site_label_1
_geom_bond_atom_site_label_2
_ccdc_geom_bond_type
C6    S2    S    
O38   H10   S    
O15   C35   A    
O26   H6    S    
S7    O39   D    
O1    C3    A    
O2    C4    A    
C2    O7    A    
S7    O41   S    
C25   C27   A    
S5    O33   D    
O5    C3    A    
S9    O46   D    
C21   S3    S    
C5    C9    S    
C27   S9    S    
C6    C10   S    
C7    H1    S    
C10   C12   D    
S11   O52   D    
C15   C19   A    
C19   Cl3   S    
O47   H13   S    
C14   C28   A    
S10   O48   D    
C29   Cl1   S    
O32   H8    S    
C30   C32   A    
O23   H5    S    
S1    O22   D    
O15   V3    S    
O16   V4    S    
S2    O24   D    
C26   C28   A    
O6    V2    S    
O11   V4    S    
C17   H3    S    
O12   V3    S    
C18   H4    S    
S4    O32   S    
S8    O43   D    
O14   C34   A    
O17   V3    S    
S5    O34   D    
O18   V4    S    
S9    O47   S    
C16   C20   A    
O13   V3    S    
S4    O31   D    
C22   S4    S    
S11   O53   S    
O29   H7    S    
C8    C33   S    
C3    C12   S    
C14   C30   A    
S8    O44   S    
O16   C36   A    
O13   C33   A    
C18   C20   A    
O4    V2    S    
O19   V4    S    
S3    O27   D    
O20   V3    S    
C1    C14   S    
C29   C31   A    
C13   C27   A    
S6    O37   D    
C2    C13   S    
C15   C36   S    
O6    C4    A    
S1    O23   S    
C16   C35   S    
S2    O26   S    
C17   C19   A    
O1    V2    S    
O2    V1    S    
S3    O28   D    
S10   O50   S    
C7    C34   S    
O4    C2    A    
C8    H2    S    
C11   S7    S    
O14   V4    S    
O56   H16   S    
S1    O21   D    
C23   C31   A    
O3    V1    S    
O53   H15   S    
S6    O38   S    
O50   H14   S    
S5    O35   S    
C31   S11   S    
C21   C23   A    
S4    O30   D    
O3    C1    A    
C10   S6    S    
C33   O18   A    
S7    O40   D    
S9    O45   D    
C15   C21   A    
C5    S1    S    
O11   C35   A    
C16   C22   A    
C4    C11   S    
O12   C36   A    
S12   O56   S    
C22   C24   A    
C28   S10   S    
C1    O8    A    
C23   C25   A    
O8    V2    S    
S11   O51   D    
C24   C26   A    
S6    O36   D    
O5    V1    S    
S8    O42   D    
C5    C7    D    
C17   C25   A    
C6    C8    D    
C18   C26   A    
O7    V1    S    
S3    O29   S    
S10   O49   D    
C24   C32   A    
C13   C29   A    
C9    C11   D    
O35   H9    S    
C30   Cl2   S    
C20   Cl4   S    
O41   H11   S    
C9    S5    S    
O9    V2    S    
O44   H12   S    
O10   V1    S    
C32   S12   S    
S2    O25   D    
S12   O54   D    
S12   O55   D    
C12   S8    S    
C34   O17   A    
