data_mof_unit_59011.cif
_audit_creation_date              2012-12-11T15:39:30-0500
_audit_creation_method            fapswitch 2.2
_symmetry_space_group_name_H-M    P1
_symmetry_Int_Tables_number       1
_space_group_crystal_system       triclinic
_cell_length_a                    14.304636
_cell_length_b                    14.776658
_cell_length_c                    33.22264
_cell_angle_alpha                 98.020876
_cell_angle_beta                  90.315264
_cell_angle_gamma                 118.814735
_cell_volume                      6071.27675998

loop_
_atom_site_label
_atom_site_type_symbol
_atom_type_description
_atom_site_fract_x
_atom_site_fract_y
_atom_site_fract_z
_atom_type_partial_charge
C1    C     C_R   0.617536 0.910024 0.436755 0.581180
C2    C     C_R   0.711247 0.435235 0.949658 0.575942
C3    C     C_R   0.595646 0.833483 0.772563 0.082695
C4    C     C_R   0.602984 0.844793 0.731381 0.206011
C5    C     C_R   0.623585 0.776686 0.703645 0.049850
C6    C     C_R   0.629269 0.692552 0.716383 0.268491
C7    C     C_R   0.619540 0.679442 0.757566 0.118477
C8    C     C_R   0.606149 0.752113 0.786006 0.043878
C9    C     C_R   0.548372 0.732645 0.631785 0.114264
C10   C     C_R   0.548838 0.765826 0.594450 -0.117047
C11   C     C_R   0.726647 0.915151 0.613710 0.087885
C12   C     C_R   0.709679 0.740558 0.950498 0.583481
C13   C     C_R   0.815978 0.389011 0.155187 0.075285
C14   C     C_R   0.810239 0.411475 0.115834 0.092425
C15   C     C_R   0.704105 0.277349 0.235089 0.140982
C16   C     C_R   0.696874 0.263648 0.276180 0.225194
C17   C     C_R   0.738585 0.351921 0.307269 0.049994
C18   C     C_R   0.793652 0.453299 0.297444 0.077839
C19   C     C_R   0.802680 0.466167 0.256559 -0.107394
C20   C     C_R   0.755098 0.379083 0.225548 0.043932
C21   C     C_R   0.746430 0.396441 0.183548 0.034674
C22   C     C_R   0.607571 0.311730 0.358480 -0.042306
C23   C     C_R   0.594764 0.206421 0.456701 0.581961
C24   C     C_R   0.570417 0.277991 0.395094 0.203741
C25   C     C_R   0.748997 0.310726 0.416566 0.260924
C26   C     C_R   0.784241 0.340814 0.378855 0.142270
C27   C     C_R   0.711589 0.337399 0.349296 0.010216
C28   C     C_R   0.638970 0.270204 0.423720 -0.001555
C29   C     C_R   0.239706 0.875190 0.393081 0.021478
C30   C     C_R   0.201625 0.943701 0.384527 0.104662
C31   C     C_R   0.179949 0.950051 0.343820 0.081342
C32   C     C_R   0.726813 0.881565 0.651259 0.163198
C33   C     C_R   0.192359 0.885242 0.311549 0.017390
C34   C     C_R   0.216493 0.807938 0.319841 0.087874
C35   C     C_R   0.294436 0.891949 0.434229 0.581468
C36   C     C_R   0.238594 0.801445 0.360379 0.193827
C37   C     C_R   0.179274 0.802909 0.167406 0.069433
C38   C     C_R   0.158205 0.778644 0.124799 0.203737
C39   C     C_R   0.127801 0.927666 0.125079 0.055199
C40   C     C_R   0.149515 0.951812 0.168218 0.206644
C41   C     C_R   0.168575 0.885215 0.189177 0.033808
C42   C     C_1   0.175698 0.897151 0.233252 0.119047
C43   C     C_R   0.635592 0.793606 0.660944 0.148595
C44   C     C_1   0.181753 0.896345 0.269425 0.064414
C45   C     C_R   0.119653 0.833346 0.103955 0.002165
C46   C     C_R   0.638950 0.879048 0.394470 -0.036268
C47   C     C_R   0.614484 0.904631 0.551413 0.536315
C48   C     C_R   0.566693 0.780334 0.371315 0.224952
C49   C     C_R   0.565091 0.764666 0.328485 0.237438
C50   C     C_R   0.639105 0.845024 0.308888 0.001544
C51   C     C_R   0.720804 0.936890 0.331689 0.082283
C52   C     C_R   0.722253 0.954077 0.374397 0.196948
C53   C     C_R   0.757753 0.905562 0.176025 -0.152402
C54   C     C_R   0.633564 0.860619 0.586070 -0.010028
C55   C     C_R   0.783974 0.898672 0.135665 0.037897
C56   C     C_R   0.599900 0.761903 0.115150 0.205627
C57   C     C_R   0.575561 0.767728 0.156180 0.111874
C58   C     C_R   0.656340 0.836895 0.186527 0.014071
C59   C     C_R   0.590663 0.201378 0.571000 0.579998
C60   C     C_1   0.640313 0.833784 0.229006 0.089725
C61   C     C_1   0.635233 0.834950 0.265138 0.126045
C62   C     C_R   0.706930 0.821876 0.105074 0.054778
C63   C     C_R   0.624264 0.253808 0.614557 -0.055295
C64   C     C_R   0.553691 0.276402 0.638467 0.234865
C65   C     C_R   0.054522 0.782510 0.063658 0.579821
C66   C     C_R   0.564782 0.287627 0.681150 0.237934
C67   C     C_R   0.648800 0.281911 0.700454 -0.035141
C68   C     C_R   0.728284 0.275996 0.677540 0.237786
C69   C     C_R   0.717875 0.264829 0.634742 0.203388
C70   C     C_R   0.739631 0.300941 0.847729 0.059431
C71   C     C_R   0.288054 0.886762 0.548628 0.575922
C72   C     C_R   0.752491 0.333832 0.890440 0.221258
C73   C     C_R   0.593449 0.352590 0.885533 -0.125915
C74   C     C_R   0.580497 0.320021 0.843588 0.205121
C75   C     C_R   0.656837 0.299782 0.824265 0.032502
C76   C     C_R   0.744083 0.486722 0.066347 0.581431
C77   C     C_1   0.655820 0.288627 0.780461 0.141486
C78   C     C_1   0.653989 0.284551 0.743998 0.149957
C79   C     C_R   0.683364 0.367728 0.909027 -0.021293
C80   C     C_R   0.066488 0.754368 0.908140 0.044809
C81   C     C_R   0.128728 0.859029 0.901876 0.198786
C82   C     C_R   0.145957 0.881604 0.862057 0.116931
C83   C     C_R   0.737203 0.445107 0.105107 0.029496
C84   C     C_R   0.102694 0.799497 0.828849 0.117583
C85   C     C_R   0.048789 0.694765 0.834987 0.091038
C86   C     C_R   0.029725 0.671887 0.874762 0.052645
C87   C     C_R   0.741283 0.789848 0.065998 0.590277
C88   C     C_R   0.211589 0.850979 0.770169 0.093417
C89   C     C_R   0.218977 0.859553 0.728995 -0.099298
C90   C     C_R   0.128441 0.836225 0.704158 0.002358
C91   C     C_R   0.029477 0.807372 0.720791 0.155544
C92   C     C_R   0.023254 0.803948 0.762658 0.303683
C93   C     C_R   0.113506 0.822077 0.786971 0.117082
C94   C     C_R   0.156758 0.925864 0.643505 0.262539
C95   C     C_R   0.665158 0.448960 0.133558 0.062122
C96   C     C_R   0.192669 0.936257 0.604300 0.226731
C97   C     C_R   0.191616 0.769087 0.599621 0.054857
C98   C     C_R   0.022001 0.732334 0.947546 0.607096
C99   C     C_R   0.151946 0.758338 0.637857 -0.160694
C100  C     C_R   0.140243 0.838305 0.660579 -0.046377
C101  C     C_R   0.219731 0.862096 0.583473 0.020621
C102  C     C_R   0.660115 0.747238 0.912469 0.048189
C103  C     C_R   0.578152 0.656170 0.887834 0.056240
C104  C     C_R   0.555943 0.659539 0.846958 -0.068678
C105  C     C_R   0.615624 0.750870 0.830273 0.034821
C106  C     C_R   0.689371 0.842305 0.855694 -0.027626
C107  C     C_R   0.669418 0.423530 0.172417 0.225003
C108  C     C_R   0.707920 0.842622 0.896682 0.213522
Cl1   Cl    Cl    0.435189 0.240859 0.401457 -0.512211
Cl2   Cl    Cl    0.856298 0.333767 0.919536 -0.507327
Cl3   Cl    Cl    0.839890 0.279604 0.702508 -0.457165
Cl4   Cl    Cl    0.825707 0.269840 0.607453 -0.456472
Cl5   Cl    Cl    0.451928 0.294093 0.616255 -0.322873
Cl6   Cl    Cl    0.471681 0.313698 0.815825 -0.511997
Cl7   Cl    Cl    0.470138 0.305207 0.710427 -0.377480
Cl8   Cl    Cl    0.183943 0.962814 0.943696 -0.544759
Cl9   Cl    Cl    0.630249 0.135747 0.288500 -0.632084
Cl10  Cl    Cl    0.901824 0.775533 0.784437 -0.573212
Cl11  Cl    Cl    0.141341 0.026933 0.672623 -0.425246
Cl12  Cl    Cl    0.845729 0.325348 0.454118 -0.406955
Cl13  Cl    Cl    0.203015 0.043380 0.582663 -0.391756
Cl14  Cl    Cl    0.793762 0.965844 0.926314 -0.473823
Cl15  Cl    Cl    0.585722 0.945109 0.714731 -0.633117
Cl16  Cl    Cl    0.651911 0.605181 0.681136 -0.503610
Cl17  Cl    Cl    0.578950 0.428566 0.207711 -0.534790
Cl18  Cl    Cl    0.182072 0.679450 0.098769 -0.532956
Cl19  Cl    Cl    0.265459 0.700005 0.368319 -0.463636
Cl20  Cl    Cl    0.148936 0.061960 0.196792 -0.590107
Cl21  Cl    Cl    0.830370 0.071558 0.400879 -0.480909
Cl22  Cl    Cl    0.481302 0.673551 0.395433 -0.375110
Cl23  Cl    Cl    0.495114 0.677914 0.077061 -0.518679
Cl24  Cl    Cl    0.469025 0.644912 0.299240 -0.416771
Cr1   Cr    Cr6+3 0.424820 0.846020 0.489780 1.147764
Cr2   Cr    Cr6+3 0.657880 0.078580 0.505700 1.182022
Cr3   Cr    Cr6+3 0.417280 0.075360 0.504550 1.180583
Cr4   Cr    Cr6+3 0.903360 0.812540 0.006510 1.158150
Cr5   Cr    Cr6+3 0.914630 0.587050 0.006280 1.164070
Cr6   Cr    Cr6+3 0.673560 0.582680 0.008540 1.121091
H1    H     H_    0.819227 0.960706 0.199661 0.156673
H2    H     H_    0.512958 0.423547 0.126273 0.292155
H3    H     H_    0.606020 0.549599 0.144391 0.261665
H4    H     H_    0.856648 0.287425 0.174589 0.260758
H5    H     H_    0.944223 0.415616 0.191300 0.242109
H6    H     H_    0.147947 0.663282 0.182718 0.268799
H7    H     H_    0.279628 0.747434 0.179355 0.281726
H8    H     H_    0.297717 0.745292 0.287707 0.304414
H9    H     H_    0.165328 0.660825 0.289600 0.271556
H10   H     H_    0.228247 0.084575 0.414248 0.320895
H11   H     H_    0.102530 0.985281 0.414891 0.266060
H12   H     H_    0.536653 0.373741 0.899147 0.196879
H13   H     H_    0.173099 0.020912 0.082006 0.258917
H14   H     H_    0.124098 0.064543 0.120616 0.293355
H15   H     H_    0.865603 0.323869 0.082888 0.271450
H16   H     H_    0.958972 0.450693 0.098656 0.290429
H17   H     H_    0.073259 0.983274 0.318607 0.241364
H18   H     H_    0.203192 0.075524 0.318521 0.290444
H19   H     H_    0.909297 0.042424 0.135192 0.260537
H20   H     H_    0.941676 0.951593 0.145215 0.270211
H21   H     H_    0.876220 0.024907 0.320713 0.273864
H22   H     H_    0.800528 0.084482 0.318422 0.305432
H23   H     H_    0.137148 0.690050 0.651123 0.155904
H24   H     H_    0.415968 0.714625 0.151858 0.285408
H25   H     H_    0.451745 0.623228 0.158051 0.285572
H26   H     H_    0.929500 0.445739 0.363533 0.263163
H27   H     H_    0.890886 0.318988 0.344775 0.253026
H28   H     H_    0.889947 0.336135 0.833923 0.266058
H29   H     H_    0.809766 0.209773 0.839776 0.291015
H30   H     H_    0.004327 0.523169 0.869530 0.259162
H31   H     H_    0.891326 0.533570 0.865590 0.227668
H32   H     H_    0.364870 0.942474 0.793245 0.263850
H33   H     H_    0.325107 0.812805 0.781709 0.238763
H34   H     H_    0.294819 0.880946 0.715981 0.162335
H35   H     H_    0.165931 0.028287 0.867671 0.295555
H36   H     H_    0.281378 0.022214 0.869397 0.284439
H37   H     H_    0.920797 0.711773 0.673902 0.258477
H38   H     H_    0.947417 0.837402 0.679713 0.264589
H39   H     H_    0.927796 0.567783 0.799532 0.261475
H40   H     H_    0.044654 0.564554 0.803582 0.251746
H41   H     H_    0.260058 0.676573 0.596840 0.230799
H42   H     H_    0.134062 0.617681 0.574175 0.273396
H43   H     H_    0.469201 0.499251 0.880748 0.261237
H44   H     H_    0.472331 0.570265 0.925182 0.260473
H45   H     H_    0.495043 0.589869 0.827702 0.171291
H46   H     H_    0.688683 0.140765 0.205589 0.258502
H47   H     H_    0.573412 0.147099 0.206569 0.295291
H48   H     H_    0.824189 0.016383 0.688950 0.313275
H49   H     H_    0.885333 0.950274 0.667985 0.283056
H50   H     H_    0.642518 0.980931 0.801060 0.281551
H51   H     H_    0.508821 0.903891 0.791517 0.266187
H52   H     H_    0.698188 0.597458 0.762882 0.313425
H53   H     H_    0.563323 0.524347 0.755696 0.309072
H54   H     H_    0.403005 0.600000 0.615604 0.255972
H55   H     H_    0.415487 0.668369 0.661980 0.231253
H56   H     H_    0.478362 0.720834 0.573164 0.154601
H57   H     H_    0.802357 0.067381 0.606120 0.316122
H58   H     H_    0.842831 0.989992 0.576714 0.275910
H59   H     H_    0.916961 0.588716 0.326205 0.233563
H60   H     H_    0.798301 0.587370 0.323621 0.265428
H61   H     H_    0.735443 0.914005 0.843431 0.186626
H62   H     H_    0.841272 0.544434 0.248893 0.130051
H63   H     H_    0.552942 0.312197 0.335849 0.202248
N1    N     N_3   0.590497 0.482958 0.123599 -0.546822
N2    N     N_3   0.801365 0.013806 0.310825 -0.587143
N3    N     N_3   0.470380 0.701004 0.167476 -0.564637
N4    N     N_3   0.892458 0.369801 0.370383 -0.493563
N5    N     N_3   0.812520 0.272567 0.827683 -0.562488
N6    N     N_3   0.966773 0.565585 0.881230 -0.564272
N7    N     N_3   0.302513 0.867238 0.794675 -0.605390
N8    N     N_3   0.204336 0.987697 0.854805 -0.548627
N9    N     N_3   0.934291 0.776513 0.695416 -0.508839
N10   N     N_3   0.011076 0.612469 0.800352 -0.599653
N11   N     N_3   0.207595 0.686897 0.578375 -0.554364
N12   N     N_3   0.895281 0.361688 0.166151 -0.612375
N13   N     N_3   0.520819 0.559831 0.903681 -0.582167
N14   N     N_3   0.655253 0.189088 0.202886 -0.593367
N15   N     N_3   0.816107 0.941737 0.681257 -0.545317
N16   N     N_3   0.578998 0.905490 0.801230 -0.606400
N17   N     N_3   0.626407 0.594427 0.770966 -0.570207
N18   N     N_3   0.455907 0.641980 0.641585 -0.534846
N19   N     N_3   0.820151 0.006580 0.605471 -0.556932
N20   N     N_3   0.834959 0.543157 0.328878 -0.611210
N21   N     N_3   0.208083 0.741537 0.189302 -0.576845
N22   N     N_3   0.221060 0.737471 0.286440 -0.573549
N23   N     N_3   0.183510 0.005911 0.417421 -0.540643
N24   N     N_3   0.113054 0.996454 0.102203 -0.549275
N25   N     N_3   0.879657 0.400983 0.086761 -0.541432
N26   N     N_3   0.147185 0.024051 0.335884 -0.575652
N27   N     N_3   0.891484 0.964589 0.126733 -0.556179
O1    O     O_R   0.318160 0.824460 0.443680 -0.433579
O2    O     O_R   0.668160 0.499860 0.053480 -0.460464
O3    O     O_R   0.689170 0.693840 0.050110 -0.462290
O4    O     O_R   0.525040 0.857250 0.449830 -0.448982
O5    O     O_R   0.803860 0.812940 0.962540 -0.446461
O6    O     O_R   0.982950 0.787950 0.964120 -0.463279
O7    O     O_R   0.007050 0.649970 0.960540 -0.449018
O8    O     O_R   0.807910 0.482370 0.965590 -0.432397
O9    O     O_R   0.643310 0.460980 0.963840 -0.506405
O10   O     O_R   0.666140 0.657800 0.967020 -0.474166
O11   O     O_3   0.830520 0.660760 0.007110 -0.317627
O12   O     O_R   0.645130 0.163230 0.552140 -0.449804
O13   O     O_R   0.684760 0.998800 0.456360 -0.430426
O14   O     O_R   0.647540 0.166310 0.470260 -0.448885
O15   O     O_R   0.500960 0.181750 0.467450 -0.442637
O16   O     O_R   0.331100 0.981120 0.457080 -0.466258
O17   O     O_R   0.315560 0.821140 0.532010 -0.469644
O18   O     O_R   0.522630 0.854180 0.531710 -0.503063
O19   O     O_R   0.682160 0.995480 0.544690 -0.497701
O20   O     O_R   0.498360 0.178430 0.555780 -0.436549
O21   O     O_R   0.328690 0.978040 0.538950 -0.456556
O22   O     O_3   0.499990 0.999990 0.500010 -0.319565
O23   O     O_R   0.828710 0.851830 0.052170 -0.452111
O24   O     O_R   0.005980 0.823990 0.047210 -0.466793
O25   O     O_R   0.031900 0.688850 0.050170 -0.445871
O26   O     O_R   0.830940 0.518420 0.048680 -0.469475

loop_
_geom_bond_atom_site_label_1
_geom_bond_atom_site_label_2
_ccdc_geom_bond_type
C55   N27   S    
C97   N11   S    
C31   N26   S    
C73   H12   S    
H36   N8    S    
C73   C74   A    
C104  C105  A    
C19   C20   A    
C6    Cl16  S    
C8    C105  S    
H22   N2    S    
C47   O19   A    
C81   C82   A    
C90   C91   A    
C7    C8    A    
H50   N16   S    
C95   N1    S    
C87   O23   A    
C29   C36   A    
H17   N26   S    
C26   C27   A    
C37   C38   A    
C96   Cl13  S    
H16   N25   S    
C52   Cl21  S    
Cr6   O3    S    
Cr3   O21   S    
C37   N21   S    
C14   N25   S    
C72   C79   A    
H59   N20   S    
H26   N4    S    
C10   H56   S    
C30   C31   A    
C69   Cl4   S    
C1    C46   S    
Cr4   O24   S    
C58   C60   S    
C15   C16   A    
C40   Cl20  S    
C55   C62   A    
C46   C52   A    
C56   C57   A    
C76   C83   S    
Cr6   O9    S    
C18   C19   A    
C41   C42   S    
H37   N9    S    
C13   N12   S    
H42   N11   S    
C18   N20   S    
C92   Cl10  S    
Cr2   O14   S    
C38   C45   A    
C80   C86   A    
C2    C79   S    
H19   N27   S    
H58   N19   S    
C99   H23   S    
C7    N17   S    
C98   O7    A    
C63   C69   A    
H51   N16   S    
C16   C17   A    
C65   O25   A    
C31   C33   A    
Cr4   O23   S    
C102  C108  A    
C59   O20   A    
H11   N23   S    
Cr5   O7    S    
C76   O26   A    
C9    C10   A    
H6    N21   S    
Cr5   O26   S    
C77   C78   T    
Cr1   O18   S    
H5    N12   S    
C82   N8    S    
C9    N18   S    
C12   O10   A    
C66   C67   A    
C71   C101  S    
C35   O16   A    
C13   C14   A    
C48   Cl22  S    
C12   O5    A    
C67   C78   S    
C42   C44   T    
C14   C83   A    
C88   N7    S    
C91   N9    S    
H52   N17   S    
H53   N17   S    
C90   C100  S    
H57   N19   S    
C38   Cl18  S    
C51   N2    S    
C50   C51   A    
C46   C48   A    
C53   C55   A    
C15   C20   A    
C49   Cl24  S    
C72   Cl2   S    
H25   N3    S    
C9    C43   A    
C66   Cl7   S    
C63   C64   A    
C13   C21   A    
C67   C68   A    
C17   C27   S    
H29   N5    S    
H15   N25   S    
Cr6   O2    S    
H60   N20   S    
C84   C85   A    
C107  Cl17  S    
C15   N14   S    
C3    C8    A    
C97   C99   A    
C91   C92   A    
C88   C93   A    
C68   C69   A    
H46   N14   S    
C30   N23   S    
H7    N21   S    
C23   O14   A    
C25   C26   A    
C85   C86   A    
C81   Cl8   S    
H41   N11   S    
H47   N14   S    
C4    Cl15  S    
Cr4   O6    S    
C60   C61   T    
C35   O1    A    
C68   Cl3   S    
C64   C66   A    
Cr3   O16   S    
Cr5   O11   S    
Cr2   O13   S    
H32   N7    S    
C29   C30   A    
H2    N1    S    
C94   Cl11  S    
C97   C101  A    
H21   N2    S    
C99   C100  A    
C98   O6    A    
C12   C102  S    
C94   C100  A    
C3    N16   S    
C83   C95   A    
Cr4   O5    S    
C104  H45   S    
C17   C18   A    
C73   C79   A    
H30   N6    S    
Cr3   O15   S    
Cr6   O11   S    
C21   C107  A    
C23   C28   S    
H3    N1    S    
Cr5   O8    S    
C94   C96   A    
C75   C77   S    
C103  N13   S    
H43   N13   S    
C11   C54   A    
C95   C107  A    
C47   C54   S    
C1    O13   A    
H18   N26   S    
C2    O8    A    
C48   C49   A    
H13   N24   S    
C11   C32   A    
C82   C84   A    
C22   C27   A    
C45   C65   S    
C56   C62   A    
Cr4   O11   S    
C26   N4    S    
C71   O17   A    
Cr3   O22   S    
C23   O15   A    
C3    C4    A    
C25   Cl12  S    
H20   N27   S    
Cr2   O19   S    
C39   C40   A    
H9    N22   S    
C34   N22   S    
H4    N12   S    
H44   N13   S    
C105  C106  A    
H55   N18   S    
C19   H62   S    
H49   N15   S    
C40   C41   A    
C64   Cl5   S    
C22   H63   S    
C80   C98   S    
C20   C21   S    
C53   H1    S    
C33   C44   S    
Cr2   O12   S    
Cr3   O20   S    
H35   N8    S    
C24   Cl1   S    
C24   C28   A    
C89   H34   S    
C108  Cl14  S    
C80   C81   A    
C86   N6    S    
H31   N6    S    
C53   C58   A    
C2    O9    A    
C6    C7    A    
C85   N10   S    
C70   N5    S    
C62   C87   S    
C29   C35   S    
C59   C63   S    
C39   C45   A    
H39   N10   S    
C59   O12   A    
H10   N23   S    
Cr1   O4    S    
C51   C52   A    
H33   N7    S    
C16   Cl9   S    
C76   O2    A    
H8    N22   S    
C1    O4    A    
C57   C58   A    
C5    C6    A    
C106  C108  A    
C87   O3    A    
Cr1   O22   S    
C57   N3    S    
C92   C93   A    
C32   C43   A    
C33   C34   A    
H40   N10   S    
Cr6   O10   S    
C22   C24   A    
C84   C93   S    
C37   C41   A    
C102  C103  A    
C10   C54   A    
Cr1   O1    S    
C39   N24   S    
C56   Cl23  S    
C25   C28   A    
H14   N24   S    
C36   Cl19  S    
C4    C5    A    
C32   N15   S    
H48   N15   S    
C88   C89   A    
C34   C36   A    
C49   C50   A    
C65   O24   A    
H24   N3    S    
C103  C104  A    
H38   N9    S    
C50   C61   S    
Cr2   O22   S    
C5    C43   S    
C70   C75   A    
C70   C72   A    
H28   N5    S    
H54   N18   S    
C89   C90   A    
C96   C101  A    
H27   N4    S    
C11   N19   S    
C71   O21   A    
C47   O18   A    
Cr5   O25   S    
C74   C75   A    
Cr1   O17   S    
C106  H61   S    
C74   Cl6   S    
