data_mof_unit_22392.cif
_audit_creation_date              2012-10-26T20:59:12-0400
_audit_creation_method            fapswitch 2.2
_symmetry_space_group_name_H-M    P1
_symmetry_Int_Tables_number       1
_space_group_crystal_system       triclinic
_cell_length_a                    15.908514
_cell_length_b                    9.082616
_cell_length_c                    7.816922
_cell_angle_alpha                 90.00151
_cell_angle_beta                  90.244542
_cell_angle_gamma                 90.014392
_cell_volume                      1129.4639575

loop_
_atom_site_label
_atom_site_type_symbol
_atom_type_description
_atom_site_fract_x
_atom_site_fract_y
_atom_site_fract_z
_atom_type_partial_charge
C1    C     C_1   0.499999 0.065421 0.499998 -0.040623
C2    C     C_3   0.972425 0.627546 0.565248 -0.013367
C3    C     C_1   0.250157 0.499981 0.498668 -0.002840
C4    C     C_1   0.749843 0.500019 0.501332 -0.002838
C5    C     C_3   0.028869 0.515279 0.660363 0.099215
C6    C     C_3   0.971131 0.484722 0.339638 0.099215
C7    C     C_3   0.083372 0.500107 0.498924 0.001354
C8    C     C_3   0.916628 0.499893 0.501077 0.001354
C9    C     C_1   0.174869 0.500020 0.498222 -0.029765
C10   C     C_1   0.825131 0.499980 0.501778 -0.029760
C11   C     C_3   0.060817 0.227303 0.364659 -0.367599
C12   C     C_1   0.500001 0.934578 0.500002 -0.040623
C13   C     C_3   0.939183 0.772696 0.635347 -0.367604
C14   C     C_3   0.939223 0.258218 0.698937 -0.357955
C15   C     C_3   0.060777 0.741782 0.301064 -0.357961
C16   C     C_2   0.934498 0.467096 0.164437 0.604753
C17   C     C_2   0.065507 0.532902 0.835561 0.604774
C18   C     C_R   0.499997 0.220161 0.499999 0.549427
C19   C     C_R   0.500003 0.779839 0.500001 0.549428
C20   C     C_R   0.339558 0.499975 0.499609 0.543913
C21   C     C_R   0.660442 0.500025 0.500391 0.543912
C22   C     C_3   0.972643 0.387643 0.596136 -0.023817
C23   C     C_3   0.027356 0.612357 0.403866 -0.023817
C24   C     C_3   0.027575 0.372454 0.434754 -0.013367
Cu1   Cu    Cu3+1 0.500010 0.500000 0.669080 1.044136
Cu2   Cu    Cu3+1 0.499990 0.500000 0.330920 1.044137
H1    H     H_    0.007473 0.154114 0.330435 0.158950
H2    H     H_    0.008548 0.795123 0.229870 0.191200
H3    H     H_    0.089928 0.823328 0.388854 0.117954
H4    H     H_    0.109391 0.702674 0.210759 0.180377
H5    H     H_    0.864323 0.554824 0.975167 0.331753
H6    H     H_    0.135671 0.445157 0.024837 0.331757
H7    H     H_    0.099408 0.248240 0.249345 0.166971
H8    H     H_    0.100187 0.172347 0.463263 0.132981
H9    H     H_    0.992527 0.845886 0.669567 0.158954
H10   H     H_    0.899811 0.827653 0.536748 0.132981
H11   H     H_    0.900595 0.751756 0.750665 0.166965
H12   H     H_    0.991451 0.204879 0.770135 0.191217
H13   H     H_    0.890607 0.297325 0.789239 0.180365
H14   H     H_    0.910074 0.176670 0.611147 0.117947
N1    N     N_1   0.499990 0.500000 0.076820 -0.074294
N2    N     N_1   0.500010 0.500000 0.923180 -0.074294
O1    O     O_R   0.500000 0.288400 0.642760 -0.495407
O2    O     O_R   0.886263 0.580305 0.093485 -0.685032
O3    O     O_2   0.054508 0.647366 0.914026 -0.545136
O4    O     O_R   0.113724 0.419677 0.906524 -0.685013
O5    O     O_R   0.500000 0.711600 0.357240 -0.495407
O6    O     O_R   0.500000 0.288400 0.357240 -0.495849
O7    O     O_R   0.500000 0.711600 0.642760 -0.495848
O8    O     O_R   0.379080 0.500000 0.642760 -0.489603
O9    O     O_R   0.620920 0.500000 0.357240 -0.489602
O10   O     O_R   0.379070 0.500000 0.357190 -0.501725
O11   O     O_R   0.620930 0.500000 0.642810 -0.501726
O12   O     O_2   0.945519 0.352645 0.085957 -0.545122

loop_
_geom_bond_atom_site_label_1
_geom_bond_atom_site_label_2
_ccdc_geom_bond_type
Cu1   N2    S    
C8    C22   S    
C13   H9    S    
C3    C9    T    
C11   H7    S    
Cu2   O10   S    
C14   H12   S    
N1    N2    T    
C19   O7    A    
C13   H11   S    
Cu2   O6    S    
C11   H1    S    
C6    C24   S    
Cu1   O1    S    
C16   O12   D    
C15   C23   S    
C1    C18   S    
C3    C20   S    
C20   O10   A    
Cu2   O9    S    
C21   O11   A    
C4    C21   S    
C14   C22   S    
C15   H2    S    
C1    C12   T    
Cu2   O5    S    
C15   H4    S    
C7    C23   S    
C6    C23   S    
C6    C8    S    
C12   C19   S    
C14   H14   S    
Cu1   O11   S    
C15   H3    S    
Cu1   O7    S    
C14   H13   S    
C22   C24   S    
C2    C5    S    
C5    C17   S    
H5    O2    S    
C6    C16   S    
C7    C24   S    
C7    C9    S    
C11   C24   S    
C21   O9    A    
C17   O4    S    
Cu2   N1    S    
C13   H10   S    
C8    C10   S    
C19   O5    A    
C2    C23   S    
C5    C7    S    
C2    C13   S    
C16   O2    S    
Cu1   O8    S    
C20   O8    A    
Cu1   Cu2   S    
C18   O1    A    
H6    O4    S    
C11   H8    S    
C2    C8    S    
C5    C22   S    
C4    C10   T    
C17   O3    D    
C18   O6    A    
