data_mof_unit_65150.cif
_audit_creation_date              2012-12-10T20:26:53-0500
_audit_creation_method            fapswitch 2.2
_symmetry_space_group_name_H-M    P1
_symmetry_Int_Tables_number       1
_space_group_crystal_system       triclinic
_cell_length_a                    41.497816
_cell_length_b                    35.485549
_cell_length_c                    21.619056
_cell_angle_alpha                 89.999896
_cell_angle_beta                  121.322759
_cell_angle_gamma                 90.0
_cell_volume                      27195.6662773

loop_
_atom_site_label
_atom_site_type_symbol
_atom_type_description
_atom_site_fract_x
_atom_site_fract_y
_atom_site_fract_z
_atom_type_partial_charge
C1    C     C_R   0.073363 0.000000 0.070215 0.856494
C2    C     C_R   0.926636 1.000000 0.929785 0.856493
C3    C     C_R   0.573364 0.500000 0.070215 0.856494
C4    C     C_R   0.426636 0.500000 0.929785 0.856493
C5    C     C_R   0.999885 0.000886 0.314009 -0.067216
C6    C     C_R   0.000115 0.000886 0.685991 -0.067216
C7    C     C_R   0.499885 0.500886 0.314009 -0.067216
C8    C     C_R   0.500115 0.500886 0.685991 -0.067215
C9    C     C_R   0.017183 0.030223 0.298479 -0.009149
C10   C     C_R   0.982817 0.030223 0.701521 -0.009148
C11   C     C_R   0.517183 0.530223 0.298479 -0.009149
C12   C     C_R   0.482817 0.530223 0.701521 -0.009149
C13   C     C_R   0.015898 0.029495 0.233363 -0.237369
C14   C     C_R   0.984102 0.029496 0.766637 -0.237369
C15   C     C_R   0.515898 0.529495 0.233363 -0.237368
C16   C     C_R   0.484103 0.529496 0.766637 -0.237368
C17   C     C_R   0.997688 0.999896 0.184536 -0.103773
C18   C     C_R   0.002312 0.999896 0.815464 -0.103773
C19   C     C_R   0.497688 0.499896 0.184536 -0.103773
C20   C     C_R   0.502312 0.499896 0.815464 -0.103774
C21   C     C_R   0.979462 0.970774 0.199628 0.006322
C22   C     C_R   0.020538 0.970774 0.800373 0.006322
C23   C     C_R   0.479462 0.470774 0.199628 0.006322
C24   C     C_R   0.520538 0.470774 0.800373 0.006322
C25   C     C_R   0.072781 0.061048 0.403797 -0.099565
C26   C     C_R   0.927218 0.061048 0.596202 -0.099566
C27   C     C_R   0.572782 0.561048 0.403797 -0.099566
C28   C     C_R   0.427219 0.561048 0.596202 -0.099564
C29   C     C_R   0.089521 0.092097 0.449378 -0.141330
C30   C     C_R   0.910479 0.092097 0.550621 -0.141330
C31   C     C_R   0.589521 0.592097 0.449378 -0.141330
C32   C     C_R   0.410479 0.592097 0.550621 -0.141330
C33   C     C_R   0.068652 0.124984 0.438400 -0.101803
C34   C     C_R   0.931347 0.124984 0.561599 -0.101804
C35   C     C_R   0.568652 0.624984 0.438401 -0.101804
C36   C     C_R   0.431348 0.624984 0.561599 -0.101805
C37   C     C_R   0.030948 0.126815 0.382064 -0.122390
C38   C     C_R   0.969051 0.126815 0.617935 -0.122389
C39   C     C_R   0.530949 0.626815 0.382065 -0.122390
C40   C     C_R   0.469051 0.626815 0.617936 -0.122389
C41   C     C_R   0.014040 0.095746 0.336678 -0.179574
C42   C     C_R   0.985959 0.095746 0.663322 -0.179573
C43   C     C_R   0.514041 0.595746 0.336679 -0.179573
C44   C     C_R   0.485959 0.595746 0.663323 -0.179574
C45   C     C_R   0.999013 0.999942 0.119442 0.868879
C46   C     C_R   0.000986 0.999942 0.880558 0.868880
C47   C     C_R   0.499013 0.499942 0.119442 0.868878
C48   C     C_R   0.500987 0.499942 0.880558 0.868879
C49   C     C_R   0.034919 0.062728 0.347350 0.101982
C50   C     C_R   0.965081 0.062728 0.652650 0.101981
C51   C     C_R   0.534920 0.562728 0.347350 0.101983
C52   C     C_R   0.465081 0.562729 0.652650 0.101980
C53   C     C_R   0.325280 0.029502 0.315287 -0.165886
C54   C     C_R   0.674720 0.029502 0.684712 -0.165886
C55   C     C_R   0.825280 0.529502 0.315287 -0.165885
C56   C     C_R   0.174720 0.529502 0.684712 -0.165887
C57   C     C_R   0.364553 0.031915 0.355017 -0.072760
C58   C     C_R   0.635446 0.031915 0.644982 -0.072759
C59   C     C_R   0.864553 0.531915 0.355017 -0.072760
C60   C     C_R   0.135446 0.531915 0.644982 -0.072759
C61   C     C_R   0.385790 0.998595 0.386306 -0.150239
C62   C     C_R   0.614210 0.998595 0.613694 -0.150239
C63   C     C_R   0.885790 0.498595 0.386306 -0.150239
C64   C     C_R   0.114210 0.498595 0.613694 -0.150239
C65   C     C_R   0.367646 0.963387 0.377633 0.077673
C66   C     C_R   0.632353 0.963387 0.622368 0.077672
C67   C     C_R   0.867646 0.463387 0.377633 0.077672
C68   C     C_R   0.132353 0.463387 0.622367 0.077672
C69   C     C_R   0.328022 0.962356 0.338051 -0.158194
C70   C     C_R   0.671979 0.962356 0.661950 -0.158193
C71   C     C_R   0.828021 0.462356 0.338051 -0.158193
C72   C     C_R   0.171979 0.462356 0.661949 -0.158193
C73   C     C_R   0.307346 0.995199 0.307561 0.077288
C74   C     C_R   0.692654 0.995199 0.692439 0.077288
C75   C     C_R   0.807346 0.495199 0.307561 0.077287
C76   C     C_R   0.192654 0.495199 0.692438 0.077288
C77   C     C_1   0.267222 0.994133 0.267023 -0.004380
C78   C     C_1   0.732778 0.994133 0.732977 -0.004380
C79   C     C_1   0.767222 0.494133 0.267023 -0.004380
C80   C     C_1   0.232778 0.494133 0.732977 -0.004380
C81   C     C_1   0.233519 0.994801 0.231630 -0.000377
C82   C     C_1   0.766480 0.994802 0.768370 -0.000376
C83   C     C_1   0.733519 0.494802 0.231630 -0.000377
C84   C     C_1   0.266480 0.494802 0.768370 -0.000377
C85   C     C_R   0.175357 0.024857 0.133676 0.008114
C86   C     C_R   0.824643 0.024857 0.866324 0.008115
C87   C     C_R   0.675357 0.524857 0.133676 0.008114
C88   C     C_R   0.324643 0.524857 0.866324 0.008114
C89   C     C_R   0.943591 0.873330 0.121858 -0.139775
C90   C     C_R   0.056410 0.873330 0.878143 -0.139776
C91   C     C_R   0.443590 0.373330 0.121858 -0.139775
C92   C     C_R   0.556409 0.373329 0.878143 -0.139775
C93   C     C_R   0.135358 0.024811 0.089147 0.026120
C94   C     C_R   0.864642 0.024811 0.910853 0.026119
C95   C     C_R   0.635358 0.524811 0.089147 0.026120
C96   C     C_R   0.364642 0.524811 0.910853 0.026120
C97   C     C_R   0.114642 0.999644 0.107158 -0.080949
C98   C     C_R   0.885358 0.999644 0.892842 -0.080948
C99   C     C_R   0.614642 0.499644 0.107158 -0.080948
C100  C     C_R   0.385358 0.499644 0.892842 -0.080948
C101  C     C_R   0.133542 0.972733 0.161822 -0.230821
C102  C     C_R   0.866458 0.972733 0.838178 -0.230820
C103  C     C_R   0.633542 0.472733 0.161822 -0.230821
C104  C     C_R   0.366458 0.472733 0.838178 -0.230821
C105  C     C_R   0.172482 0.970937 0.200746 -0.191803
C106  C     C_R   0.827518 0.970937 0.799254 -0.191803
C107  C     C_R   0.672482 0.470937 0.200746 -0.191803
C108  C     C_R   0.327518 0.470937 0.799254 -0.191803
C109  C     C_R   0.193353 0.996901 0.187701 0.033318
C110  C     C_R   0.806647 0.996901 0.812299 0.033317
C111  C     C_R   0.693353 0.496901 0.187701 0.033318
C112  C     C_R   0.306647 0.496901 0.812299 0.033317
C113  C     C_R   1.000000 0.073438 0.500000 0.887758
C114  C     C_R   0.500000 0.573438 0.500000 0.887758
C115  C     C_R   0.000012 0.000610 0.379926 0.892447
C116  C     C_R   0.999988 0.000610 0.620074 0.892447
C117  C     C_R   0.500012 0.500610 0.379926 0.892447
C118  C     C_R   0.499988 0.500610 0.620074 0.892447
C119  C     C_R   0.000000 0.926566 0.500000 0.864522
C120  C     C_R   0.500000 0.426565 0.500000 0.864522
C121  C     C_R   0.500000 0.073272 0.500000 1.015229
C122  C     C_R   0.000000 0.573272 0.500000 1.015229
C123  C     C_R   0.426856 0.999970 0.426940 0.927053
C124  C     C_R   0.573144 0.999970 0.573060 0.927053
C125  C     C_R   0.926856 0.499970 0.426940 0.927054
C126  C     C_R   0.073144 0.499970 0.573060 0.927053
C127  C     C_R   0.964845 0.902182 0.170040 -0.154227
C128  C     C_R   0.035156 0.902182 0.829960 -0.154226
C129  C     C_R   0.464844 0.402182 0.170040 -0.154227
C130  C     C_R   0.535155 0.402182 0.829960 -0.154227
C131  C     C_R   0.500000 0.926540 0.500000 0.831688
C132  C     C_R   0.000000 0.426540 0.500000 0.831688
C133  C     C_R   0.500651 0.826234 0.556751 -0.177147
C134  C     C_R   0.499349 0.826234 0.443250 -0.177147
C135  C     C_R   0.000651 0.326234 0.556751 -0.177147
C136  C     C_R   0.999349 0.326234 0.443250 -0.177147
C137  C     C_R   0.500669 0.865428 0.556846 -0.218892
C138  C     C_R   0.499331 0.865428 0.443155 -0.218891
C139  C     C_R   0.000669 0.365428 0.556846 -0.218893
C140  C     C_R   0.999331 0.365428 0.443155 -0.218892
C141  C     C_R   0.500000 0.885307 0.500000 -0.021755
C142  C     C_R   0.000000 0.385307 0.500000 -0.021754
C143  C     C_R   0.500000 0.806782 0.500000 0.167820
C144  C     C_R   1.000000 0.306781 0.500000 0.167820
C145  C     C_1   0.500000 0.766747 0.500000 -0.071843
C146  C     C_1   1.000000 0.266747 0.500000 -0.071843
C147  C     C_1   1.000000 0.233084 0.500000 -0.073647
C148  C     C_1   0.500000 0.733084 0.500000 -0.073647
C149  C     C_R   0.032983 0.173599 0.547925 -0.195602
C150  C     C_R   0.967017 0.173599 0.452075 -0.195602
C151  C     C_R   0.532983 0.673599 0.547925 -0.195602
C152  C     C_R   0.467017 0.673599 0.452075 -0.195602
C153  C     C_R   0.033020 0.134408 0.547994 -0.208201
C154  C     C_R   0.966980 0.134408 0.452006 -0.208201
C155  C     C_R   0.533020 0.634408 0.547994 -0.208200
C156  C     C_R   0.466979 0.634408 0.452006 -0.208202
C157  C     C_R   1.000000 0.114586 0.500000 -0.007156
C158  C     C_R   0.500000 0.614586 0.500000 -0.007156
C159  C     C_R   0.957441 0.940059 0.147908 0.137562
C160  C     C_R   0.042560 0.940060 0.852093 0.137562
C161  C     C_R   0.457440 0.440059 0.147908 0.137562
C162  C     C_R   0.542559 0.440059 0.852092 0.137563
C163  C     C_R   1.000000 0.193052 0.500000 0.158868
C164  C     C_R   0.500000 0.693052 0.500000 0.158868
C165  C     C_R   0.498555 0.173602 0.442490 -0.166266
C166  C     C_R   0.501445 0.173602 0.557510 -0.166267
C167  C     C_R   0.998555 0.673602 0.442490 -0.166266
C168  C     C_R   0.001445 0.673602 0.557509 -0.166267
C169  C     C_R   0.498563 0.134405 0.442420 -0.166351
C170  C     C_R   0.501437 0.134405 0.557580 -0.166353
C171  C     C_R   0.998563 0.634405 0.442420 -0.166351
C172  C     C_R   0.001437 0.634405 0.557580 -0.166352
C173  C     C_R   0.500000 0.114524 0.500000 0.010809
C174  C     C_R   0.000000 0.614525 0.500000 0.010809
C175  C     C_R   0.500000 0.193055 0.500000 0.155557
C176  C     C_R   0.000000 0.693055 0.500000 0.155557
C177  C     C_1   0.500000 0.233088 0.500000 -0.060373
C178  C     C_1   0.000000 0.733088 0.500000 -0.060373
C179  C     C_1   0.000000 0.766749 0.500000 -0.068737
C180  C     C_1   0.500000 0.266749 0.500000 -0.068737
C181  C     C_R   0.034218 0.826236 0.535242 -0.164616
C182  C     C_R   0.965782 0.826236 0.464757 -0.164615
C183  C     C_R   0.534218 0.326236 0.535242 -0.164616
C184  C     C_R   0.465782 0.326236 0.464757 -0.164616
C185  C     C_R   0.034266 0.865436 0.535283 -0.202188
C186  C     C_R   0.965734 0.865436 0.464716 -0.202189
C187  C     C_R   0.534266 0.365436 0.535283 -0.202188
C188  C     C_R   0.465734 0.365436 0.464716 -0.202188
C189  C     C_R   0.000000 0.885318 0.500000 -0.041404
C190  C     C_R   0.500000 0.385318 0.500000 -0.041404
C191  C     C_R   0.928154 0.948462 0.077133 -0.106303
C192  C     C_R   0.071846 0.948462 0.922867 -0.106303
C193  C     C_R   0.428154 0.448462 0.077133 -0.106302
C194  C     C_R   0.571846 0.448462 0.922867 -0.106304
C195  C     C_R   0.000000 0.806782 0.500000 0.158762
C196  C     C_R   0.500000 0.306782 0.500000 0.158762
C197  C     C_R   0.906932 0.919579 0.029125 -0.118239
C198  C     C_R   0.093068 0.919579 0.970876 -0.118238
C199  C     C_R   0.406932 0.419580 0.029125 -0.118238
C200  C     C_R   0.593068 0.419579 0.970875 -0.118238
C201  C     C_R   0.914668 0.882022 0.051452 -0.122858
C202  C     C_R   0.085333 0.882022 0.948549 -0.122858
C203  C     C_R   0.414667 0.382022 0.051452 -0.122859
C204  C     C_R   0.585332 0.382022 0.948549 -0.122858
C205  C     C_R   0.980988 0.971744 0.265168 -0.247328
C206  C     C_R   0.019012 0.971744 0.734833 -0.247328
C207  C     C_R   0.480988 0.471744 0.265168 -0.247328
C208  C     C_R   0.519012 0.471744 0.734832 -0.247328
H1    H     H_    0.898240 0.859662 0.014236 0.128304
H2    H     H_    0.101760 0.859662 0.985765 0.128305
H3    H     H_    0.398240 0.359662 0.014236 0.128305
H4    H     H_    0.601759 0.359662 0.985765 0.128305
H5    H     H_    0.081648 0.149006 0.473672 0.129353
H6    H     H_    0.918351 0.149006 0.526326 0.129353
H7    H     H_    0.581649 0.649006 0.473673 0.129353
H8    H     H_    0.418351 0.649007 0.526327 0.129354
H9    H     H_    0.014792 0.152249 0.373803 0.145339
H10   H     H_    0.985207 0.152250 0.626196 0.145339
H11   H     H_    0.514792 0.652249 0.373805 0.145339
H12   H     H_    0.485208 0.652250 0.626197 0.145339
H13   H     H_    0.984788 0.097388 0.293255 0.136037
H14   H     H_    0.015212 0.097388 0.706745 0.136036
H15   H     H_    0.484788 0.597388 0.293256 0.136037
H16   H     H_    0.515212 0.597389 0.706746 0.136037
H17   H     H_    0.308354 0.054572 0.291008 0.197142
H18   H     H_    0.691645 0.054572 0.708991 0.197141
H19   H     H_    0.808354 0.554572 0.291008 0.197142
H20   H     H_    0.191645 0.554572 0.708991 0.197141
H21   H     H_    0.312787 0.936333 0.330157 0.127213
H22   H     H_    0.687213 0.936333 0.669844 0.127213
H23   H     H_    0.812787 0.436333 0.330157 0.127213
H24   H     H_    0.187213 0.436333 0.669844 0.127213
H25   H     H_    0.117995 0.953023 0.174895 0.162223
H26   H     H_    0.882005 0.953024 0.825106 0.162223
H27   H     H_    0.617995 0.453024 0.174894 0.162223
H28   H     H_    0.382005 0.453024 0.825106 0.162223
H29   H     H_    0.949530 0.844223 0.139139 0.133312
H30   H     H_    0.050471 0.844223 0.860862 0.133312
H31   H     H_    0.449529 0.344223 0.139139 0.133312
H32   H     H_    0.550469 0.344223 0.860862 0.133312
H33   H     H_    0.186437 0.949728 0.242590 0.147306
H34   H     H_    0.813563 0.949728 0.757411 0.147306
H35   H     H_    0.686437 0.449728 0.242590 0.147306
H36   H     H_    0.313563 0.449728 0.757410 0.147306
H37   H     H_    0.501135 0.811125 0.600785 0.137574
H38   H     H_    0.498865 0.811125 0.399215 0.137575
H39   H     H_    0.001135 0.311125 0.600785 0.137575
H40   H     H_    0.998865 0.311125 0.399215 0.137575
H41   H     H_    0.501165 0.880092 0.601256 0.161598
H42   H     H_    0.498835 0.880092 0.398744 0.161598
H43   H     H_    0.001165 0.380092 0.601256 0.161598
H44   H     H_    0.998835 0.380092 0.398744 0.161598
H45   H     H_    0.058584 0.188702 0.585112 0.137552
H46   H     H_    0.941416 0.188702 0.414888 0.137552
H47   H     H_    0.558584 0.688702 0.585112 0.137552
H48   H     H_    0.441416 0.688702 0.414889 0.137552
H49   H     H_    0.058765 0.119660 0.585568 0.156598
H50   H     H_    0.941235 0.119660 0.414432 0.156597
H51   H     H_    0.558765 0.619660 0.585568 0.156598
H52   H     H_    0.441235 0.619660 0.414432 0.156598
H53   H     H_    0.497423 0.188715 0.397839 0.137812
H54   H     H_    0.502578 0.188714 0.602161 0.137813
H55   H     H_    0.997423 0.688714 0.397839 0.137813
H56   H     H_    0.002577 0.688714 0.602161 0.137813
H57   H     H_    0.497400 0.119735 0.397377 0.158211
H58   H     H_    0.502600 0.119735 0.602622 0.158211
H59   H     H_    0.997400 0.619735 0.397377 0.158211
H60   H     H_    0.002600 0.619735 0.602622 0.158210
H61   H     H_    0.060779 0.811123 0.562605 0.137831
H62   H     H_    0.939221 0.811123 0.437394 0.137831
H63   H     H_    0.560779 0.311123 0.562605 0.137831
H64   H     H_    0.439221 0.311123 0.437394 0.137831
H65   H     H_    0.061046 0.880112 0.562886 0.159119
H66   H     H_    0.938954 0.880112 0.437114 0.159119
H67   H     H_    0.561046 0.380112 0.562886 0.159119
H68   H     H_    0.438954 0.380112 0.437114 0.159119
H69   H     H_    0.987195 0.895005 0.224408 0.128265
H70   H     H_    0.012806 0.895005 0.775593 0.128265
H71   H     H_    0.487194 0.395005 0.224408 0.128265
H72   H     H_    0.512805 0.395005 0.775593 0.128265
H73   H     H_    0.922069 0.977348 0.059098 0.105943
H74   H     H_    0.077931 0.977348 0.940903 0.105943
H75   H     H_    0.422070 0.477348 0.059098 0.105943
H76   H     H_    0.577931 0.477348 0.940902 0.105943
H77   H     H_    0.884511 0.926325 0.974628 0.141281
H78   H     H_    0.115489 0.926326 0.025373 0.141281
H79   H     H_    0.384511 0.426326 0.974627 0.141281
H80   H     H_    0.615489 0.426325 0.025372 0.141281
H81   H     H_    0.967089 0.949925 0.278116 0.145876
H82   H     H_    0.032911 0.949926 0.721885 0.145875
H83   H     H_    0.467089 0.449926 0.278115 0.145875
H84   H     H_    0.532911 0.449925 0.721885 0.145876
H85   H     H_    0.029539 0.051901 0.221169 0.170290
H86   H     H_    0.970461 0.051901 0.778831 0.170290
H87   H     H_    0.529539 0.551901 0.221169 0.170289
H88   H     H_    0.470461 0.551902 0.778831 0.170290
H89   H     H_    0.089209 0.035749 0.412447 0.128062
H90   H     H_    0.910792 0.035749 0.587552 0.128063
H91   H     H_    0.589209 0.535749 0.412447 0.128062
H92   H     H_    0.410792 0.535749 0.587551 0.128062
H93   H     H_    0.118691 0.090706 0.493074 0.125988
H94   H     H_    0.881309 0.090705 0.506925 0.125987
H95   H     H_    0.618692 0.590705 0.493073 0.125988
H96   H     H_    0.381309 0.590706 0.506925 0.125987
O1    O     O_R   0.055440 0.968710 0.055440 -0.617373
O2    O     O_R   0.944560 0.968710 0.944560 -0.617373
O3    O     O_R   0.555440 0.468710 0.055440 -0.617373
O4    O     O_R   0.444560 0.468710 0.944560 -0.617374
O5    O     O_R   0.444560 0.999900 0.496290 -0.610543
O6    O     O_R   0.555440 0.999900 0.503710 -0.610542
O7    O     O_R   0.944560 0.499900 0.496290 -0.610543
O8    O     O_R   0.055440 0.499900 0.503710 -0.610542
O9    O     O_R   0.444560 0.999880 0.392840 -0.615651
O10   O     O_R   0.555440 0.999880 0.607160 -0.615652
O11   O     O_R   0.944560 0.499880 0.392840 -0.615651
O12   O     O_R   0.055440 0.499880 0.607160 -0.615652
O13   O     O_R   0.500000 0.944470 0.551750 -0.633952
O14   O     O_R   0.500000 0.944470 0.448250 -0.633951
O15   O     O_R   1.000000 0.444470 0.551750 -0.633951
O16   O     O_R   0.000000 0.444470 0.448250 -0.633951
O17   O     O_R   0.055440 0.031290 0.055450 -0.620546
O18   O     O_R   0.944560 0.031290 0.944550 -0.620545
O19   O     O_R   0.555440 0.531290 0.055450 -0.620546
O20   O     O_R   0.444560 0.531290 0.944550 -0.620545
O21   O     O_R   0.000000 0.968710 0.091620 -0.607655
O22   O     O_R   0.000000 0.968710 0.908380 -0.607656
O23   O     O_R   0.500000 0.468710 0.091620 -0.607655
O24   O     O_R   0.500000 0.468710 0.908380 -0.607655
O25   O     O_R   0.000000 0.031290 0.091630 -0.629206
O26   O     O_R   0.000000 0.031290 0.908370 -0.629206
O27   O     O_R   0.500000 0.531290 0.091630 -0.629206
O28   O     O_R   0.500000 0.531290 0.908370 -0.629205
O29   O     O_R   0.968720 0.055450 0.468730 -0.622477
O30   O     O_R   0.031280 0.055450 0.531270 -0.622476
O31   O     O_R   0.468720 0.555450 0.468730 -0.622477
O32   O     O_R   0.531280 0.555450 0.531270 -0.622476
O33   O     O_R   0.968700 0.000020 0.377090 -0.623294
O34   O     O_R   0.031300 0.000020 0.622910 -0.623295
O35   O     O_R   0.468700 0.500020 0.377090 -0.623294
O36   O     O_R   0.531300 0.500020 0.622910 -0.623294
O37   O     O_R   0.031300 0.000000 0.439680 -0.621077
O38   O     O_R   0.968700 0.000000 0.560320 -0.621078
O39   O     O_R   0.531300 0.500000 0.439680 -0.621076
O40   O     O_R   0.468700 0.500000 0.560320 -0.621078
O41   O     O_R   0.968690 0.944590 0.468690 -0.625701
O42   O     O_R   0.031310 0.944590 0.531310 -0.625702
O43   O     O_R   0.468690 0.444590 0.468690 -0.625701
O44   O     O_R   0.531310 0.444590 0.531310 -0.625702
O45   O     O_R   0.500000 0.055330 0.551710 -0.615077
O46   O     O_R   0.500000 0.055330 0.448290 -0.615075
O47   O     O_R   0.000000 0.555330 0.551710 -0.615077
O48   O     O_R   0.000000 0.555330 0.448290 -0.615075
Zn1   Zn    Zn3+2 0.000000 0.958210 0.000000 0.972885
Zn2   Zn    Zn3+2 0.500000 0.458210 0.000000 0.972885
Zn3   Zn    Zn3+2 0.000000 0.041790 0.000000 0.949489
Zn4   Zn    Zn3+2 0.500000 0.541790 0.000000 0.949489
Zn5   Zn    Zn3+2 0.958200 0.000020 0.458210 0.950056
Zn6   Zn    Zn3+2 0.041800 0.000020 0.541790 0.950056
Zn7   Zn    Zn3+2 0.458200 0.500020 0.458210 0.950055
Zn8   Zn    Zn3+2 0.541800 0.500020 0.541790 0.950056
Zn9   Zn    Zn3+2 0.500000 0.999910 0.569080 0.974795
Zn10  Zn    Zn3+2 0.500000 0.999910 0.430920 0.974796
Zn11  Zn    Zn3+2 0.000000 0.499910 0.569080 0.974795
Zn12  Zn    Zn3+2 0.000000 0.499910 0.430920 0.974795
C209  C     C_2   0.382012 0.069695 0.363032 0.899418
O49   O     O_2   0.413475 0.076635 0.414471 -0.661547
O50   O     O_R   0.361801 0.097916 0.312143 -0.798606
H97   H     H_    0.376406 0.122410 0.323508 0.347058
C210  C     C_2   0.617988 0.069695 0.636966 0.899416
O51   O     O_2   0.586525 0.076635 0.585527 -0.661547
O52   O     O_R   0.638199 0.097917 0.687854 -0.798606
H98   H     H_    0.623594 0.122410 0.676489 0.347058
C211  C     C_2   0.882012 0.569694 0.363032 0.899416
O53   O     O_2   0.913475 0.576635 0.414471 -0.661547
O54   O     O_R   0.861801 0.597916 0.312144 -0.798605
H99   H     H_    0.876406 0.622410 0.323509 0.347058
C212  C     C_2   0.117988 0.569694 0.636967 0.899416
O55   O     O_2   0.086525 0.576635 0.585527 -0.661547
O56   O     O_R   0.138199 0.597916 0.687855 -0.798606
H100  H     H_    0.123594 0.622410 0.676489 0.347058
C213  C     C_3   0.391444 0.927904 0.410514 -0.408619
C214  C     C_3   0.369606 0.890735 0.395546 -0.374446
C215  C     C_3   0.396563 0.857443 0.429576 -0.847048
H101  H     H_    0.414966 0.854917 0.406555 0.272119
H102  H     H_    0.414427 0.861119 0.489182 0.264539
H103  H     H_    0.380126 0.830986 0.418183 0.245940
H104  H     H_    0.351220 0.891997 0.418802 0.223636
H105  H     H_    0.351889 0.885922 0.336178 0.227618
H106  H     H_    0.410667 0.925091 0.389291 0.199623
H107  H     H_    0.409121 0.931790 0.470155 0.211169
C216  C     C_3   0.608556 0.927904 0.589487 -0.408618
C217  C     C_3   0.630394 0.890735 0.604456 -0.374447
C218  C     C_3   0.603437 0.857443 0.570427 -0.847048
H108  H     H_    0.585035 0.854917 0.593448 0.272119
H109  H     H_    0.585573 0.861119 0.510820 0.264539
H110  H     H_    0.619874 0.830986 0.581820 0.245940
H111  H     H_    0.648780 0.891997 0.581200 0.223637
H112  H     H_    0.648111 0.885922 0.663825 0.227618
H113  H     H_    0.589333 0.925091 0.610711 0.199623
H114  H     H_    0.590879 0.931790 0.529846 0.211168
C219  C     C_3   0.891444 0.427904 0.410514 -0.408618
C220  C     C_3   0.869606 0.390735 0.395546 -0.374445
C221  C     C_3   0.896563 0.357443 0.429575 -0.847048
H115  H     H_    0.914966 0.354917 0.406554 0.272119
H116  H     H_    0.914427 0.361119 0.489182 0.264539
H117  H     H_    0.880126 0.330986 0.418183 0.245940
H118  H     H_    0.851220 0.391997 0.418802 0.223636
H119  H     H_    0.851889 0.385922 0.336177 0.227618
H120  H     H_    0.910667 0.425091 0.389290 0.199623
H121  H     H_    0.909121 0.431790 0.470155 0.211169
C222  C     C_3   0.108556 0.427904 0.589487 -0.408618
C223  C     C_3   0.130394 0.390735 0.604455 -0.374445
C224  C     C_3   0.103437 0.357443 0.570427 -0.847047
H122  H     H_    0.085035 0.354917 0.593447 0.272118
H123  H     H_    0.085573 0.361119 0.510820 0.264539
H124  H     H_    0.119874 0.330986 0.581819 0.245940
H125  H     H_    0.148780 0.391997 0.581199 0.223636
H126  H     H_    0.148111 0.385922 0.663824 0.227618
H127  H     H_    0.089333 0.425091 0.610711 0.199623
H128  H     H_    0.090879 0.431790 0.529846 0.211168
C225  C     C_2   0.198360 0.054352 0.125425 0.871019
O57   O     O_2   0.225890 0.045482 0.122053 -0.627528
O58   O     O_R   0.188570 0.092316 0.121865 -0.813297
H129  H     H_    0.206243 0.109653 0.116061 0.349839
C226  C     C_2   0.801640 0.054352 0.874575 0.871019
O59   O     O_2   0.774110 0.045482 0.877947 -0.627529
O60   O     O_R   0.811430 0.092316 0.878135 -0.813296
H130  H     H_    0.793757 0.109653 0.883939 0.349838
C227  C     C_2   0.698360 0.554353 0.125424 0.871019
O61   O     O_2   0.725890 0.545482 0.122053 -0.627528
O62   O     O_R   0.688569 0.592316 0.121864 -0.813297
H131  H     H_    0.706243 0.609653 0.116060 0.349839
C228  C     C_2   0.301640 0.554352 0.874575 0.871020
O63   O     O_2   0.274110 0.545482 0.877947 -0.627528
O64   O     O_R   0.311430 0.592316 0.878135 -0.813297
H132  H     H_    0.293756 0.609653 0.883939 0.349839
C229  C     C_3   0.115555 0.049173 0.020651 -0.418094
C230  C     C_3   0.128701 0.040148 0.967362 -0.365878
C231  C     C_3   0.100788 0.054773 0.891293 -0.867960
H133  H     H_    0.073020 0.040713 0.868996 0.263462
H134  H     H_    0.097092 0.085710 0.892542 0.266123
H135  H     H_    0.111608 0.048667 0.854946 0.256593
H136  H     H_    0.156364 0.053510 0.985523 0.250249
H137  H     H_    0.132076 0.009257 0.964579 0.224181
H138  H     H_    0.084707 0.044984 0.990587 0.220492
H139  H     H_    0.120157 0.079464 0.035436 0.247501
C232  C     C_3   0.884445 0.049173 0.979349 -0.418094
C233  C     C_3   0.871298 0.040148 0.032637 -0.365874
C234  C     C_3   0.899212 0.054773 0.108707 -0.867961
H140  H     H_    0.926980 0.040712 0.131004 0.263463
H141  H     H_    0.902908 0.085710 0.107457 0.266123
H142  H     H_    0.888391 0.048667 0.145054 0.256594
H143  H     H_    0.843635 0.053510 0.014477 0.250248
H144  H     H_    0.867924 0.009256 0.035421 0.224180
H145  H     H_    0.915293 0.044984 0.009413 0.220492
H146  H     H_    0.879843 0.079464 0.964563 0.247501
C235  C     C_3   0.615555 0.549173 0.020651 -0.418094
C236  C     C_3   0.628701 0.540148 0.967362 -0.365874
C237  C     C_3   0.600788 0.554773 0.891293 -0.867963
H147  H     H_    0.573020 0.540713 0.868995 0.263463
H148  H     H_    0.597092 0.585710 0.892542 0.266124
H149  H     H_    0.611608 0.548668 0.854946 0.256594
H150  H     H_    0.656364 0.553510 0.985523 0.250248
H151  H     H_    0.632076 0.509257 0.964579 0.224180
H152  H     H_    0.584706 0.544984 0.990587 0.220492
H153  H     H_    0.620157 0.579464 0.035436 0.247500
C238  C     C_3   0.384445 0.549173 0.979348 -0.418096
C239  C     C_3   0.371298 0.540148 0.032637 -0.365876
C240  C     C_3   0.399212 0.554773 0.108706 -0.867960
H154  H     H_    0.426980 0.540713 0.131004 0.263462
H155  H     H_    0.402907 0.585710 0.107457 0.266123
H156  H     H_    0.388391 0.548667 0.145054 0.256594
H157  H     H_    0.343635 0.553509 0.014477 0.250248
H158  H     H_    0.367924 0.509256 0.035421 0.224180
H159  H     H_    0.415293 0.544984 0.009412 0.220493
H160  H     H_    0.379842 0.579464 0.964563 0.247501

loop_
_geom_bond_atom_site_label_1
_geom_bond_atom_site_label_2
_ccdc_geom_bond_type
C213  H107  S    
C99   C103  A    
O60   H130  S    
C133  C137  A    
C55   C59   A    
O30   Zn6   S    
C235  C236  S    
C38   H10   S    
C125  O11   A    
C153  H49   S    
C145  C148  T    
C126  O12   A    
C175  C177  S    
C179  C195  S    
C229  C230  S    
C135  C139  A    
C150  C163  A    
C84   C112  S    
C119  C189  S    
C14   H86   S    
C221  H116  S    
C26   C50   A    
C139  C142  A    
C95   C99   A    
C150  H46   S    
C115  O33   A    
C215  H102  S    
C29   C33   A    
C100  C104  A    
C89   H29   S    
C119  O41   A    
C226  O59   D    
C128  H70   S    
C9    C13   A    
C118  O40   A    
C53   H17   S    
C134  C143  A    
C54   C74   A    
C11   C15   A    
C30   H94   S    
C121  C173  S    
C152  C156  A    
C172  C174  A    
C234  H141  S    
C70   C74   A    
C171  H59   S    
C151  C155  A    
C40   C44   A    
C180  C196  S    
O22   Zn1   S    
C136  C140  A    
C219  H120  S    
O3    Zn2   S    
C47   O27   A    
C224  H123  S    
C236  H151  S    
C40   H12   S    
C155  C158  A    
C101  C105  A    
C21   C159  S    
C132  O15   A    
C107  H35   S    
C41   C49   A    
C63   C67   A    
C165  C169  A    
O23   Zn2   S    
C46   O22   A    
C90   H30   S    
C27   C31   A    
C178  C179  T    
C28   C32   A    
C114  O31   A    
C191  H73   S    
C152  H48   S    
C62   C66   A    
C167  C171  A    
C98   C102  A    
C17   C21   A    
O7    Zn11  S    
O18   Zn3   S    
C92   C130  A    
C121  O46   A    
C6    C10   A    
C135  H39   S    
C78   C82   T    
C137  H41   S    
C16   C20   A    
C204  H4    S    
C183  C196  A    
C6    C116  S    
C63   C125  S    
O47   Zn11  S    
C220  H119  S    
C7    C207  A    
C216  H114  S    
C102  H26   S    
C213  C214  S    
O15   Zn11  S    
C215  H101  S    
C235  H153  S    
C117  O35   A    
O40   Zn7   S    
C45   O25   A    
C146  C147  T    
C89   C127  A    
C240  H156  S    
O25   Zn3   S    
C86   C110  A    
C114  O32   A    
C138  C141  A    
C113  O29   A    
O54   H99   S    
C186  H66   S    
C57   C61   A    
C91   C129  A    
C218  H108  S    
C59   C63   A    
C60   C64   A    
C233  C234  S    
C156  C158  A    
C172  H60   S    
C31   H95   S    
C209  O49   D    
C32   H96   S    
C66   C70   A    
C239  H158  S    
C166  H54   S    
C205  H81   S    
C87   C227  S    
C61   C65   A    
C73   C77   S    
C59   C211  S    
C131  O14   A    
C71   H23   S    
C103  C107  A    
C113  C157  S    
C75   C79   S    
C134  H38   S    
C90   C202  A    
C26   C30   A    
C225  O57   D    
C7    C117  S    
C23   C207  A    
O20   Zn4   S    
C219  C220  S    
C227  O61   D    
C238  H160  S    
C237  H148  S    
C64   C68   A    
C39   H11   S    
C223  C224  S    
C232  H145  S    
C231  H134  S    
C153  C157  A    
C19   C47   S    
C149  H45   S    
C22   C206  A    
C116  O38   A    
C55   H19   S    
C149  C153  A    
O45   Zn9   S    
C85   C93   A    
C3    O19   A    
C87   C95   A    
C198  C202  A    
C233  H144  S    
C125  O7    A    
C126  O8    A    
C131  C141  S    
C200  C204  A    
C55   C75   A    
C130  C162  A    
C176  C178  S    
O48   Zn12  S    
C223  H126  S    
C193  H75   S    
C5    C115  S    
C194  H76   S    
C203  H3    S    
C229  H138  S    
C240  H154  S    
C201  H1    S    
C27   C51   A    
C181  H61   S    
C218  H110  S    
C183  H63   S    
C236  C237  S    
C30   C34   A    
C129  C161  A    
C66   C216  S    
C148  C164  S    
C12   C16   A    
C9    C49   S    
O17   Zn3   S    
C118  O36   A    
C10   C14   A    
C122  O48   A    
C122  C174  S    
C1    O1    A    
C43   H15   S    
C5    C9    A    
C217  H111  S    
C69   H21   S    
C86   C226  S    
C155  H51   S    
O62   H131  S    
C8    C12   A    
C161  C193  A    
C167  H55   S    
C124  O6    A    
C168  H56   S    
C42   C50   A    
C120  O43   A    
C4    O4    A    
C166  C170  A    
C192  C198  A    
C214  C215  S    
C93   C97   A    
C220  C221  S    
C213  H106  S    
C168  C176  A    
C105  C109  A    
C92   H32   S    
O2    Zn1   S    
C103  H27   S    
C72   H24   S    
O41   Zn5   S    
C18   C22   A    
C107  C111  A    
C76   C80   S    
O43   Zn7   S    
C138  H42   S    
C53   C57   A    
C58   C210  S    
C185  C189  A    
O14   Zn10  S    
C222  H128  S    
C13   H85   S    
O11   Zn12  S    
C13   C17   A    
C61   C123  S    
C215  H103  S    
C147  C163  S    
C36   H8    S    
C22   C160  S    
C214  H104  S    
C96   C100  A    
O27   Zn4   S    
C230  H136  S    
C37   C41   A    
C41   H13   S    
C6    C206  A    
O1    Zn1   S    
C3    C99   S    
C104  H28   S    
C239  C240  S    
C234  H140  S    
C25   H89   S    
C169  C173  A    
C182  C195  A    
C198  H78   S    
C42   H14   S    
O38   Zn5   S    
C35   H7    S    
C28   H92   S    
C133  H37   S    
C210  O52   S    
C187  H67   S    
C58   C62   A    
C199  C203  A    
C88   C96   A    
C224  H122  S    
C132  O16   A    
O29   Zn5   S    
C140  H44   S    
C37   H9    S    
C80   C84   T    
O56   H100  S    
O33   Zn5   S    
C15   C19   A    
C166  C175  A    
O35   Zn7   S    
C16   H88   S    
C140  C142  A    
C206  H82   S    
C85   C109  A    
C211  O54   S    
C106  C110  A    
C87   C111  A    
C94   C98   A    
O52   H98   S    
C46   O26   A    
C136  H40   S    
C182  C186  A    
C235  H152  S    
C121  O45   A    
C230  C231  S    
O42   Zn6   S    
C187  C190  A    
O46   Zn10  S    
C120  C190  S    
O50   H97   S    
C228  O64   S    
C123  O9    A    
C69   C73   A    
C44   H16   S    
O13   Zn9   S    
C92   C204  A    
C85   C225  S    
C216  H113  S    
O9    Zn10  S    
C108  H36   S    
C25   C29   A    
C226  O60   S    
O31   Zn7   S    
C93   C229  S    
C106  H34   S    
C18   C46   S    
C62   C124  S    
C12   C52   S    
O16   Zn12  S    
C240  H155  S    
C60   C212  S    
C171  C174  A    
C139  H43   S    
C232  C233  S    
C184  H64   S    
C159  C191  A    
O24   Zn2   S    
C221  H117  S    
C160  C192  A    
C154  C157  A    
C144  C146  S    
C34   H6    S    
C56   H20   S    
C184  C196  A    
C24   C208  A    
C33   C37   A    
C56   C60   A    
C35   C39   A    
C231  H133  S    
C27   H91   S    
C229  H139  S    
C77   C81   T    
C234  H142  S    
C15   H87   S    
O34   Zn6   S    
C88   C228  S    
C123  O5    A    
C127  H69   S    
C124  O10   A    
C20   C48   S    
O12   Zn11  S    
O19   Zn4   S    
C219  H121  S    
C182  H62   S    
C81   C109  S    
C224  H124  S    
C64   C126  S    
C236  H150  S    
C131  O13   A    
C101  H25   S    
C83   C111  S    
C10   C50   S    
C32   C36   A    
C104  C108  A    
O64   H132  S    
C137  C141  A    
C33   H5    S    
C2    O2    A    
C169  H57   S    
C57   C209  S    
C17   C45   S    
C217  C218  S    
C67   C219  S    
C1    O17   A    
O28   Zn4   S    
C238  H159  S    
C186  C189  A    
C136  C144  A    
C96   C238  S    
C193  C199  A    
C79   C83   T    
C43   C51   A    
O8    Zn12  S    
O4    Zn2   S    
C67   C71   A    
C130  H72   S    
C181  C195  A    
C25   C49   A    
O44   Zn8   S    
C220  H118  S    
C88   C112  A    
C108  C112  A    
C168  C172  A    
C115  O37   A    
C74   C78   S    
C222  C223  S    
C208  H84   S    
C29   H93   S    
C170  C173  A    
C119  O42   A    
C89   C201  A    
C56   C76   A    
C170  H58   S    
C14   C18   A    
C19   C23   A    
C221  H115  S    
C72   C76   A    
C113  O30   A    
C8    C118  S    
C216  C217  S    
C65   C69   A    
C7    C11   A    
C218  H109  S    
C47   O23   A    
O32   Zn8   S    
C82   C110  S    
C188  C190  A    
C38   C42   A    
C183  C187  A    
C209  O50   S    
C177  C180  T    
C239  H157  S    
C26   H90   S    
C192  H74   S    
C21   C205  A    
C8    C208  A    
C54   H18   S    
C217  H112  S    
C86   C94   A    
C20   C24   A    
C2    O18   A    
C197  C201  A    
C149  C163  A    
C95   C235  S    
C68   C72   A    
C122  O47   A    
C225  O58   S    
C202  H2    S    
C114  C158  S    
C227  O62   S    
C132  C142  S    
C237  H149  S    
C194  C200  A    
C133  C143  A    
C212  O56   S    
O6    Zn10  S    
C36   C40   A    
C232  H146  S    
C231  H135  S    
C1    C97   S    
O58   H129  S    
C117  O39   A    
C181  C185  A    
C39   C43   A    
C188  H68   S    
C222  H127  S    
C45   O21   A    
C184  C188  A    
C105  H33   S    
C70   H22   S    
C185  H65   S    
C48   O28   A    
C238  C239  S    
C214  H105  S    
C68   C222  S    
C162  C194  A    
C230  H137  S    
C233  H143  S    
C212  O55   D    
C152  C164  A    
C135  C144  A    
C223  H125  S    
C151  C164  A    
C4    C100  S    
O36   Zn8   S    
C165  H53   S    
C127  C159  A    
C128  C160  A    
C151  H47   S    
C210  O51   D    
C54   C58   A    
C143  C145  S    
C94   C232  S    
C90   C128  A    
C34   C38   A    
C53   C73   A    
C191  C197  A    
C207  H83   S    
C154  H50   S    
C134  C138  A    
C197  H77   S    
O26   Zn3   S    
C165  C175  A    
C199  H79   S    
C200  H80   S    
C120  O44   A    
O10   Zn9   S    
C211  O53   D    
C71   C75   A    
C28   C52   A    
C44   C52   A    
C48   O24   A    
C237  H147  S    
C129  H71   S    
C31   C35   A    
C91   C203  A    
C11   C51   S    
C5    C205  A    
O39   Zn8   S    
O5    Zn9   S    
C2    C98   S    
C228  O63   D    
C150  C154  A    
C102  C106  A    
C91   H31   S    
C4    O20   A    
C3    O3    A    
C116  O34   A    
C23   C161  S    
C24   C162  S    
C97   C101  A    
O37   Zn6   S    
C65   C213  S    
C167  C176  A    
C156  H52   S    
O21   Zn1   S    
