data_mof_unit_48465.cif
_audit_creation_date              2013-03-05T16:14:16-0500
_audit_creation_method            fapswitch 2.2
_symmetry_space_group_name_H-M    P1
_symmetry_Int_Tables_number       1
_space_group_crystal_system       triclinic
_cell_length_a                    10.777923
_cell_length_b                    10.673308
_cell_length_c                    9.834069
_cell_angle_alpha                 90.286551
_cell_angle_beta                  90.946308
_cell_angle_gamma                 90.121212
_cell_volume                      1131.10169113

loop_
_atom_site_label
_atom_site_type_symbol
_atom_site_description
_atom_site_fract_x
_atom_site_fract_y
_atom_site_fract_z
_atom_type_partial_charge
O1    O     O_R   0.499990 0.316750 0.614620 -0.611503
O2    O     O_R   0.500010 0.683250 0.385380 -0.611502
O3    O     O_R   0.499990 0.316780 0.385290 -0.608574
O4    O     O_R   0.500010 0.683220 0.614710 -0.608591
C1    C     C_R   0.499051 0.260256 0.499385 1.034821
C2    C     C_R   0.500949 0.739743 0.500614 1.034864
O5    O     O_R   0.316760 0.500000 0.614660 -0.618522
O6    O     O_R   0.683240 0.500000 0.385340 -0.618529
O7    O     O_R   0.316760 0.500020 0.385330 -0.635288
O8    O     O_R   0.683240 0.499980 0.614670 -0.635285
C3    C     C_R   0.259907 0.502408 0.498472 0.953559
C4    C     C_R   0.740093 0.497591 0.501528 0.953507
Zn1   Zn    Zn3+2 0.500000 0.499980 0.653120 1.014069
Zn2   Zn    Zn3+2 0.500000 0.500020 0.346880 1.014076
C5    C     C_R   0.207154 0.689187 0.075621 -0.144412
C6    C     C_R   0.792842 0.310811 0.924375 -0.144400
H1    H     H_    0.242445 0.779929 0.046201 0.223579
H2    H     H_    0.757548 0.220071 0.953793 0.223576
C7    C     C_R   0.157549 0.671615 0.205589 0.319718
C8    C     C_R   0.842447 0.328385 0.794408 0.319717
C9    C     C_R   0.112110 0.551395 0.240731 -0.008181
C10   C     C_R   0.887889 0.448603 0.759268 -0.008178
C11   C     C_R   0.115595 0.453400 0.145021 -0.141852
C12   C     C_R   0.884406 0.546596 0.854980 -0.141851
H3    H     H_    0.080582 0.361363 0.170430 0.188398
H4    H     H_    0.919421 0.638633 0.829573 0.188396
C13   C     C_R   0.163643 0.473250 0.016142 -0.160928
C14   C     C_R   0.836357 0.526746 0.983858 -0.160932
C15   C     C_R   0.209014 0.591024 0.981324 -0.164121
C16   C     C_R   0.790984 0.408973 0.018673 -0.164113
C17   C     C_R   0.931188 0.520415 0.381314 -0.112520
C18   C     C_R   0.068812 0.479584 0.618686 -0.112515
C19   C     C_R   0.872594 0.496423 0.504058 -0.033846
C20   C     C_R   0.127406 0.503575 0.495942 -0.033831
C21   C     C_R   0.941863 0.475020 0.624662 0.035226
C22   C     C_R   0.058137 0.524979 0.375338 0.035226
C23   C     C_R   0.581909 0.064655 0.414398 0.254547
C24   C     C_R   0.418085 0.935345 0.585599 0.254516
C25   C     C_R   0.585942 0.935250 0.418191 0.217952
C26   C     C_R   0.414052 0.064751 0.581805 0.217964
C27   C     C_R   0.502557 0.872201 0.502377 -0.350873
C28   C     C_R   0.497440 0.127799 0.497621 -0.350858
C29   C     C_R   0.535695 0.604085 0.073051 -0.071069
C30   C     C_R   0.464306 0.395914 0.926949 -0.071067
H5    H     H_    0.564702 0.687182 0.128127 0.193656
H6    H     H_    0.435303 0.312815 0.871873 0.193668
C31   C     C_R   0.535801 0.604039 0.929248 -0.024970
C32   C     C_R   0.464198 0.395961 0.070751 -0.024933
H7    H     H_    0.565237 0.687074 0.876022 0.179117
H8    H     H_    0.434760 0.312927 0.123978 0.179142
N1    N     N_R   0.499970 0.499970 0.857200 -0.108658
N2    N     N_R   0.500030 0.500030 0.142800 -0.108659
H9    H     H_    0.246048 0.606321 0.881138 0.204737
H10   H     H_    0.753948 0.393675 0.118858 0.204742
N3    N     N_R   0.153014 0.776011 0.298614 0.214709
O9    O     O_R   0.061621 0.787879 0.382468 -0.279503
O10   O     O_R   0.232779 0.867174 0.289329 -0.365763
N4    N     N_R   0.846978 0.223991 0.701380 0.214695
O11   O     O_R   0.938373 0.212118 0.617531 -0.279504
O12   O     O_R   0.767207 0.132833 0.710660 -0.365782
H11   H     H_    0.165942 0.396925 0.943412 0.175177
H12   H     H_    0.834059 0.603069 0.056589 0.175173
H13   H     H_    0.878189 0.538431 0.288983 0.160105
H14   H     H_    0.121811 0.461569 0.711017 0.160101
N5    N     N_R   0.667747 0.132092 0.331891 0.252655
O13   O     O_R   0.757742 0.195812 0.388657 -0.339300
O14   O     O_R   0.645899 0.143522 0.202067 -0.373682
N6    N     N_R   0.332234 0.867906 0.668090 0.252659
O15   O     O_R   0.242306 0.804105 0.611303 -0.339398
O16   O     O_R   0.354013 0.856554 0.797933 -0.373609
N7    N     N_R   0.680336 0.868626 0.345531 0.236424
O17   O     O_R   0.753577 0.791375 0.409709 -0.371279
O18   O     O_R   0.697135 0.888802 0.216809 -0.333619
N8    N     N_R   0.319648 0.131375 0.654446 0.236444
O19   O     O_R   0.246413 0.208620 0.590252 -0.371284
O20   O     O_R   0.302866 0.111242 0.783184 -0.333628

loop_
_geom_bond_atom_site_label_1
_geom_bond_atom_site_label_2
_geom_bond_distance
_ccdc_geom_bond_type
N3    O9    1.301015 A    
C13   C15   1.394179 A    
C1    C28   1.413849 S    
C25   C27   1.404822 A    
C9    C22   1.482780 S    
O5    C3    1.287982 A    
C10   C21   1.482779 S    
C16   H10   1.082122 S    
N8    O20   1.300697 A    
O1    C1    1.280874 A    
C7    C9    1.418838 A    
C12   H4    1.083436 S    
C29   N2    1.366104 A    
C6    C16   1.396078 A    
C23   C28   1.405190 A    
O4    Zn1   1.993773 S    
C13   H11   1.081968 S    
Zn1   N1    2.006943 S    
Zn2   N2    2.006943 S    
N6    O15   1.300197 A    
N5    O14   1.300781 A    
C2    C27   1.413848 S    
C23   N5    1.435321 S    
C17   C19   1.396067 A    
C11   C13   1.394015 A    
C6    C8    1.406806 A    
C26   C28   1.404823 A    
O2    C2    1.280873 A    
C30   H6    1.079891 S    
C5    C15   1.396083 A    
C9    C11   1.404547 A    
N8    O19   1.301071 A    
C18   C21   1.371249 A    
C17   H13   1.082949 S    
C18   H14   1.082951 S    
C24   C27   1.405201 A    
O4    C2    1.276763 A    
N7    O18   1.300652 A    
C31   N1    1.366098 A    
N4    O11   1.301011 A    
C15   H9    1.082125 S    
C18   C20   1.396069 A    
C5    C7    1.406809 A    
O7    Zn2   2.016943 S    
O7    C3    1.279222 A    
C32   N2    1.366099 A    
O6    C4    1.287984 A    
C29   H5    1.079884 S    
O3    Zn2   1.993772 S    
O8    C4    1.279222 A    
C30   N1    1.366107 A    
N6    O16   1.300766 A    
C24   N6    1.435333 S    
N3    O10   1.301578 A    
C10   C12   1.404541 A    
O1    Zn1   1.990122 S    
C8    N4    1.439561 S    
C7    N3    1.439568 S    
C5    H1    1.082259 S    
O6    Zn2   2.004692 S    
C3    C20   1.427979 S    
C12   C14   1.394013 A    
C8    C10   1.418831 A    
O3    C1    1.276761 A    
O8    Zn1   2.016941 S    
C31   H7    1.081214 S    
C14   C16   1.394172 A    
N7    O17   1.301078 A    
C23   C25   1.382626 A    
C24   C26   1.382635 A    
C29   C31   1.414177 A    
C32   H8    1.081214 S    
C19   C21   1.410818 A    
C26   N8    1.439876 S    
C20   C22   1.410818 A    
C11   H3    1.083440 S    
O2    Zn2   1.990122 S    
O5    Zn1   2.004694 S    
C6    H2    1.082254 S    
N5    O13   1.300203 A    
C25   N7    1.439879 S    
C17   C22   1.371249 A    
C4    C19   1.427977 S    
N4    O12   1.301571 A    
C30   C32   1.414176 A    
C14   H12   1.081965 S    
