data_mof_unit_18257.cif
_audit_creation_date              2012-12-10T17:24:52-0500
_audit_creation_method            fapswitch 2.2
_symmetry_space_group_name_H-M    P1
_symmetry_Int_Tables_number       1
_space_group_crystal_system       triclinic
_cell_length_a                    18.742184
_cell_length_b                    18.471783
_cell_length_c                    19.05072
_cell_angle_alpha                 108.939546
_cell_angle_beta                  110.503954
_cell_angle_gamma                 108.625079
_cell_volume                      5097.45410828

loop_
_atom_site_label
_atom_site_type_symbol
_atom_type_description
_atom_site_fract_x
_atom_site_fract_y
_atom_site_fract_z
_atom_type_partial_charge
C1    C     C_R   0.619707 0.620362 0.499951 0.870595
C2    C     C_R   0.680554 0.762347 0.503754 -0.014798
C3    C     C_3   0.961834 0.210503 0.466549 -0.201250
C4    C     C_3   0.094381 0.382807 0.289561 -0.193996
C5    C     C_3   0.856294 0.515013 0.568097 -0.218066
C6    C     C_R   0.816341 0.815954 0.503797 -0.098348
C7    C     C_R   0.380278 0.501239 0.380062 1.025918
C8    C     C_R   0.821729 0.739546 0.497499 -0.022577
C9    C     C_R   0.759035 0.676518 0.500534 0.042026
C10   C     C_R   0.687250 0.687231 0.501274 -0.062865
C11   C     C_R   0.886922 0.723318 0.485351 -0.251399
C12   C     C_R   0.895384 0.650853 0.484660 0.410278
C13   C     C_R   0.837895 0.591835 0.496169 0.444954
C14   C     C_R   0.769394 0.603738 0.501250 -0.324384
C15   C     C_3   0.189857 0.415124 0.191169 -0.436099
C16   C     C_R   0.780939 0.663760 0.754114 0.379481
C17   C     C_R   0.837822 0.743723 0.829896 0.554130
C18   C     C_R   0.888185 0.744981 0.904570 -0.476612
C19   C     C_R   0.376307 0.379418 0.495115 0.949916
C20   C     C_R   0.882209 0.667198 0.904331 0.429697
C21   C     C_R   0.821859 0.584324 0.826877 0.002662
C22   C     C_R   0.764101 0.582671 0.754500 -0.208538
C23   C     C_R   0.817622 0.503083 0.817937 -0.105634
C24   C     C_R   0.751775 0.421899 0.742916 -0.029387
C25   C     C_R   0.682706 0.420203 0.680854 0.091901
C26   C     C_3   0.216427 0.460385 0.287547 0.465080
C27   C     C_R   0.690522 0.500596 0.685646 -0.118327
C28   C     C_R   0.752560 0.341829 0.728812 -0.222934
C29   C     C_R   0.680349 0.261032 0.662389 0.596880
C30   C     C_R   0.607299 0.259521 0.605776 -0.274898
C31   C     C_R   0.620300 0.498787 0.620294 0.866722
C32   C     C_R   0.608205 0.337774 0.614999 -0.263277
C33   C     C_R   0.413199 0.364983 0.645958 -0.324650
C34   C     C_R   0.427440 0.373454 0.725743 0.433011
C35   C     C_R   0.355478 0.334926 0.734765 0.276312
C36   C     C_R   0.271342 0.278363 0.660287 0.381058
C37   C     C_3   0.313551 0.501949 0.314029 -0.270365
C38   C     C_R   0.261239 0.257557 0.577057 -0.032573
C39   C     C_R   0.329033 0.310848 0.571783 -0.088696
C40   C     C_R   0.186164 0.185844 0.498786 -0.081049
C41   C     C_R   0.174458 0.175337 0.417417 -0.229020
C42   C     C_R   0.231283 0.244243 0.414519 -0.154601
C43   C     C_3   0.312509 0.583743 0.311209 0.218227
C44   C     C_R   0.311015 0.310172 0.492941 -0.032753
C45   C     C_R   0.105570 0.098494 0.337920 0.323346
C46   C     C_R   0.074406 0.103246 0.262623 0.382229
C47   C     C_R   0.121445 0.178740 0.261838 0.195237
C48   C     C_R   0.606661 0.771543 0.497886 -0.228343
C49   C     C_R   0.205877 0.242120 0.332996 0.456967
C50   C     C_R   0.008471 0.620456 0.127087 1.008790
C51   C     C_R   0.124197 0.499413 0.123782 1.045648
C52   C     C_R   0.999962 0.380786 0.879598 0.911330
C53   C     C_R   0.883253 0.501981 0.884603 0.993158
C54   C     C_R   0.999881 0.878081 0.381301 0.947613
C55   C     C_3   0.216161 0.542666 0.285602 0.366124
C56   C     C_R   0.880592 0.880633 0.500795 0.863491
C57   C     C_R   0.001451 0.123436 0.617826 0.976473
C58   C     C_R   0.120020 0.121376 0.501105 1.033001
C59   C     C_R   0.605332 0.849793 0.510462 0.375916
C60   C     C_R   0.173238 0.758529 0.292996 0.563736
C61   C     C_R   0.246613 0.823041 0.374532 -0.187417
C62   C     C_R   0.243343 0.891224 0.427955 -0.244926
C63   C     C_R   0.165158 0.891870 0.405059 -0.161735
C64   C     C_R   0.085316 0.819385 0.331523 0.033114
C65   C     C_R   0.089305 0.753876 0.271426 -0.043880
C66   C     C_R   0.002509 0.811936 0.316793 -0.121663
C67   C     C_3   0.190520 0.499266 0.190370 -0.226068
C68   C     C_R   0.923764 0.744524 0.238556 -0.028870
C69   C     C_R   0.930191 0.689675 0.172872 -0.092834
C70   C     C_R   0.677659 0.920362 0.524619 0.373951
C71   C     C_R   0.010083 0.689155 0.192011 -0.138654
C72   C     C_R   0.838021 0.729167 0.221880 0.532905
C73   C     C_R   0.768651 0.682931 0.136472 -0.355251
C74   C     C_R   0.777674 0.636490 0.069279 0.426238
C75   C     C_R   0.855911 0.635820 0.088431 -0.141705
C76   C     C_R   0.012441 0.412706 0.735884 0.426462
C77   C     C_R   0.026623 0.426811 0.672256 0.416758
C78   C     C_R   0.037082 0.367601 0.616818 -0.416978
C79   C     C_3   0.287211 0.540704 0.216480 0.298139
C80   C     C_R   0.023307 0.288120 0.614059 0.500289
C81   C     C_R   0.748925 0.910345 0.526906 -0.202503
C82   C     C_R   0.009793 0.270298 0.678164 -0.085055
C83   C     C_R   0.006733 0.334490 0.742125 -0.151166
C84   C     C_R   0.998037 0.190325 0.679929 -0.112835
C85   C     C_R   0.985614 0.173867 0.743208 -0.023217
C86   C     C_R   0.997428 0.241749 0.813511 0.085771
C87   C     C_R   0.999853 0.317811 0.809725 -0.100566
C88   C     C_R   0.963846 0.090767 0.739016 -0.142974
C89   C     C_R   0.967486 0.079656 0.808861 0.515945
C90   C     C_R   0.993227 0.152071 0.884570 -0.275533
C91   C     C_3   0.287502 0.458745 0.218611 0.335101
C92   C     C_R   0.749303 0.830117 0.511938 -0.005698
C93   C     C_R   0.008396 0.231973 0.887123 -0.194089
C94   C     C_3   0.844878 0.877827 0.891952 -0.267506
C95   C     C_3   0.613604 0.124550 0.648013 -0.290499
C96   C     C_3   0.553274 0.375912 0.799693 -0.277416
C97   C     C_3   0.018855 0.977055 0.140765 -0.290090
C98   C     C_3   0.275448 0.257373 0.256043 -0.056465
C99   C     C_3   0.253318 0.746403 0.225735 -0.195868
C100  C     C_3   0.763827 0.684482 0.285972 -0.320838
C101  C     C_3   0.069399 0.560741 0.828925 -0.079934
C102  C     C_3   0.091903 0.545385 0.655772 -0.341624
H1    H     H_    0.803505 0.966466 0.539482 0.175982
H2    H     H_    0.302201 0.944862 0.487007 0.162138
H3    H     H_    0.170269 0.951014 0.447126 0.159547
H4    H     H_    0.706419 0.680102 0.123205 0.157935
H5    H     H_    0.857574 0.593950 0.035002 0.210727
H6    H     H_    0.000731 0.146659 0.941373 0.140443
H7    H     H_    0.049171 0.379919 0.569261 0.187837
H8    H     H_    0.944451 0.033386 0.681852 0.149422
H9    H     H_    0.030881 0.285992 0.948387 0.163701
H10   H     H_    0.139483 0.346501 0.140516 0.194909
H11   H     H_    0.548518 0.718548 0.483895 0.201814
H12   H     H_    0.931273 0.765057 0.473696 0.210967
H13   H     H_    0.208517 0.608491 0.381125 0.359082
H14   H     H_    0.620154 0.987621 0.502058 0.335961
H15   H     H_    0.961000 0.588168 0.475939 0.371128
H16   H     H_    0.746157 0.619852 0.635735 0.294118
H17   H     H_    0.910066 0.920245 0.951293 0.145163
H18   H     H_    0.795106 0.842968 0.905475 0.157167
H19   H     H_    0.825501 0.921443 0.871194 0.198799
H20   H     H_    0.970086 0.734028 0.027126 0.331120
H21   H     H_    0.421136 0.686102 0.359199 0.338449
H22   H     H_    0.556024 0.086703 0.581922 0.149600
H23   H     H_    0.724895 0.553589 0.504856 0.190624
H24   H     H_    0.597009 0.156249 0.695995 0.139440
H25   H     H_    0.630696 0.077123 0.663052 0.208274
H26   H     H_    0.029536 0.143512 0.148645 0.358424
H27   H     H_    0.556650 0.348400 0.740387 0.159336
H28   H     H_    0.520419 0.322202 0.810575 0.154624
H29   H     H_    0.621312 0.418604 0.854554 0.239047
H30   H     H_    0.426667 0.392416 0.860161 0.377774
H31   H     H_    0.214043 0.271586 0.728614 0.381057
H32   H     H_    0.118371 0.015401 0.373301 0.286559
H33   H     H_    0.052128 0.008419 0.112064 0.147133
H34   H     H_    0.550445 0.198078 0.553025 0.150884
H35   H     H_    0.957184 0.916808 0.087644 0.182569
H36   H     H_    0.059625 0.956304 0.179016 0.185808
H37   H     H_    0.384877 0.596973 0.205375 0.334165
H38   H     H_    0.240038 0.260987 0.197937 0.208171
H39   H     H_    0.256323 0.187423 0.238157 0.065218
H40   H     H_    0.345818 0.289899 0.277475 0.178533
H41   H     H_    0.659139 0.594753 0.982231 0.353460
H42   H     H_    0.260684 0.811129 0.232685 0.095188
H43   H     H_    0.239950 0.707971 0.160027 0.209405
H44   H     H_    0.315687 0.754957 0.271689 0.194450
H45   H     H_    0.935586 0.807321 0.962447 0.152747
H46   H     H_    0.796345 0.646544 0.301965 0.177567
H47   H     H_    0.701373 0.640550 0.223597 0.164503
H48   H     H_    0.745013 0.708063 0.334035 0.197793
H49   H     H_    0.294616 0.393543 0.122377 0.346506
H50   H     H_    0.047484 0.598107 0.799433 0.169525
H51   H     H_    0.129987 0.564186 0.829132 0.094488
H52   H     H_    0.089797 0.596383 0.897495 0.169497
H53   H     H_    0.078896 0.516831 0.588692 0.192492
H54   H     H_    0.154504 0.552756 0.700435 0.159496
H55   H     H_    0.099790 0.612185 0.675064 0.195342
H56   H     H_    0.808837 0.340375 0.769163 0.175750
H57   H     H_    0.993816 0.251121 0.443292 0.143630
H58   H     H_    0.905755 0.219561 0.466612 0.129652
H59   H     H_    0.932723 0.140891 0.418764 0.200560
H60   H     H_    0.956812 0.002201 0.857664 0.338507
H61   H     H_    0.062795 0.330643 0.221896 0.186247
H62   H     H_    0.073131 0.432824 0.291885 0.177740
H63   H     H_    0.071462 0.351427 0.323851 0.170236
H64   H     H_    0.799032 0.505088 0.576840 0.138282
H65   H     H_    0.916079 0.575357 0.624999 0.179284
H66   H     H_    0.865480 0.457802 0.564286 0.241577
H67   H     H_    0.549415 0.332030 0.569958 0.176180
H68   H     H_    0.550999 0.916730 0.546271 0.323318
H69   H     H_    0.469472 0.400262 0.642832 0.179992
H70   H     H_    0.308544 0.823662 0.394138 0.185577
O1    O     O_R   0.592010 0.539900 0.448660 -0.645330
O2    O     O_R   0.948620 0.908400 0.356980 -0.532203
O3    O     O_R   0.960510 0.908410 0.552140 -0.625154
O4    O     O_R   0.591210 0.643320 0.551330 -0.576793
O5    O     O_R   0.856270 0.908390 0.447890 -0.603777
O6    O     O_R   0.051380 0.091620 0.643040 -0.614714
O7    O     O_R   0.947140 0.091600 0.538800 -0.607684
O8    O     O_R   0.143730 0.091640 0.552130 -0.625040
O9    O     O_R   0.039490 0.091610 0.447890 -0.583089
O10   O     O_R   0.408080 0.448290 0.356360 -0.583315
O11   O     O_R   0.407280 0.551710 0.459030 -0.612749
O12   O     O_R   0.054870 0.643310 0.094700 -0.589138
O13   O     O_R   0.408790 0.356680 0.448670 -0.631052
O14   O     O_R   0.407990 0.460100 0.551340 -0.621607
O15   O     O_R   0.592720 0.448290 0.540970 -0.651532
O16   O     O_R   0.591920 0.551710 0.643640 -0.572056
O17   O     O_R   0.951440 0.539900 0.094740 -0.634460
O18   O     O_3   0.177028 0.586504 0.318306 -0.726507
O19   O     O_3   0.680497 0.998518 0.533346 -0.741011
O20   O     O_3   0.960941 0.640658 0.472909 -0.757738
O21   O     O_3   0.748049 0.668005 0.679825 -0.698576
O22   O     O_3   0.849660 0.820177 0.825938 -0.535678
O23   O     O_R   0.044440 0.448270 0.096110 -0.648614
O24   O     O_3   0.933216 0.672109 0.980136 -0.785463
O25   O     O_3   0.375029 0.670592 0.374284 -0.699893
O26   O     O_3   0.685738 0.185490 0.652277 -0.576700
O27   O     O_3   0.091295 0.189264 0.190420 -0.773964
O28   O     O_3   0.511029 0.426681 0.796237 -0.592325
O29   O     O_3   0.365098 0.349962 0.814400 -0.778371
O30   O     O_3   0.197918 0.248079 0.667446 -0.738697
O31   O     O_3   0.071030 0.016626 0.330153 -0.724242
O32   O     O_3   0.997908 0.033090 0.189837 -0.571036
O33   O     O_3   0.322586 0.581643 0.177424 -0.744089
O34   O     O_R   0.147870 0.551680 0.096080 -0.581071
O35   O     O_3   0.261633 0.301961 0.322222 -0.563089
O36   O     O_3   0.710221 0.587841 0.984894 -0.749291
O37   O     O_3   0.184384 0.700276 0.236147 -0.587864
O38   O     O_3   0.821082 0.757818 0.287895 -0.596347
O39   O     O_3   0.327500 0.416624 0.185328 -0.740913
O40   O     O_3   0.998977 0.473573 0.787529 -0.596801
O41   O     O_3   0.020114 0.495118 0.659814 -0.618368
O42   O     O_3   0.024991 0.229447 0.548106 -0.569437
O43   O     O_3   0.948562 0.998261 0.801962 -0.729938
O44   O     O_3   0.185974 0.421349 0.331060 -0.568704
O45   O     O_R   0.952810 0.356650 0.912880 -0.643277
O46   O     O_3   0.842060 0.516784 0.490963 -0.627904
O47   O     O_3   0.533479 0.854748 0.510688 -0.748467
O48   O     O_R   0.056240 0.460060 0.912840 -0.603657
O49   O     O_R   0.859800 0.448280 0.911500 -0.655515
O50   O     O_R   0.963240 0.551690 0.911470 -0.576974
O51   O     O_R   0.052860 0.908430 0.461230 -0.658222
Zn1   Zn    Zn3+2 0.500540 0.430950 0.431450 0.958537
Zn2   Zn    Zn3+2 0.499460 0.569050 0.568550 1.045049
Zn3   Zn    Zn3+2 0.934770 0.430930 0.003810 0.966391
Zn4   Zn    Zn3+2 0.072900 0.569020 0.003770 0.962538
Zn5   Zn    Zn3+2 0.069600 0.000030 0.569620 1.002932
Zn6   Zn    Zn3+2 0.930400 0.000000 0.430410 1.033070

loop_
_geom_bond_atom_site_label_1
_geom_bond_atom_site_label_2
_ccdc_geom_bond_type
C95   H22   S    
C8    C9    A    
C66   C68   A    
C32   H67   S    
C1    O4    A    
C75   H5    S    
C4    O44   S    
C73   C74   A    
C83   C87   A    
O17   Zn3   S    
C9    C14   A    
C26   C55   S    
O11   Zn2   S    
C51   C67   S    
C73   H4    S    
C51   O34   A    
C77   O41   S    
H32   O31   S    
C47   C49   A    
C74   O36   S    
C45   C46   A    
C3    O42   S    
O4    Zn2   S    
C1    O1    A    
H30   O29   S    
C29   C30   A    
C14   H23   S    
C36   O30   S    
C48   C59   A    
C58   O9    A    
O50   Zn4   S    
C28   C29   A    
H15   O20   S    
C81   H1    S    
C8    C11   A    
C19   O14   A    
O5    Zn6   S    
C57   O6    A    
C78   C80   A    
O15   Zn1   S    
C43   C79   S    
C4    H63   S    
C102  H55   S    
C26   O44   S    
C34   C35   A    
C41   C42   A    
C5    H66   S    
C69   C71   A    
H16   O21   S    
C16   O21   S    
H37   O33   S    
C81   C92   A    
C94   H18   S    
C72   O38   S    
C49   O35   S    
O9    Zn6   S    
C16   C17   A    
O13   Zn1   S    
C31   O16   A    
C23   C24   A    
C4    H62   S    
C13   C14   A    
C13   O46   S    
C63   H3    S    
C9    C10   A    
C79   C91   S    
O23   Zn3   S    
C77   C78   A    
O45   Zn3   S    
C89   O43   S    
C88   H8    S    
C76   O40   S    
C25   C32   A    
C46   O32   S    
C99   H43   S    
C38   C40   A    
C21   C22   A    
C98   H40   S    
C3    H57   S    
H13   O18   S    
C47   O27   S    
C17   O22   S    
C42   C44   A    
C76   C83   A    
C97   H35   S    
C70   O19   S    
C23   C53   S    
C5    O46   S    
C62   H2    S    
C56   O5    A    
C101  O40   S    
C12   O20   S    
C52   O48   A    
C40   C58   S    
C74   C75   A    
C37   C91   S    
C56   O3    A    
C27   C31   S    
C55   O18   S    
C99   H42   S    
C29   O26   S    
C79   O33   S    
C24   C25   A    
C91   O39   S    
C18   H45   S    
H20   O24   S    
C57   O7    A    
O51   Zn5   S    
C68   C69   A    
C15   C26   S    
C6    C8    A    
C42   C49   A    
C4    H61   S    
C100  H48   S    
C53   O50   A    
C85   C86   A    
H60   O43   S    
O8    Zn5   S    
O3    Zn5   S    
O48   Zn4   S    
C98   H38   S    
C60   C61   A    
C35   C36   A    
C64   C66   A    
C37   C43   S    
C50   C71   S    
C80   O42   S    
C62   C63   A    
C86   C93   A    
C95   H25   S    
C94   H17   S    
C102  O41   S    
H41   O36   S    
C101  H51   S    
C68   C72   A    
C15   C67   S    
C20   C21   A    
C28   H56   S    
C17   C18   A    
C7    C37   S    
C57   C84   S    
C67   C79   S    
C43   O25   S    
C61   H70   S    
C33   C39   A    
C5    H64   S    
C84   C85   A    
C2    C92   A    
C99   O37   S    
H49   O39   S    
C93   H9    S    
C96   H29   S    
C43   C55   S    
C40   C41   A    
H14   O19   S    
C60   C65   A    
O16   Zn2   S    
C82   C84   A    
C22   C27   A    
C21   C23   A    
C98   H39   S    
C3    H58   S    
C98   O35   S    
C50   O17   A    
O7    Zn6   S    
C97   H33   S    
C97   O32   S    
C31   O15   A    
C2    C10   A    
C102  H54   S    
C97   H36   S    
C19   C44   S    
C86   C87   A    
C90   C93   A    
C96   H28   S    
H68   O47   S    
C60   O37   S    
C85   C88   A    
H31   O30   S    
C96   O28   S    
C46   C47   A    
C16   C22   A    
C7    O10   A    
C94   O22   S    
O6    Zn5   S    
C15   H10   S    
H21   O25   S    
C52   C87   S    
C50   O12   A    
C1    C10   S    
C24   C28   A    
C6    C56   S    
C72   C73   A    
C55   C67   S    
C11   C12   A    
C26   C37   S    
C39   C44   A    
C54   C66   S    
C35   O29   S    
C100  H47   S    
C25   C27   A    
C101  H50   S    
C30   H34   S    
C12   C13   A    
C7    O11   A    
C2    C48   A    
C64   C65   A    
C54   O2    A    
C36   C38   A    
H26   O27   S    
C90   H6    S    
C65   C71   A    
C19   O13   A    
C30   C32   A    
C76   C77   A    
C95   H24   S    
C54   O51   A    
C38   C39   A    
O14   Zn2   S    
C101  H52   S    
C100  H46   S    
C95   O26   S    
C6    C92   A    
O49   Zn3   S    
C100  O38   S    
C45   O31   S    
C80   C82   A    
C33   C34   A    
C69   C75   A    
C78   H7    S    
C18   C20   A    
C5    H65   S    
C61   C62   A    
O2    Zn6   S    
C3    H59   S    
C59   C70   A    
C15   C91   S    
C63   C64   A    
C94   H19   S    
C34   O28   S    
C88   C89   A    
C58   O8    A    
C82   C83   A    
C11   H12   S    
O34   Zn4   S    
C41   C45   A    
C48   H11   S    
C59   O47   S    
C70   C81   A    
O12   Zn4   S    
C99   H44   S    
C89   C90   A    
O10   Zn1   S    
O1    Zn1   S    
C53   O49   A    
C102  H53   S    
C20   O24   S    
C51   O23   A    
C52   O45   A    
C96   H27   S    
C33   H69   S    
