data_mof_unit_64101.cif
_audit_creation_date              2013-03-05T16:01:32-0500
_audit_creation_method            fapswitch 2.2
_symmetry_space_group_name_H-M    P1
_symmetry_Int_Tables_number       1
_space_group_crystal_system       triclinic
_cell_length_a                    21.41794
_cell_length_b                    29.185508
_cell_length_c                    29.172094
_cell_angle_alpha                 90.045401
_cell_angle_beta                  90.046915
_cell_angle_gamma                 90.449726
_cell_volume                      18234.7114853

loop_
_atom_site_label
_atom_site_type_symbol
_atom_site_description
_atom_site_fract_x
_atom_site_fract_y
_atom_site_fract_z
_atom_type_partial_charge
O1    O     O_R   1.000000 0.964340 0.063140 -0.595362
O2    O     O_R   1.000000 0.964340 0.936860 -0.600005
O3    O     O_R   0.500000 0.464340 0.563140 -0.595329
O4    O     O_R   0.500000 0.464340 0.436860 -0.600063
O5    O     O_R   1.000000 0.035640 0.063120 -0.604057
O6    O     O_R   0.000000 0.035640 0.936880 -0.601572
O7    O     O_R   0.500000 0.535640 0.563120 -0.604086
O8    O     O_R   0.500000 0.535640 0.436880 -0.601513
C1    C     C_R   0.999998 0.000012 0.086738 0.911969
C2    C     C_R   0.999585 0.999982 0.913265 0.901288
C3    C     C_R   0.499997 0.500012 0.586738 0.911972
C4    C     C_R   0.499611 0.499981 0.413265 0.901493
O9    O     O_R   0.093030 0.964340 0.000000 -0.618710
O10   O     O_R   0.906970 0.964340 0.000000 -0.630416
O11   O     O_R   0.593030 0.464340 0.500000 -0.618793
O12   O     O_R   0.406970 0.464340 0.500000 -0.630403
O13   O     O_R   0.093040 0.035640 0.000000 -0.624034
O14   O     O_R   0.906960 0.035640 0.000000 -0.624445
O15   O     O_R   0.593040 0.535640 0.500000 -0.624019
O16   O     O_R   0.406960 0.535640 0.500000 -0.624440
C5    C     C_R   0.122624 0.000159 0.999487 0.922809
C6    C     C_R   0.877213 0.999619 0.000008 0.934906
C7    C     C_R   0.622622 0.500159 0.499515 0.922800
C8    C     C_R   0.377213 0.499619 0.500008 0.934964
Zn1   Zn    Zn3+2 0.000000 0.952380 0.000000 0.965812
Zn2   Zn    Zn3+2 0.500000 0.452380 0.500000 0.965544
Zn3   Zn    Zn3+2 1.000000 0.047600 0.000000 0.960669
Zn4   Zn    Zn3+2 0.500000 0.547600 0.500000 0.960601
C9    C     C_3   0.228553 0.985959 0.040183 -0.217792
C10   C     C_3   0.769554 0.018454 0.962005 -0.229510
C11   C     C_3   0.769654 0.018577 0.038022 -0.230195
C12   C     C_3   0.228579 0.044334 0.991682 -0.250602
C13   C     C_3   0.728545 0.486428 0.540364 -0.217802
C14   C     C_3   0.269554 0.518455 0.462005 -0.229510
C15   C     C_3   0.269654 0.518575 0.538023 -0.230194
C16   C     C_3   0.728607 0.544211 0.491154 -0.250696
C17   C     C_3   0.269168 0.029295 0.032656 0.108731
C18   C     C_3   0.727581 0.038390 0.000000 0.125871
C19   C     C_3   0.769201 0.529647 0.532302 0.109006
C20   C     C_3   0.227581 0.538390 0.500002 0.125867
H1    H     H_    0.209375 0.973083 0.073133 0.156210
H2    H     H_    0.787169 0.036929 0.931314 0.151938
H3    H     H_    0.787349 0.037153 0.068679 0.151223
H4    H     H_    0.209747 0.079166 0.985693 0.179610
H5    H     H_    0.709366 0.473970 0.573473 0.156041
H6    H     H_    0.287168 0.536932 0.431315 0.151937
H7    H     H_    0.287349 0.537150 0.568680 0.151224
H8    H     H_    0.709799 0.578974 0.484743 0.179513
C21   C     C_3   0.310718 0.002336 0.999655 -0.174921
C22   C     C_3   0.688675 0.994053 0.000042 -0.182679
C23   C     C_3   0.810706 0.502262 0.499628 -0.174994
C24   C     C_3   0.188675 0.494053 0.500042 -0.182675
C25   C     C_3   0.270592 0.959252 0.006600 -0.024727
C26   C     C_3   0.730352 0.973780 0.962441 -0.034610
C27   C     C_3   0.730446 0.973902 0.037669 -0.034121
C28   C     C_3   0.270457 0.016745 0.958721 -0.020529
C29   C     C_3   0.770536 0.459288 0.507101 -0.025126
C30   C     C_3   0.230353 0.473781 0.462440 -0.034604
C31   C     C_3   0.230447 0.473900 0.537668 -0.034129
C32   C     C_3   0.770441 0.516197 0.458525 -0.020431
C33   C     C_3   0.230061 0.973497 0.965457 0.023237
C34   C     C_3   0.771962 0.953216 0.000068 0.015172
C35   C     C_3   0.730006 0.473060 0.465793 0.023150
C36   C     C_3   0.271962 0.453216 0.500066 0.015174
C37   C     C_3   0.189186 0.000574 0.998782 -0.079124
C38   C     C_3   0.810368 0.997943 0.000026 -0.069851
C39   C     C_3   0.689177 0.500564 0.498795 -0.079140
C40   C     C_3   0.310368 0.497943 0.500026 -0.069866
C41   C     C_1   0.999983 0.000048 0.137405 -0.212046
C42   C     C_1   0.999603 0.999984 0.862605 -0.205557
C43   C     C_1   0.499982 0.500048 0.637405 -0.211986
C44   C     C_1   0.499656 0.499979 0.362605 -0.205867
C45   C     C_1   0.999969 0.000055 0.179609 0.012787
C46   C     C_1   0.999667 0.999990 0.820404 0.006055
C47   C     C_1   0.499968 0.500055 0.679609 0.012843
C48   C     C_1   0.499734 0.499979 0.320404 0.006199
C49   C     C_1   0.999952 0.000048 0.229431 0.014918
C50   C     C_1   0.999827 0.999967 0.770586 0.011754
C51   C     C_1   0.499952 0.500048 0.729431 0.014970
C52   C     C_1   0.499885 0.499954 0.270585 0.012026
C53   C     C_1   0.999940 0.000036 0.271636 0.012305
C54   C     C_1   0.999939 0.999957 0.728380 0.014188
C55   C     C_1   0.499939 0.500036 0.771636 0.012349
C56   C     C_1   0.499982 0.499946 0.228380 0.014164
C57   C     C_1   0.999932 0.000019 0.321460 0.008621
C58   C     C_1   0.000024 0.999962 0.678552 0.009206
C59   C     C_1   0.499931 0.500019 0.821460 0.008658
C60   C     C_1   0.500045 0.499954 0.178552 0.009223
C61   C     C_1   0.999938 0.000005 0.363667 -0.196166
C62   C     C_1   0.000051 0.999973 0.636342 -0.195850
C63   C     C_1   0.499938 0.500005 0.863667 -0.196130
C64   C     C_1   0.500059 0.499969 0.136342 -0.195820
O17   O     O_R   0.500000 0.063090 0.964350 -0.601213
O18   O     O_R   0.500000 0.063090 0.035650 -0.612236
O19   O     O_R   1.000000 0.563090 0.464350 -0.601205
O20   O     O_R   1.000000 0.563090 0.535650 -0.612124
C65   C     C_R   0.500180 0.086708 0.000020 0.880594
C66   C     C_R   0.000177 0.586708 0.500020 0.880733
O21   O     O_R   0.406990 0.999940 0.964350 -0.571422
O22   O     O_R   0.593010 0.999940 0.035650 -0.590355
O23   O     O_R   0.593010 0.999940 0.964350 -0.592166
O24   O     O_R   0.406990 0.999940 0.035650 -0.637230
O25   O     O_R   0.906990 0.499940 0.464350 -0.572230
O26   O     O_R   0.093010 0.499940 0.535650 -0.590362
O27   O     O_R   0.093010 0.499940 0.464350 -0.592152
O28   O     O_R   0.906990 0.499940 0.535650 -0.637133
C67   C     C_R   0.377493 0.002487 0.999957 0.929773
C68   C     C_R   0.621867 0.993837 0.000012 0.968007
C69   C     C_R   0.877481 0.502372 0.499952 0.930358
C70   C     C_R   0.121867 0.493837 0.500012 0.967992
Zn5   Zn    Zn3+2 0.500000 0.999950 0.952390 1.048579
Zn6   Zn    Zn3+2 0.500000 0.999950 0.047610 0.995468
Zn7   Zn    Zn3+2 0.000000 0.499950 0.452390 1.048253
Zn8   Zn    Zn3+2 0.000000 0.499950 0.547610 0.995723
O29   O     O_R   0.500000 0.936790 0.964340 -0.574767
O30   O     O_R   0.500000 0.936790 0.035660 -0.592663
O31   O     O_R   1.000000 0.436790 0.464340 -0.574932
O32   O     O_R   1.000000 0.436790 0.535660 -0.592639
C71   C     C_R   0.499979 0.913181 0.999984 0.952665
C72   C     C_R   0.999980 0.413181 0.499984 0.952802
O33   O     O_R   0.052540 0.063140 0.500000 -0.592029
O34   O     O_R   0.947460 0.063140 0.500000 -0.590069
O35   O     O_R   0.552540 0.563140 0.000000 -0.592025
O36   O     O_R   0.447460 0.563140 0.000000 -0.590058
C73   C     C_R   0.000217 0.085641 0.500000 0.876993
C74   C     C_R   0.500217 0.585641 1.000000 0.876981
O37   O     O_R   0.052540 0.999990 0.436840 -0.592156
O38   O     O_R   0.947460 0.999990 0.563160 -0.590253
O39   O     O_R   0.947460 0.999990 0.436840 -0.590152
O40   O     O_R   0.052540 0.999990 0.563160 -0.591610
O41   O     O_R   0.552540 0.499990 0.936840 -0.592144
O42   O     O_R   0.447460 0.499990 0.063160 -0.590252
O43   O     O_R   0.447460 0.499990 0.936840 -0.590145
O44   O     O_R   0.552540 0.499990 0.063160 -0.591599
C75   C     C_R   0.999978 0.999990 0.414340 0.877246
C76   C     C_R   0.000021 0.999988 0.585663 0.877166
C77   C     C_R   0.499978 0.499990 0.914340 0.877239
C78   C     C_R   0.500022 0.499987 0.085663 0.877153
Zn9   Zn    Zn3+2 0.070140 0.999990 0.500000 0.975648
Zn10  Zn    Zn3+2 0.929860 0.999990 0.500000 0.981243
Zn11  Zn    Zn3+2 0.570140 0.499990 0.000000 0.975711
Zn12  Zn    Zn3+2 0.429860 0.499990 0.000000 0.981310
O45   O     O_R   0.052520 0.936840 0.500000 -0.591947
O46   O     O_R   0.947480 0.936840 0.500000 -0.590527
O47   O     O_R   0.552520 0.436840 0.000000 -0.591945
O48   O     O_R   0.447480 0.436840 0.000000 -0.590509
C79   C     C_R   0.999793 0.914327 0.500002 0.876990
C80   C     C_R   0.499793 0.414327 0.000002 0.876982
C81   C     C_1   0.500158 0.137374 0.000059 -0.214062
C82   C     C_1   0.000155 0.637374 0.500059 -0.214370
C83   C     C_1   0.500083 0.179574 0.000073 0.004985
C84   C     C_1   0.000079 0.679574 0.500074 0.004854
C85   C     C_1   0.499897 0.229400 0.000071 0.009407
C86   C     C_1   0.999893 0.729400 0.500072 0.009324
C87   C     C_1   0.999692 0.771603 0.500060 0.009804
C88   C     C_1   0.499695 0.271603 0.000059 0.009871
C89   C     C_1   0.999485 0.821434 0.500039 0.007380
C90   C     C_1   0.499487 0.321434 0.000038 0.007424
C91   C     C_1   0.999456 0.863641 0.500021 -0.196979
C92   C     C_1   0.499457 0.363641 0.000020 -0.196939
C93   C     C_1   0.500240 0.862532 0.999956 -0.184838
C94   C     C_1   0.000241 0.362532 0.499956 -0.184418
C95   C     C_1   0.500428 0.820343 0.999949 0.006796
C96   C     C_1   0.000429 0.320343 0.499949 0.006749
C97   C     C_1   0.500609 0.770530 0.999953 0.015614
C98   C     C_1   0.000610 0.270530 0.499953 0.015538
C99   C     C_1   0.000711 0.228334 0.499962 0.013097
C100  C     C_1   0.500710 0.728334 0.999962 0.013114
C101  C     C_1   0.000736 0.178514 0.499976 0.008596
C102  C     C_1   0.500736 0.678514 0.999976 0.008619
C103  C     C_1   0.000623 0.136314 0.499988 -0.195995
C104  C     C_1   0.500623 0.636314 0.999988 -0.195970
C105  C     C_3   0.291380 0.062800 0.069731 -0.399179
C106  C     C_3   0.308751 0.038181 0.114316 -0.321709
C107  C     C_3   0.338109 0.071366 0.148690 -0.860752
H9    H     H_    0.381924 0.086256 0.134541 0.263963
H10   H     H_    0.305158 0.099421 0.156839 0.262701
H11   H     H_    0.349369 0.052813 0.180830 0.251800
H12   H     H_    0.266089 0.022837 0.129843 0.217319
H13   H     H_    0.342158 0.010157 0.107378 0.250350
H14   H     H_    0.332091 0.082466 0.056336 0.201027
H15   H     H_    0.253223 0.087351 0.076964 0.200872
C108  C     C_3   0.699434 0.086332 0.999967 -0.409256
C109  C     C_3   0.750359 0.123434 0.999942 -0.333985
C110  C     C_3   0.721868 0.171186 0.999910 -0.857208
H16   H     H_    0.692603 0.176041 0.968856 0.264846
H17   H     H_    0.692672 0.176132 0.030956 0.263443
H18   H     H_    0.759698 0.197417 0.999892 0.252566
H19   H     H_    0.780263 0.119751 0.030863 0.226705
H20   H     H_    0.780193 0.119659 0.969025 0.227491
H21   H     H_    0.669554 0.089996 0.969038 0.203851
H22   H     H_    0.669623 0.090088 0.030890 0.203077
C111  C     C_3   0.791486 0.563593 0.568950 -0.399413
C112  C     C_3   0.808876 0.539519 0.613828 -0.321913
C113  C     C_3   0.838310 0.573111 0.647770 -0.860591
H23   H     H_    0.882130 0.587791 0.633416 0.264060
H24   H     H_    0.805403 0.601290 0.655582 0.262699
H25   H     H_    0.849578 0.554954 0.680136 0.251791
H26   H     H_    0.766213 0.524396 0.629565 0.217390
H27   H     H_    0.842244 0.511392 0.607222 0.250345
H28   H     H_    0.832207 0.583065 0.555292 0.200812
H29   H     H_    0.753365 0.588256 0.575895 0.201011
C114  C     C_3   0.199434 0.586332 0.499970 -0.409237
C115  C     C_3   0.250358 0.623434 0.499946 -0.333999
C116  C     C_3   0.221868 0.671186 0.499916 -0.857224
H30   H     H_    0.192602 0.676042 0.468863 0.264847
H31   H     H_    0.192672 0.676131 0.530963 0.263454
H32   H     H_    0.259698 0.697417 0.499900 0.252551
H33   H     H_    0.280263 0.619750 0.530868 0.226704
H34   H     H_    0.280193 0.619661 0.469029 0.227483
H35   H     H_    0.169554 0.589997 0.469042 0.203854
H36   H     H_    0.169623 0.590087 0.530894 0.203083
C117  C     C_2   0.296240 0.912320 0.014671 0.890397
O49   O     O_2   0.282750 0.891501 0.049657 -0.622557
O50   O     O_R   0.335703 0.892773 0.982093 -0.810710
H37   H     H_    0.350300 0.861139 0.991342 0.342797
C118  C     C_2   0.711884 0.948902 0.919371 0.891339
O51   O     O_2   0.751847 0.939772 0.890991 -0.625934
O52   O     O_R   0.649990 0.935292 0.912231 -0.803364
H38   H     H_    0.643950 0.918434 0.882138 0.344026
C119  C     C_2   0.712086 0.949170 0.080785 0.891372
O53   O     O_2   0.752125 0.940119 0.109167 -0.625130
O54   O     O_R   0.650204 0.935609 0.087971 -0.802828
H39   H     H_    0.644239 0.918852 0.118094 0.343770
C120  C     C_2   0.294378 0.034401 0.913719 0.901691
O55   O     O_2   0.283166 0.073675 0.901997 -0.635006
O56   O     O_R   0.328771 0.005588 0.885200 -0.780957
H40   H     H_    0.342111 0.021224 0.855737 0.341011
C121  C     C_2   0.796128 0.412440 0.515729 0.890738
O57   O     O_2   0.782642 0.392056 0.550970 -0.622468
O58   O     O_R   0.835539 0.392473 0.483374 -0.811142
H41   H     H_    0.850105 0.360945 0.493002 0.342861
C122  C     C_2   0.211884 0.448905 0.419369 0.891338
O59   O     O_2   0.251847 0.439776 0.390988 -0.625943
O60   O     O_R   0.149990 0.435295 0.412228 -0.803365
H42   H     H_    0.143950 0.418438 0.382135 0.344025
C123  C     C_2   0.212086 0.449167 0.580783 0.891378
O61   O     O_2   0.252125 0.440114 0.609165 -0.625111
O62   O     O_R   0.150203 0.435606 0.587968 -0.802835
H43   H     H_    0.144239 0.418848 0.618091 0.343788
C124  C     C_2   0.794332 0.533273 0.413292 0.902384
O63   O     O_2   0.783127 0.572395 0.401073 -0.635063
O64   O     O_R   0.828688 0.504088 0.385130 -0.781090
H44   H     H_    0.842006 0.519340 0.355463 0.340967
C125  C     C_3   0.207333 0.939829 0.928595 -0.384678
C126  C     C_3   0.169697 0.963490 0.890800 -0.340951
C127  C     C_3   0.142286 0.928496 0.857370 -0.836130
H45   H     H_    0.180010 0.907621 0.841958 0.266747
H46   H     H_    0.108653 0.905570 0.875310 0.263513
H47   H     H_    0.117339 0.946530 0.829418 0.253410
H48   H     H_    0.131076 0.983484 0.906000 0.212009
H49   H     H_    0.200213 0.987444 0.871389 0.241398
H50   H     H_    0.248582 0.922947 0.913112 0.247936
H51   H     H_    0.178137 0.913067 0.945403 0.212957
C128  C     C_3   0.798331 0.904400 0.000103 -0.379436
C129  C     C_3   0.746856 0.867512 0.000148 -0.359654
C130  C     C_3   0.774792 0.819595 0.000165 -0.836852
H52   H     H_    0.803870 0.814468 0.969092 0.264192
H53   H     H_    0.803993 0.814557 0.031217 0.265543
H54   H     H_    0.736659 0.793595 0.000199 0.255163
H55   H     H_    0.716970 0.871112 0.030954 0.240356
H56   H     H_    0.716850 0.871024 0.969364 0.239893
H57   H     H_    0.827938 0.900081 0.969159 0.229991
H58   H     H_    0.828038 0.900183 0.031038 0.230677
C131  C     C_3   0.707167 0.438997 0.429327 -0.384310
C132  C     C_3   0.669517 0.462274 0.391292 -0.340725
C133  C     C_3   0.641606 0.426927 0.358459 -0.836022
H59   H     H_    0.679061 0.405688 0.343197 0.266604
H60   H     H_    0.607941 0.404388 0.376848 0.263571
H61   H     H_    0.616569 0.444672 0.330361 0.253305
H62   H     H_    0.631152 0.482676 0.406291 0.212216
H63   H     H_    0.700135 0.485797 0.371445 0.241194
H64   H     H_    0.748354 0.421893 0.414004 0.247612
H65   H     H_    0.677953 0.412458 0.446465 0.213192
C134  C     C_3   0.298332 0.404400 0.500099 -0.379441
C135  C     C_3   0.246857 0.367512 0.500143 -0.359641
C136  C     C_3   0.274792 0.319595 0.500158 -0.836901
H66   H     H_    0.303871 0.314469 0.469085 0.264181
H67   H     H_    0.303994 0.314556 0.531210 0.265541
H68   H     H_    0.236660 0.293594 0.500191 0.255164
H69   H     H_    0.216970 0.371110 0.530949 0.240351
H70   H     H_    0.216850 0.371025 0.469359 0.239890
H71   H     H_    0.327938 0.400083 0.469155 0.229983
H72   H     H_    0.328039 0.400182 0.531034 0.230679

loop_
_geom_bond_atom_site_label_1
_geom_bond_atom_site_label_2
_geom_bond_distance
_ccdc_geom_bond_type
C11   C38   1.536380 S    
C19   C23   1.532620 S    
O27   C70   1.223502 A    
C21   C25   1.531181 S    
O43   C77   1.302785 A    
O33   Zn9   1.884118 S    
C61   C75   1.478255 S    
C129  H56   1.109163 S    
C87   C89   1.454385 S    
C13   H5    1.110252 S    
C129  H55   1.109162 S    
Zn12  O48   1.884204 S    
O24   Zn6   2.022121 S    
C134  C135  1.534911 S    
C35   C131  1.532674 S    
O3    C3    1.247654 A    
C123  O62   1.396282 S    
C52   C56   1.231241 T    
C30   C122  1.501831 S    
C64   C78   1.478418 S    
C108  H22   1.111466 S    
C71   C93   1.478274 S    
O32   C72   1.247705 A    
O19   C66   1.247693 A    
C54   C58   1.453584 S    
C96   C98   1.453833 S    
C107  H10   1.110903 S    
C43   C47   1.231191 T    
C126  H49   1.109359 S    
C116  H30   1.110974 S    
O7    C3    1.247833 A    
C19   C111  1.530497 S    
C32   C124  1.499832 S    
C13   C39   1.535021 S    
O43   Zn12  1.880976 S    
C22   C26   1.535905 S    
C47   C51   1.453413 S    
C11   H3    1.110318 S    
C28   C120  1.499847 S    
O28   Zn8   2.022121 S    
C32   C35   1.537400 S    
C14   C20   1.544076 S    
C36   C40   1.537452 S    
O27   Zn7   2.022124 S    
C128  H58   1.111230 S    
O25   Zn7   2.022684 S    
O37   C75   1.302678 A    
C130  H52   1.110895 S    
C59   C63   1.231261 T    
C132  H62   1.108634 S    
C81   C83   1.231633 T    
C66   C82   1.478728 S    
C133  H61   1.109928 S    
C3    C43   1.478051 S    
C72   C94   1.478271 S    
C110  H17   1.110975 S    
C135  H69   1.109161 S    
C33   C125  1.532588 S    
O64   H44   1.013691 S    
C27   C34   1.538593 S    
C111  H28   1.111529 S    
C109  C110  1.525764 S    
C10   C18   1.544073 S    
C130  H53   1.110895 S    
C15   C31   1.545349 S    
C124  O63   1.221968 D    
C80   C92   1.479246 S    
C7    C39   1.425612 S    
O3    Zn2   1.874438 S    
O56   H40   1.013697 S    
O16   C8    1.224990 A    
C106  C107  1.525379 S    
C6    C38   1.432143 S    
C31   C123  1.501817 S    
O33   C73   1.303337 A    
O39   C75   1.302787 A    
C25   C33   1.540044 S    
C112  H27   1.109488 S    
O62   H43   1.013707 S    
C116  H32   1.110330 S    
O20   C66   1.247641 A    
C115  H33   1.111652 S    
C42   C46   1.231085 T    
C13   C29   1.545702 S    
O60   H42   1.013704 S    
C41   C45   1.231191 T    
C23   C29   1.531199 S    
C49   C53   1.231215 T    
O4    C4    1.247842 A    
C134  H71   1.111233 S    
C131  C132  1.533385 S    
O48   C80   1.303332 A    
O41   Zn11  1.880372 S    
C44   C48   1.231085 T    
C27   C119  1.501816 S    
C113  H25   1.110385 S    
C9    H1    1.110254 S    
C10   C26   1.545303 S    
O23   C68   1.223505 A    
C100  C102  1.454018 S    
C112  C113  1.525380 S    
C4    C44   1.477868 S    
C15   H7    1.110318 S    
O12   C8    1.215175 A    
C119  O54   1.396285 S    
O5    Zn3   1.874405 S    
C136  H66   1.110894 S    
O36   Zn12  1.878320 S    
C83   C85   1.454222 S    
C90   C92   1.231847 T    
C101  C103  1.231618 T    
C114  H35   1.111459 S    
Zn9   O45   1.878400 S    
O46   C79   1.303331 A    
O40   Zn9   1.880974 S    
C93   C95   1.231369 T    
C29   C35   1.540051 S    
C107  H11   1.110389 S    
C94   C96   1.231372 T    
C126  H48   1.108641 S    
C127  H46   1.110923 S    
C36   C134  1.536705 S    
O42   Zn12  1.880369 S    
C34   C128  1.536704 S    
C35   C39   1.532023 S    
O22   C68   1.223545 A    
C34   C38   1.537456 S    
C12   C37   1.539378 S    
C82   C84   1.231636 T    
O13   Zn3   2.025761 S    
C117  O49   1.221883 D    
C60   C64   1.231352 T    
O1    C1    1.247654 A    
O54   H39   1.013707 S    
C99   C101  1.454021 S    
C58   C62   1.231352 T    
O31   C72   1.247831 A    
C14   C40   1.536348 S    
O52   H38   1.013704 S    
C57   C61   1.231261 T    
C110  H18   1.110332 S    
O16   Zn4   2.020366 S    
C30   C36   1.538546 S    
C16   C32   1.545631 S    
C118  O51   1.222064 D    
C20   C24   1.533584 S    
C8    C40   1.432143 S    
C125  H50   1.111032 S    
O13   C5    1.218332 A    
O7    Zn4   1.874405 S    
O35   C74   1.303340 A    
C9    C25   1.545729 S    
C56   C60   1.453583 S    
C14   H6    1.110317 S    
O15   C7    1.218300 A    
O50   H37   1.013751 S    
C108  C109  1.530897 S    
O5    C1    1.247833 A    
C121  O57   1.221882 D    
C134  H72   1.111230 S    
C24   C31   1.535868 S    
C119  O53   1.222062 D    
C17   C21   1.532661 S    
C50   C54   1.231239 T    
O6    Zn3   1.873864 S    
Zn8   O32   1.875762 S    
C20   C114  1.527885 S    
C24   C70   1.430852 S    
O8    C4    1.247587 A    
O21   Zn5   2.022684 S    
C129  C130  1.525412 S    
O35   Zn11  1.884118 S    
C23   C69   1.430180 S    
C120  O55   1.221970 D    
C31   C36   1.538592 S    
O9    C5    1.218388 A    
O24   C67   1.220082 A    
C13   C19   1.545376 S    
C12   C17   1.543462 S    
C135  C136  1.525412 S    
C85   C88   1.231761 T    
O15   Zn4   2.025761 S    
C122  O60   1.396292 S    
C86   C87   1.231761 T    
C29   C121  1.498459 S    
C10   C38   1.536345 S    
C24   C30   1.535904 S    
C16   C39   1.539299 S    
O17   Zn5   1.875240 S    
Zn7   O31   1.876305 S    
C2    C42   1.477873 S    
Zn5   O29   1.876305 S    
C131  H64   1.111021 S    
O38   C76   1.302708 A    
C84   C86   1.454219 S    
C105  H15   1.111340 S    
O22   Zn6   2.022686 S    
C97   C100  1.231534 T    
O29   C71   1.247827 A    
C136  H67   1.110897 S    
C98   C99   1.231534 T    
O8    Zn4   1.873864 S    
C9    C37   1.535039 S    
C114  H36   1.111463 S    
C48   C52   1.453322 S    
C21   C67   1.430182 S    
C109  H19   1.111652 S    
C9    C17   1.545351 S    
C128  C129  1.534910 S    
O2    C2    1.247865 A    
O17   C65   1.247692 A    
O45   C79   1.302075 A    
Zn6   O30   1.875762 S    
O47   C80   1.302073 A    
O21   C67   1.218735 A    
O26   C70   1.223547 A    
C26   C118  1.501831 S    
O36   C74   1.302459 A    
C79   C91   1.479249 S    
C122  O59   1.222065 D    
C127  H47   1.109868 S    
C126  C127  1.525418 S    
C25   C117  1.498488 S    
C5    C37   1.425730 S    
O14   C6    1.224990 A    
C22   C68   1.430849 S    
C16   C19   1.543494 S    
O40   C76   1.302845 A    
O14   Zn3   2.020366 S    
Zn10  O46   1.884204 S    
C128  H57   1.111234 S    
O9    Zn1   2.020155 S    
O12   Zn2   2.025554 S    
C108  H21   1.111459 S    
C55   C59   1.453462 S    
O6    C2    1.247564 A    
O4    Zn2   1.874984 S    
C133  H59   1.110852 S    
O1    Zn1   1.874438 S    
C11   C18   1.544096 S    
C18   C22   1.533582 S    
Zn11  O47   1.878400 S    
O44   C78   1.302829 A    
O23   Zn5   2.022124 S    
C21   C28   1.533338 S    
C26   C34   1.538546 S    
C125  H51   1.111278 S    
C106  H13   1.109501 S    
C116  H31   1.110973 S    
C22   C27   1.535869 S    
O18   C65   1.247645 A    
O30   C71   1.247706 A    
O25   C69   1.218516 A    
C130  H54   1.110467 S    
C11   C27   1.545350 S    
C1    C41   1.478051 S    
O34   C73   1.302459 A    
C88   C90   1.454382 S    
C15   C20   1.544096 S    
O38   Zn10  1.880369 S    
C117  O50   1.396811 S    
O34   Zn10  1.878320 S    
C121  O58   1.396806 S    
C107  H9    1.111019 S    
C132  H63   1.109381 S    
O44   Zn11  1.880974 S    
C51   C55   1.231215 T    
C133  H60   1.110920 S    
O10   C6    1.215175 A    
C110  H16   1.110976 S    
O39   Zn10  1.880976 S    
C135  H70   1.109161 S    
C15   C40   1.536381 S    
O19   Zn7   1.875240 S    
C63   C77   1.478255 S    
O11   C7    1.218346 A    
C120  O56   1.396984 S    
C12   C28   1.545613 S    
C62   C76   1.478421 S    
C16   H8    1.110520 S    
O2    Zn1   1.874984 S    
C109  H20   1.111655 S    
O11   Zn2   2.020155 S    
O10   Zn1   2.025554 S    
C105  H14   1.111523 S    
C118  O52   1.396293 S    
C73   C103  1.478869 S    
C123  O61   1.222066 D    
O20   Zn8   1.875782 S    
C74   C104  1.478866 S    
C132  C133  1.525395 S    
C18   C108  1.527885 S    
C17   C105  1.530516 S    
C113  H23   1.111024 S    
C112  H26   1.111398 S    
C33   C37   1.532033 S    
C131  H65   1.111267 S    
C111  H29   1.111337 S    
C115  C116  1.525763 S    
C12   H4    1.110525 S    
C45   C49   1.453413 S    
C89   C91   1.231847 T    
C111  C112  1.533340 S    
C46   C50   1.453322 S    
C136  H68   1.110468 S    
C115  H34   1.111656 S    
O58   H41   1.013751 S    
C14   C30   1.545302 S    
C65   C81   1.478731 S    
C28   C33   1.537492 S    
C10   H2    1.110321 S    
C95   C97   1.453836 S    
O26   Zn8   2.022686 S    
C23   C32   1.533458 S    
C102  C104  1.231621 T    
C114  C115  1.530899 S    
C124  O64   1.396991 S    
C125  C126  1.533219 S    
C105  C106  1.533369 S    
O42   C78   1.302725 A    
C106  H12   1.111397 S    
O37   Zn9   1.880372 S    
O18   Zn6   1.875782 S    
C53   C57   1.453462 S    
C127  H45   1.110867 S    
O41   C77   1.302680 A    
C113  H24   1.110903 S    
O28   C69   1.220138 A    
