data_mof_unit_15399.cif
_audit_creation_date              2013-03-05T16:03:26-0500
_audit_creation_method            fapswitch 2.2
_symmetry_space_group_name_H-M    P1
_symmetry_Int_Tables_number       1
_space_group_crystal_system       triclinic
_cell_length_a                    14.107444
_cell_length_b                    14.97301
_cell_length_c                    17.140391
_cell_angle_alpha                 87.782542
_cell_angle_beta                  87.009188
_cell_angle_gamma                 88.60219
_cell_volume                      3612.03283614

loop_
_atom_site_label
_atom_site_type_symbol
_atom_site_description
_atom_site_fract_x
_atom_site_fract_y
_atom_site_fract_z
_atom_type_partial_charge
O1    O     O_R   0.419720 0.632140 0.499990 -0.653942
O2    O     O_R   0.580280 0.367860 0.500010 -0.658728
O3    O     O_R   0.580270 0.632160 0.499980 -0.609107
O4    O     O_R   0.419730 0.367840 0.500020 -0.615601
C1    C     C_R   0.498686 0.672709 0.502489 0.878779
C2    C     C_R   0.501180 0.327391 0.498088 0.871361
O5    O     O_R   0.410240 0.500000 0.615800 -0.620807
O6    O     O_R   0.589760 0.500000 0.384200 -0.627081
O7    O     O_R   0.570790 0.500020 0.615800 -0.617624
O8    O     O_R   0.429210 0.499980 0.384200 -0.624560
C3    C     C_R   0.488303 0.496147 0.651913 0.867836
C4    C     C_R   0.512067 0.499943 0.347595 0.884493
Zn1   Zn    Zn3+2 0.392800 0.499980 0.500010 0.928041
Zn2   Zn    Zn3+2 0.607200 0.500020 0.499990 0.930870
C5    C     C_R   0.485524 0.484718 0.736021 -0.086301
C6    C     C_R   0.515221 0.499528 0.262511 -0.111617
C7    C     C_R   0.551355 0.532649 0.774822 -0.358577
C8    C     C_R   0.436699 0.463151 0.229366 -0.279759
C9    C     C_R   0.561853 0.517984 0.854103 0.259225
C10   C     C_R   0.423424 0.472991 0.150025 0.256837
C11   C     C_R   0.501400 0.457469 0.895629 0.115975
C12   C     C_R   0.491608 0.519762 0.103130 0.059005
C13   C     C_R   0.436787 0.408150 0.857427 -0.254778
C14   C     C_R   0.573273 0.551070 0.134184 -0.226925
C15   C     C_R   0.428075 0.420410 0.777143 0.170869
C16   C     C_R   0.587854 0.539786 0.213736 0.152637
C17   C     C_2   0.497558 0.451396 0.979970 -0.206517
C18   C     C_2   0.486962 0.525897 0.019497 -0.208755
H1    H     H_    0.597769 0.579183 0.742563 0.173228
H2    H     H_    0.383826 0.428411 0.266030 0.175677
H3    H     H_    0.484539 0.591558 0.990193 0.170712
H4    H     H_    0.499668 0.385992 0.009713 0.155312
H5    H     H_    0.391574 0.361268 0.890705 0.150881
H6    H     H_    0.626689 0.583087 0.095510 0.160579
C19   C     C_R   0.467976 0.186780 0.561956 -0.314489
C20   C     C_R   0.528793 0.814098 0.438505 -0.315149
C21   C     C_R   0.503660 0.232273 0.495526 -0.069148
C22   C     C_R   0.495553 0.768105 0.505406 -0.073376
C23   C     C_R   0.537360 0.188302 0.428327 0.123633
C24   C     C_R   0.461586 0.812075 0.572623 0.121862
C25   C     C_R   0.535956 0.093927 0.430708 0.057173
C26   C     C_R   0.461007 0.906645 0.569827 0.058547
C27   C     C_R   0.499195 0.047177 0.499155 0.002733
C28   C     C_R   0.497268 0.953522 0.501300 0.004192
C29   C     C_R   0.464348 0.094188 0.565349 0.066167
C30   C     C_R   0.531761 0.906625 0.434986 0.067287
C31   C     C_R   0.570413 0.045573 0.366210 -0.226327
C32   C     C_R   0.425160 0.955100 0.633912 -0.227569
C33   C     C_R   0.568662 0.952512 0.366642 0.162100
C34   C     C_R   0.426455 0.048322 0.633348 0.165838
H7    H     H_    0.443056 0.225771 0.611017 0.124774
H8    H     H_    0.552214 0.775725 0.389011 0.134212
H9    H     H_    0.599097 0.080302 0.314771 0.181239
H10   H     H_    0.395862 0.920282 0.685112 0.180571
C35   C     C_R   0.200369 0.440270 0.547290 -0.114934
C36   C     C_R   0.799705 0.559822 0.452869 -0.120913
N1    N     N_R   0.249970 0.499930 0.499970 -0.132433
N2    N     N_R   0.750030 0.500070 0.500030 -0.131586
C37   C     C_R   0.202107 0.557902 0.449720 0.274889
C38   C     C_R   0.797530 0.442989 0.551198 0.290514
C39   C     C_R   0.101275 0.562814 0.452897 0.015419
C40   C     C_R   0.898455 0.438898 0.548963 0.001020
C41   C     C_R   0.050366 0.500865 0.500801 0.050965
C42   C     C_R   0.949437 0.500749 0.500975 0.048813
C43   C     C_R   0.100232 0.438318 0.547717 0.024709
C44   C     C_R   0.899678 0.562760 0.453480 0.024622
C45   C     C_R   0.050144 0.627620 0.408723 -0.191842
C46   C     C_R   0.949632 0.374579 0.593652 -0.180184
C47   C     C_R   0.950878 0.626681 0.408131 -0.212703
C48   C     C_R   0.048950 0.374826 0.593466 -0.215254
H11   H     H_    0.239143 0.392776 0.583326 0.157234
H12   H     H_    0.761138 0.606561 0.416070 0.159597
H13   H     H_    0.086459 0.679857 0.374523 0.168833
H14   H     H_    0.913568 0.322733 0.628384 0.171587
H15   H     H_    0.914173 0.676334 0.372437 0.140136
H16   H     H_    0.085575 0.324781 0.628758 0.137477
N3    N     N_2   0.252557 0.608781 0.389839 -0.320174
H17   H     H_    0.319977 0.625544 0.401147 0.284133
C49   C     C_3   0.245415 0.576848 0.311604 -0.770848
H18   H     H_    0.300451 0.608150 0.271395 0.240812
H19   H     H_    0.175237 0.594559 0.288571 0.236587
H20   H     H_    0.254731 0.503115 0.311714 0.250893
N4    N     N_2   0.746588 0.389587 0.609152 -0.310708
H21   H     H_    0.680491 0.369042 0.597783 0.279322
C50   C     C_3   0.757399 0.409877 0.690291 -0.816881
H22   H     H_    0.687194 0.424050 0.719354 0.260537
H23   H     H_    0.803124 0.468471 0.696186 0.246417
H24   H     H_    0.788698 0.350876 0.721475 0.233045
C51   C     C_3   0.680384 0.572230 0.242235 -0.377581
C52   C     C_3   0.667482 0.664090 0.276687 -0.908186
H25   H     H_    0.620646 0.659767 0.330341 0.266347
H26   H     H_    0.737387 0.689209 0.291697 0.239111
H27   H     H_    0.635931 0.711982 0.233672 0.260428
H28   H     H_    0.711492 0.523352 0.284471 0.224474
H29   H     H_    0.734486 0.577773 0.192808 0.192899
C53   C     C_3   0.359521 0.361762 0.738819 -0.429337
C54   C     C_3   0.257874 0.397652 0.750764 -0.838611
H30   H     H_    0.250494 0.465030 0.721979 0.273303
H31   H     H_    0.208489 0.351817 0.724977 0.230457
H32   H     H_    0.237856 0.401979 0.814067 0.254595
H33   H     H_    0.377480 0.355013 0.675677 0.207657
H34   H     H_    0.363991 0.292830 0.765096 0.193852
N5    N     N_2   0.338873 0.441040 0.119272 -0.306980
H35   H     H_    0.321757 0.467771 0.065359 0.236119
C55   C     C_3   0.325460 0.345502 0.127549 -0.816435
H36   H     H_    0.258103 0.328435 0.101463 0.240774
H37   H     H_    0.320574 0.323239 0.190090 0.249039
H38   H     H_    0.384978 0.308976 0.096946 0.233860
N6    N     N_2   0.632503 0.564595 0.891765 -0.312409
H39   H     H_    0.651578 0.624303 0.863905 0.220624
C56   C     C_3   0.714225 0.510215 0.912486 -0.797824
H40   H     H_    0.763099 0.550839 0.944531 0.234454
H41   H     H_    0.752658 0.485823 0.858907 0.239629
H42   H     H_    0.692509 0.452243 0.951098 0.254428
C57   C     C_3   0.569729 0.242223 0.354362 -0.423048
C58   C     C_3   0.493665 0.244803 0.293972 -0.890433
H43   H     H_    0.476306 0.176709 0.276771 0.262783
H44   H     H_    0.427899 0.277753 0.318442 0.261832
H45   H     H_    0.519441 0.283398 0.240778 0.258028
H46   H     H_    0.585316 0.312299 0.366136 0.222030
H47   H     H_    0.638321 0.215714 0.329250 0.194841
C59   C     C_3   0.430932 0.758084 0.646927 -0.415268
C60   C     C_3   0.506709 0.758829 0.707417 -0.893987
H48   H     H_    0.573937 0.728368 0.683118 0.263347
H49   H     H_    0.520926 0.827706 0.724510 0.262727
H50   H     H_    0.482431 0.719509 0.760662 0.253044
H51   H     H_    0.361430 0.782854 0.671704 0.195795
H52   H     H_    0.418161 0.687251 0.635670 0.223872
C61   C     C_3   0.606391 0.901196 0.295443 -0.410354
C62   C     C_3   0.644638 0.956586 0.224244 -0.904194
H53   H     H_    0.588024 0.001607 0.201215 0.260554
H54   H     H_    0.706392 0.995898 0.239447 0.259876
H55   H     H_    0.668898 0.910957 0.177306 0.254626
H56   H     H_    0.665079 0.855569 0.313841 0.215475
H57   H     H_    0.548218 0.860360 0.275391 0.209453
C63   C     C_3   0.388099 0.099863 0.704273 -0.412325
C64   C     C_3   0.348103 0.044561 0.774876 -0.903026
H58   H     H_    0.286600 0.005542 0.758658 0.260690
H59   H     H_    0.403965 0.999258 0.798707 0.260274
H60   H     H_    0.323051 0.090217 0.821565 0.252328
H61   H     H_    0.446372 0.140028 0.725067 0.203266
H62   H     H_    0.330301 0.146372 0.685457 0.208099

loop_
_geom_bond_atom_site_label_1
_geom_bond_atom_site_label_2
_geom_bond_distance
_ccdc_geom_bond_type
C22   C24   1.405759 A    
C41   C43   1.409689 A    
C57   H47   1.109137 S    
C53   H34   1.111710 S    
C7    H1    1.083785 S    
C56   H40   1.110358 S    
O7    Zn2   2.024297 S    
C37   N3    1.424809 S    
C54   H30   1.110753 S    
C60   H48   1.110566 S    
C23   C25   1.412680 A    
C10   N5    1.429147 S    
N3    H17   1.019738 S    
C16   C51   1.514743 S    
C32   H10   1.072393 S    
C55   H37   1.109393 S    
C30   C33   1.416650 A    
O1    C1    1.285244 A    
C9    C11   1.406913 A    
C14   C16   1.392782 A    
N6    C56   1.446668 S    
C38   N4    1.426414 S    
N1    C37   1.387612 A    
C44   C47   1.399807 A    
Zn1   N1    2.015022 S    
C46   H14   1.080642 S    
C57   C58   1.528141 S    
O4    Zn1   2.005550 S    
C58   H43   1.108778 S    
C38   C40   1.422187 A    
C59   H51   1.109178 S    
C39   C41   1.400862 A    
C63   H62   1.111832 S    
C54   H31   1.109358 S    
C61   H57   1.111614 S    
C3    C5    1.443785 S    
C4    C6    1.456965 S    
C36   N2    1.363994 A    
C36   H12   1.080135 S    
C40   C42   1.401188 A    
C20   C30   1.385946 A    
C45   H13   1.081924 S    
C64   H59   1.110904 S    
C20   H8    1.076191 S    
C31   H9    1.071945 S    
C24   C26   1.414786 A    
C11   C17   1.443257 S    
C12   C18   1.437708 S    
C1    C22   1.430694 S    
C25   C27   1.423369 A    
O2    C2    1.285244 A    
C26   C28   1.423031 A    
C55   H38   1.110455 S    
C28   C30   1.417460 A    
O5    C3    1.290171 A    
N3    C49   1.450189 S    
C6    C16   1.419152 A    
Zn2   N2    2.015022 S    
C64   H60   1.110702 S    
C37   C39   1.420889 A    
C50   H23   1.112331 S    
C49   H18   1.111043 S    
C56   H41   1.111351 S    
C49   H19   1.107349 S    
C60   H50   1.110163 S    
C13   H5    1.085284 S    
C50   H22   1.104766 S    
C33   C61   1.532254 S    
C14   H6    1.085363 S    
C61   H56   1.111132 S    
C45   C47   1.401382 A    
C42   C44   1.409592 A    
C51   H29   1.112356 S    
C62   H54   1.110827 S    
C27   C28   1.402253 A    
C63   H61   1.111670 S    
O7    C3    1.290743 A    
C39   C45   1.414621 A    
C52   H26   1.110080 S    
N4    H21   1.019643 S    
O6    C4    1.291065 A    
C53   C54   1.525546 S    
C25   C31   1.404049 A    
C2    C21   1.426093 S    
N5    C55   1.448069 S    
C26   C32   1.405169 A    
C27   C29   1.418150 A    
O3    Zn2   2.005552 S    
O8    C4    1.297482 A    
C15   C53   1.513378 S    
C8    H2    1.080084 S    
O4    C2    1.285245 A    
N4    C50   1.451505 S    
C10   C12   1.403706 A    
C23   C57   1.531681 S    
C11   C13   1.391939 A    
C19   H7    1.081073 S    
C12   C14   1.392845 A    
C62   H55   1.110668 S    
O1    Zn1   2.024009 S    
C20   C22   1.381157 A    
C19   C29   1.387440 A    
C17   C18   1.328714 D    
C54   H32   1.110781 S    
C52   H27   1.110714 S    
C61   C62   1.530706 S    
C55   H36   1.110502 S    
C50   H24   1.109127 S    
C5    C7    1.397762 A    
O6    Zn2   2.012591 S    
C19   C21   1.382321 A    
C17   H4    1.086893 S    
C35   C43   1.413327 A    
C18   H3    1.087181 S    
C63   C64   1.530528 S    
O3    C1    1.287596 A    
O8    Zn1   2.024297 S    
C51   H28   1.108505 S    
C49   H20   1.108554 S    
C31   C33   1.393944 A    
C24   C59   1.530513 S    
C64   H58   1.110808 S    
C58   H45   1.110128 S    
C40   C46   1.414977 A    
C35   N1    1.364065 A    
C62   H53   1.110929 S    
C59   C60   1.528093 S    
C21   C23   1.404429 A    
C34   C63   1.532903 S    
N6    H39   1.031986 S    
C48   H16   1.083070 S    
C52   H25   1.104796 S    
C9    N6    1.425877 S    
C29   C34   1.416626 A    
C36   C44   1.412725 A    
C32   C34   1.396030 A    
C7    C9    1.383148 A    
C58   H44   1.110490 S    
C47   H15   1.083628 S    
C56   H42   1.110252 S    
C8    C10   1.384178 A    
C13   C15   1.392645 A    
C59   H52   1.106044 S    
O2    Zn2   2.024009 S    
C60   H49   1.108702 S    
C41   C42   1.423735 A    
O5    Zn1   2.012591 S    
C5    C15   1.416600 A    
C6    C8    1.401992 A    
C57   H46   1.105559 S    
N5    H35   1.030732 S    
C46   C48   1.401055 A    
C51   C52   1.520878 S    
C53   H33   1.106490 S    
N2    C38   1.387118 A    
C35   H11   1.081083 S    
C43   C48   1.399537 A    
