data_mof_unit_7467.cif
_audit_creation_date              2012-12-11T14:50:43-0500
_audit_creation_method            fapswitch 2.2
_symmetry_space_group_name_H-M    P1
_symmetry_Int_Tables_number       1
_space_group_crystal_system       triclinic
_cell_length_a                    10.906643
_cell_length_b                    10.869638
_cell_length_c                    18.762251
_cell_angle_alpha                 90.609938
_cell_angle_beta                  90.136222
_cell_angle_gamma                 60.517178
_cell_volume                      1936.13030265

loop_
_atom_site_label
_atom_site_type_symbol
_atom_type_description
_atom_site_fract_x
_atom_site_fract_y
_atom_site_fract_z
_atom_type_partial_charge
C1    C     C_R   0.240225 0.645312 0.611105 0.591230
C2    C     C_3   0.695498 0.565040 0.800102 0.575238
C3    C     C_3   0.725400 0.691186 0.807372 -0.055538
C4    C     C_3   0.681340 0.654975 0.673540 -0.032161
C5    C     C_3   0.834012 0.629863 0.683297 0.230762
C6    C     C_3   0.656988 0.553285 0.722299 0.726955
C7    C     C_R   0.788761 0.145820 0.707435 0.456804
C8    C     C_R   0.799951 0.141776 0.781871 0.317671
C9    C     C_R   0.685804 0.158070 0.823675 -0.041519
C10   C     C_R   0.560036 0.187204 0.790108 -0.125043
C11   C     C_R   0.551868 0.179342 0.717739 0.138879
C12   C     C_R   0.656432 0.624944 0.599491 0.579708
C13   C     C_R   0.662353 0.170696 0.674869 -0.004792
C14   C     C_R   0.206621 0.546932 0.723723 -0.101829
C15   C     C_R   0.201210 0.547062 0.798047 0.180390
C16   C     C_R   0.194187 0.662240 0.837093 0.021840
C17   C     C_R   0.217633 0.761902 0.801128 0.291470
C18   C     C_R   0.211894 0.767126 0.727487 0.471909
C19   C     C_R   0.207435 0.658693 0.687637 -0.007627
C20   C     C_R   0.746728 0.528828 0.272292 0.379466
C21   C     C_R   0.739788 0.536203 0.199324 0.362906
C22   C     C_R   0.647821 0.664125 0.165910 -0.029152
C23   C     C_R   0.628418 0.225810 0.602418 0.596514
C24   C     C_R   0.541970 0.775295 0.207047 0.161872
C25   C     C_R   0.542697 0.763246 0.281116 -0.169286
C26   C     C_R   0.648488 0.642521 0.314448 -0.080623
C27   C     C_R   0.518337 0.198325 0.278733 0.240773
C28   C     C_R   0.515981 0.214041 0.205462 0.269332
C29   C     C_R   0.640573 0.186065 0.170510 -0.007609
C30   C     C_R   0.752512 0.181546 0.209282 -0.148936
C31   C     C_R   0.748590 0.184422 0.282794 -0.168358
C32   C     C_R   0.633121 0.191063 0.318466 -0.029687
C33   C     C_R   0.082017 0.817448 0.307413 -0.117808
C34   C     C_R   0.217714 0.650871 0.402044 0.539062
C35   C     C_R   0.041320 0.838590 0.236921 -0.117144
C36   C     C_R   0.046072 0.728182 0.195865 0.003638
C37   C     C_R   0.076527 0.600681 0.228662 -0.088341
C38   C     C_R   0.121235 0.577883 0.299403 -0.093863
C39   C     C_R   0.132468 0.683671 0.337522 0.008781
C40   C     C_R   0.701467 0.103944 0.896346 0.578229
C41   C     C_R   0.753960 0.709772 0.882981 0.599709
C42   C     C_R   0.122846 0.703528 0.906810 0.612529
C43   C     C_R   0.672066 0.114745 0.101717 0.563976
C44   C     C_R   0.692816 0.688187 0.096248 0.588898
C45   C     C_R   0.640139 0.619422 0.390444 0.555869
C46   C     C_R   0.024832 0.747865 0.119005 0.532071
C47   C     C_R   0.614569 0.231202 0.393514 0.546832
C48   C     C_3   0.600249 0.828188 0.776544 -0.274754
C49   C     C_3   0.578610 0.808990 0.696934 -0.317014
C50   C     C_3   0.856615 0.658182 0.761718 0.186733
Cr1   Cr    Cr6+3 0.392930 0.397900 0.502230 1.144247
Cr2   Cr    Cr6+3 0.398240 0.708600 0.501260 1.125734
Cr3   Cr    Cr6+3 0.708800 0.393470 0.496460 1.191116
Cr4   Cr    Cr6+3 0.937620 0.938540 0.007640 1.161518
Cr5   Cr    Cr6+3 0.625150 0.937450 0.994520 1.174808
Cr6   Cr    Cr6+3 0.937990 0.625080 0.001190 1.198591
H1    H     H_    0.621186 0.917462 0.783302 0.195914
H2    H     H_    0.948492 0.563155 0.782804 0.265226
H3    H     H_    0.471208 0.197852 0.820345 0.250012
H4    H     H_    0.209287 0.459856 0.694118 0.252448
H5    H     H_    0.502305 0.856838 0.806051 0.250874
H6    H     H_    0.460628 0.847882 0.312459 0.220034
H7    H     H_    0.846835 0.167262 0.182854 0.221416
H8    H     H_    0.836523 0.180216 0.311771 0.215734
H9    H     H_    0.085294 0.902672 0.336249 0.163505
H10   H     H_    0.467311 0.836505 0.688180 0.281819
H11   H     H_    0.015324 0.938621 0.213264 0.155524
H12   H     H_    0.074529 0.516013 0.198714 0.223691
H13   H     H_    0.155630 0.475256 0.322466 0.214293
H14   H     H_    0.598823 0.882295 0.664561 0.167863
H15   H     H_    0.850269 0.702177 0.647908 0.152496
O1    O     O_R   0.507430 0.255570 0.581420 -0.463768
O2    O     O_R   0.524460 0.695920 0.424060 -0.518586
O3    O     O_R   0.736530 0.504260 0.414810 -0.438068
O4    O     O_R   0.691460 0.277160 0.422180 -0.507811
O5    O     O_3   0.499990 0.499990 0.499980 -0.306987
O6    O     O_R   0.089490 0.825610 0.930610 -0.436777
O7    O     O_R   0.818370 0.054540 0.929880 -0.444050
O8    O     O_R   0.605870 0.077310 0.915530 -0.518730
O9    O     O_R   0.646440 0.806700 0.917570 -0.475718
O10   O     O_R   0.837200 0.593290 0.915250 -0.399373
O11   O     O_R   0.065330 0.635370 0.931590 -0.464471
O12   O     O_R   0.280190 0.527390 0.578910 -0.494776
O13   O     O_R   0.068300 0.828790 0.091860 -0.470275
O14   O     O_R   0.798730 0.057480 0.079370 -0.535638
O15   O     O_R   0.584680 0.080480 0.076790 -0.420499
O16   O     O_R   0.626790 0.809640 0.067050 -0.448394
O17   O     O_R   0.816010 0.596460 0.076500 -0.444609
O18   O     O_R   0.045680 0.638310 0.081070 -0.473569
O19   O     O_3   0.833590 0.833690 0.001120 -0.367592
O20   O     O_R   0.260310 0.739740 0.584580 -0.413603
O21   O     O_R   0.532250 0.695150 0.573830 -0.491441
O22   O     O_R   0.744930 0.503430 0.576380 -0.376192
O23   O     O_R   0.699250 0.276390 0.571950 -0.412131
O24   O     O_R   0.499020 0.256400 0.419850 -0.456663
O25   O     O_R   0.272400 0.528160 0.429140 -0.492982
O26   O     O_R   0.251910 0.740570 0.423020 -0.514853
F1    F     F_    0.740002 0.415352 0.699565 -0.488214
F2    F     F_    0.934014 0.492616 0.664709 -0.536411
F3    F     F_    0.898283 0.132644 0.667320 -0.481763
Cl1   Cl    Cl    0.952257 0.128707 0.820405 -0.228107
Cl2   Cl    Cl    0.401385 0.172866 0.686422 -0.483734
Cl3   Cl    Cl    0.201960 0.401665 0.839583 -0.449874
Cl4   Cl    Cl    0.260525 0.879313 0.846304 -0.373082
F4    F     F_    0.217709 0.875720 0.695467 -0.512204
F5    F     F_    0.850581 0.407888 0.300888 -0.576746
F6    F     F_    0.832605 0.419823 0.161599 -0.563853
Cl5   Cl    Cl    0.404814 0.928781 0.168872 -0.418832
Cl6   Cl    Cl    0.379304 0.179684 0.316718 -0.488739
Cl7   Cl    Cl    0.356417 0.269299 0.158283 -0.425007
F7    F     F_    0.885155 0.769232 0.765702 -0.725793
F8    F     F_    0.816705 0.440798 0.817289 -0.498649
Cl8   Cl    Cl    0.562533 0.578253 0.861078 -0.446887
F9    F     F_    0.518108 0.583833 0.716898 -0.640376

loop_
_geom_bond_atom_site_label_1
_geom_bond_atom_site_label_2
_ccdc_geom_bond_type
C23   O1    A    
Cr1   O12   S    
C3    C48   S    
C35   C36   A    
C42   O11   A    
C41   O9    A    
Cr4   O13   S    
C33   H9    S    
Cr6   O10   S    
C46   O18   A    
Cr3   O4    S    
C2    F8    S    
C33   C39   A    
C6    F1    S    
C28   C29   A    
C17   Cl4   S    
C34   O25   A    
Cr4   O19   S    
Cr5   O19   S    
C3    C41   S    
C38   C39   A    
C2    Cl8   S    
Cr6   O17   S    
C15   C16   A    
C37   H12   S    
Cr2   O26   S    
C34   O26   A    
C13   C23   S    
C45   O2    A    
C18   C19   A    
C6    F9    S    
C26   C45   S    
C22   C44   S    
C5    F2    S    
C8    C9    A    
C36   C46   S    
C24   Cl5   S    
C4    C12   S    
C44   O16   A    
C8    Cl1   S    
Cr1   O25   S    
Cr4   O6    S    
Cr6   O19   S    
Cr3   O23   S    
C38   H13   S    
C1    O20   A    
C21   C22   A    
C29   C43   S    
C2    C6    S    
C31   H8    S    
C3    C50   S    
C20   F5    S    
C1    C19   S    
C49   H10   S    
Cr3   O22   S    
C34   C39   S    
C50   H2    S    
C48   H1    S    
C24   C25   A    
C4    C6    S    
Cr2   O2    S    
C7    F3    S    
C16   C17   A    
C28   Cl7   S    
C25   C26   A    
C9    C40   S    
C45   O3    A    
C43   O14   A    
C37   C38   A    
Cr5   O8    S    
C31   C32   A    
C35   H11   S    
C41   O10   A    
C17   C18   A    
C40   O8    A    
Cr1   O5    S    
C21   F6    S    
C46   O13   A    
C48   C49   S    
C49   H14   S    
C32   C47   S    
C40   O7    A    
C12   O22   A    
Cr2   O21   S    
Cr3   O5    S    
Cr1   O1    S    
C16   C42   S    
C9    C10   A    
Cr6   O18   S    
C27   C32   A    
C43   O15   A    
C14   C19   A    
C12   O21   A    
C4    C5    S    
Cr2   O5    S    
Cr4   O14   S    
Cr6   O11   S    
C1    O12   A    
C14   H4    S    
C23   O23   A    
C4    C49   S    
Cr5   O15   S    
C2    C3    S    
C18   F4    S    
C47   O4    A    
C5    H15   S    
Cr5   O9    S    
C11   C13   A    
C48   H5    S    
C30   C31   A    
C20   C26   A    
C30   H7    S    
C50   F7    S    
C33   C35   A    
C10   H3    S    
C11   Cl2   S    
C22   C24   A    
C25   H6    S    
Cr5   O16   S    
C5    C50   S    
C7    C8    A    
C10   C11   A    
C29   C30   A    
C7    C13   A    
C20   C21   A    
C27   Cl6   S    
C42   O6    A    
C36   C37   A    
C27   C28   A    
C47   O24   A    
C14   C15   A    
Cr2   O20   S    
C15   Cl3   S    
C44   O17   A    
Cr1   O24   S    
Cr4   O7    S    
Cr3   O3    S    
