data_mof_unit_10790.cif
_audit_creation_date              2012-12-10T18:50:45-0500
_audit_creation_method            fapswitch 2.2
_symmetry_space_group_name_H-M    P1
_symmetry_Int_Tables_number       1
_space_group_crystal_system       triclinic
_cell_length_a                    10.715242
_cell_length_b                    9.838475
_cell_length_c                    15.771483
_cell_angle_alpha                 89.983816
_cell_angle_beta                  90.119543
_cell_angle_gamma                 90.011166
_cell_volume                      1662.65189495

loop_
_atom_site_label
_atom_site_type_symbol
_atom_type_description
_atom_site_fract_x
_atom_site_fract_y
_atom_site_fract_z
_atom_type_partial_charge
C1    C     C_R   0.259837 0.499989 0.499916 0.869920
C2    C     C_3   0.660725 0.527070 0.949114 -0.148523
C3    C     C_3   0.662196 0.504153 0.051066 -0.263096
C4    C     C_1   0.513141 0.500925 0.825205 -0.068532
C5    C     C_1   0.511999 0.501628 0.174808 0.297435
C6    C     C_1   0.505665 0.500403 0.249803 -0.072138
C7    C     C_R   0.063921 0.379028 0.516975 -0.177844
C8    C     C_R   0.063859 0.620916 0.482753 -0.175390
C9    C     C_R   0.936080 0.379060 0.517075 -0.172264
C10   C     C_R   0.936015 0.620944 0.482841 -0.169948
C11   C     C_R   0.872538 0.500017 0.500002 -0.014612
C12   C     C_R   0.127400 0.499968 0.499856 -0.013835
C13   C     C_R   0.582136 0.071953 0.549440 -0.061195
C14   C     C_R   0.582133 0.928041 0.549441 -0.060636
C15   C     C_R   0.500131 0.500042 0.338328 0.898730
C16   C     C_R   0.417804 0.928046 0.450521 -0.047822
C17   C     C_R   0.417805 0.071959 0.450522 -0.047981
C18   C     C_R   0.740103 0.500010 0.500033 0.874766
C19   C     C_R   0.500313 0.499991 0.661693 0.905783
C20   C     C_3   0.447528 0.632853 0.048839 0.707558
C21   C     C_3   0.449032 0.371428 0.049192 0.680110
C22   C     C_3   0.466905 0.364291 0.950467 0.043316
C23   C     C_3   0.432458 0.617715 0.950560 0.096827
C24   C     C_1   0.506388 0.500133 0.750220 -0.198782
C25   C     C_3   0.519099 0.503274 0.083039 -0.045994
C26   C     C_3   0.521128 0.502444 0.916936 -0.055787
H1    H     H_    0.334170 0.586315 0.937034 0.078937
H2    H     H_    0.373924 0.346367 0.920195 0.113597
H3    H     H_    0.352126 0.873499 0.410982 0.137203
H4    H     H_    0.352133 0.126510 0.410980 0.142271
H5    H     H_    0.112652 0.285072 0.530814 0.158938
H6    H     H_    0.112544 0.714845 0.468836 0.157975
H7    H     H_    0.887406 0.285129 0.531002 0.156113
H8    H     H_    0.887283 0.714896 0.468992 0.166794
H9    H     H_    0.647805 0.126500 0.588987 0.126794
H10   H     H_    0.647794 0.873488 0.588993 0.131120
N1    N     N_R   0.499970 0.857200 0.499980 -0.085017
N2    N     N_R   0.499970 0.142800 0.499980 -0.085051
O1    O     O_R   0.316750 0.614620 0.499990 -0.631983
O2    O     O_R   0.316750 0.385380 0.499990 -0.630744
O3    O     O_R   0.499990 0.614720 0.377140 -0.598020
O4    O     O_R   0.499990 0.385280 0.377140 -0.596807
O5    O     O_R   0.683220 0.614710 0.500000 -0.628295
O6    O     O_R   0.683220 0.385290 0.500000 -0.623866
O7    O     O_R   0.499980 0.614620 0.622860 -0.613779
O8    O     O_R   0.499980 0.385380 0.622860 -0.619364
Zn1   Zn    Zn3+2 0.499980 0.653120 0.500000 0.973258
Zn2   Zn    Zn3+2 0.499980 0.346880 0.500000 0.973797
O9    O     O_3   0.328949 0.641926 0.087689 -0.777599
H11   H     H_    0.282309 0.717490 0.060437 0.337143
O10   O     O_3   0.321152 0.375584 0.072266 -0.729972
H12   H     H_    0.270591 0.419283 0.027295 0.330349
O11   O     O_3   0.498788 0.253850 0.087652 -0.689850
H13   H     H_    0.445822 0.175690 0.070340 0.389431
O12   O     O_3   0.515713 0.750920 0.069424 -0.633192
H14   H     H_    0.462838 0.831596 0.057632 0.378214
O13   O     O_3   0.544407 0.254276 0.928490 -0.744012
H15   H     H_    0.523854 0.228269 0.869252 0.351046
O14   O     O_3   0.453031 0.743193 0.909618 -0.717654
H16   H     H_    0.402108 0.744004 0.856946 0.344590
C27   C     C_2   0.747019 0.608613 0.094788 0.681611
H17   H     H_    0.841804 0.621210 0.071753 0.079303
O15   O     O_2   0.714535 0.674767 0.156395 -0.520639
C28   C     C_2   0.723019 0.368441 0.076548 0.518454
H18   H     H_    0.729462 0.284350 0.032449 0.183509
O16   O     O_2   0.757957 0.347883 0.149332 -0.548021
C29   C     C_2   0.701468 0.668437 0.917084 0.597073
H19   H     H_    0.719470 0.681624 0.849763 0.045617
O17   O     O_2   0.710939 0.768476 0.962330 -0.501524
C30   C     C_2   0.753590 0.433314 0.904317 0.281333
H20   H     H_    0.723970 0.364353 0.854607 0.148229
O18   O     O_2   0.864759 0.438230 0.921647 -0.587376

loop_
_geom_bond_atom_site_label_1
_geom_bond_atom_site_label_2
_ccdc_geom_bond_type
C4    C26   S    
O12   H14   S    
C19   O7    A    
C11   C18   S    
C13   H9    S    
C20   O9    S    
O10   H12   S    
C18   O6    A    
C3    C28   S    
N1    Zn1   S    
N2    Zn2   S    
C20   C23   S    
C3    C25   S    
C16   N1    A    
C8    C12   A    
C28   H18   S    
C22   O13   S    
C3    C27   S    
C2    C3    S    
O3    Zn1   S    
C19   O8    A    
O14   H16   S    
C2    C26   S    
O4    Zn2   S    
O11   H13   S    
C14   N1    A    
C23   O14   S    
C17   H4    S    
C9    C11   A    
C16   H3    S    
C13   N2    A    
C30   H20   S    
C1    C12   S    
C2    C30   S    
C9    H7    S    
C20   O12   S    
C5    C25   S    
C5    C6    T    
C21   O11   S    
C8    C10   A    
C19   C24   S    
C23   H1    S    
C17   N2    A    
O7    Zn1   S    
C14   H10   S    
C27   H17   S    
C4    C24   T    
C13   C14   A    
O8    Zn2   S    
C7    C12   A    
C7    H5    S    
C10   C11   A    
C1    O1    A    
C29   H19   S    
C8    H6    S    
C7    C9    A    
C21   O10   S    
O13   H15   S    
C15   O3    A    
C10   H8    S    
O9    H11   S    
C22   C26   S    
C23   C26   S    
C18   O5    A    
C27   O15   D    
C21   C25   S    
O2    Zn2   S    
C22   H2    S    
C1    O2    A    
C29   O17   D    
C6    C15   S    
C21   C22   S    
O1    Zn1   S    
O5    Zn1   S    
C30   O18   D    
O6    Zn2   S    
C15   O4    A    
C16   C17   A    
C2    C29   S    
C20   C25   S    
C28   O16   D    
