data_mof_unit_18318.cif
_audit_creation_date              2012-12-10T17:48:41-0500
_audit_creation_method            fapswitch 2.2
_symmetry_space_group_name_H-M    P1
_symmetry_Int_Tables_number       1
_space_group_crystal_system       triclinic
_cell_length_a                    15.73271
_cell_length_b                    10.735395
_cell_length_c                    9.911526
_cell_angle_alpha                 91.336111
_cell_angle_beta                  90.361249
_cell_angle_gamma                 91.887342
_cell_volume                      1672.6206432

loop_
_atom_site_label
_atom_site_type_symbol
_atom_type_description
_atom_site_fract_x
_atom_site_fract_y
_atom_site_fract_z
_atom_type_partial_charge
C1    C     C_R   0.510609 0.261606 0.498668 0.885989
C2    C     C_3   0.950657 0.473140 0.646468 -0.408023
C3    C     C_3   0.917352 0.497068 0.502347 0.270068
C4    C     C_3   0.953849 0.624328 0.455244 -0.389953
C5    C     C_3   0.051887 0.623538 0.454332 -0.485403
C6    C     C_1   0.825897 0.498001 0.502014 -0.078492
C7    C     C_1   0.174106 0.497045 0.499870 -0.048441
C8    C     C_1   0.249460 0.498233 0.499137 -0.148579
C9    C     C_R   0.574338 0.129753 0.736537 -0.143851
C10   C     C_R   0.567602 0.076260 0.862573 -0.085227
C11   C     C_R   0.522727 0.963586 0.875534 -0.072030
C12   C     C_R   0.338388 0.499520 0.499689 0.878317
C13   C     C_R   0.492525 0.898569 0.760523 -0.110145
C14   C     C_R   0.508115 0.945353 0.629854 0.098309
C15   C     C_R   0.537313 0.069359 0.620962 0.041587
C16   C     C_R   0.526928 0.129685 0.496986 -0.210969
C17   C     C_R   0.516744 0.059248 0.376350 0.387682
C18   C     C_R   0.502787 0.933176 0.382808 -0.255713
C19   C     C_R   0.497037 0.875040 0.507266 -0.198652
C20   C     C_R   0.387455 0.338066 0.135359 -0.057833
C21   C     C_R   0.332052 0.257660 0.062957 -0.163391
C22   C     C_R   0.331948 0.257255 0.923315 -0.150491
C23   C     C_R   0.496199 0.740482 0.502304 0.915914
C24   C     C_R   0.387189 0.337306 0.855243 -0.103415
C25   C     C_R   0.444276 0.420191 0.925245 0.071285
C26   C     C_R   0.444355 0.420350 0.069849 0.158271
C27   C     C_R   0.553619 0.575561 0.074556 -0.164078
C28   C     C_R   0.554061 0.575362 0.931679 0.397463
C29   C     C_R   0.661638 0.500240 0.500356 0.918915
C30   C     C_3   0.049124 0.474435 0.647262 0.252062
C31   C     C_3   0.045801 0.392674 0.404118 -0.363058
C32   C     C_3   0.947709 0.392677 0.405453 -0.384400
C33   C     C_1   0.750563 0.499088 0.501325 -0.139311
C34   C     C_3   0.082569 0.495966 0.501818 0.256122
H1    H     H_    0.923992 0.382300 0.681617 0.217016
H2    H     H_    0.073100 0.552363 0.714772 0.114747
H3    H     H_    0.928464 0.546504 0.717985 0.162163
H4    H     H_    0.929927 0.643579 0.352092 0.190710
H5    H     H_    0.609162 0.218037 0.729976 0.164633
H6    H     H_    0.595134 0.124331 0.950210 0.198152
H7    H     H_    0.512815 0.925011 0.974369 0.174475
H8    H     H_    0.455322 0.814270 0.777237 0.166375
H9    H     H_    0.496775 0.880634 0.288298 0.201832
H10   H     H_    0.597364 0.637062 0.131040 0.182603
H11   H     H_    0.384934 0.331603 0.242266 0.203338
H12   H     H_    0.289265 0.194829 0.115695 0.154660
H13   H     H_    0.288893 0.194331 0.867160 0.173604
H14   H     H_    0.383256 0.330917 0.748148 0.208090
H15   H     H_    0.068715 0.409009 0.299745 0.174396
H16   H     H_    0.067827 0.299602 0.433356 0.214614
H17   H     H_    0.922288 0.300266 0.438136 0.188694
H18   H     H_    0.923417 0.407152 0.301425 0.183924
H19   H     H_    0.078020 0.700052 0.521824 0.179366
H20   H     H_    0.075183 0.641900 0.350582 0.198647
H21   H     H_    0.932682 0.700627 0.523900 0.187086
N1    N     N_R   0.499210 0.498800 0.142780 -0.138560
N2    N     N_R   0.499180 0.498720 0.857170 -0.156360
O1    O     O_R   0.500000 0.316780 0.614690 -0.660507
O2    O     O_R   0.499990 0.316750 0.385360 -0.576463
O3    O     O_R   0.377150 0.500020 0.614720 -0.632563
O4    O     O_R   0.377140 0.499990 0.385380 -0.644191
O5    O     O_R   0.500010 0.683250 0.614640 -0.590383
O6    O     O_R   0.500000 0.683220 0.385310 -0.626762
O7    O     O_R   0.622860 0.500010 0.614620 -0.564946
O8    O     O_R   0.622850 0.499980 0.385280 -0.609775
Zn1   Zn    Zn3+2 0.500010 0.500020 0.653130 0.977021
Zn2   Zn    Zn3+2 0.499990 0.499980 0.346870 0.969570
Cl1   Cl    Cl    0.525450 0.120098 0.213145 -0.685730
Cl2   Cl    Cl    0.086989 0.333578 0.717542 -0.662185
Cl3   Cl    Cl    0.627972 0.674233 0.852014 -0.607822

loop_
_geom_bond_atom_site_label_1
_geom_bond_atom_site_label_2
_ccdc_geom_bond_type
C2    H1    S    
C19   C23   S    
C32   H17   S    
C2    C3    S    
N1    Zn2   S    
C9    C10   A    
O4    Zn2   S    
C31   C32   S    
C14   C15   A    
C6    C33   T    
C30   H2    S    
N2    Zn1   S    
C8    C12   S    
C3    C6    S    
C5    C34   S    
C23   O6    A    
C17   C18   A    
C9    C15   A    
C29   O7    A    
O3    Zn1   S    
C7    C8    T    
O6    Zn2   S    
C1    C16   S    
C28   N2    A    
C13   C14   A    
C20   C21   A    
C12   O4    A    
C11   C13   A    
C2    H3    S    
O7    Zn1   S    
C16   C17   A    
C20   C26   A    
C31   H15   S    
C29   O8    A    
C15   C16   A    
C14   C19   A    
C5    H19   S    
C13   H8    S    
C4    H4    S    
C21   C22   A    
C11   H7    S    
C22   C24   A    
C1    O2    A    
C4    H21   S    
C3    C32   S    
C7    C34   S    
C22   H13   S    
C31   C34   S    
C10   C11   A    
C30   C34   S    
C31   H16   S    
C3    C4    S    
C24   H14   S    
C29   C33   S    
C25   N2    A    
C9    H5    S    
C30   Cl2   S    
C2    C30   S    
C24   C25   A    
C10   H6    S    
C21   H12   S    
C18   H9    S    
C27   C28   A    
C18   C19   A    
O5    Zn1   S    
C27   N1    A    
C32   H18   S    
C17   Cl1   S    
C5    H20   S    
O2    Zn2   S    
C25   C26   A    
C1    O1    A    
C27   H10   S    
O1    Zn1   S    
C23   O5    A    
C28   Cl3   S    
C20   H11   S    
C26   N1    A    
C4    C5    S    
O8    Zn2   S    
C12   O3    A    
