data_mof_unit_60727.cif
_audit_creation_date              2012-12-10T19:39:15-0500
_audit_creation_method            fapswitch 2.2
_symmetry_space_group_name_H-M    P1
_symmetry_Int_Tables_number       1
_space_group_crystal_system       triclinic
_cell_length_a                    21.635354
_cell_length_b                    21.635298
_cell_length_c                    55.747322
_cell_angle_alpha                 89.997638
_cell_angle_beta                  89.997722
_cell_angle_gamma                 89.999346
_cell_volume                      26094.6151279

loop_
_atom_site_label
_atom_site_type_symbol
_atom_type_description
_atom_site_fract_x
_atom_site_fract_y
_atom_site_fract_z
_atom_type_partial_charge
C1    C     C_R   0.499816 0.380069 0.499866 0.882894
C2    C     C_R   0.536772 0.219058 0.514744 0.093216
C3    C     C_R   0.476308 0.109425 0.300851 -0.136255
C4    C     C_R   0.461387 0.894816 0.801149 -0.134994
C5    C     C_R   0.105196 0.461397 0.801145 -0.134994
C6    C     C_R   0.538564 0.105203 0.801143 -0.134995
C7    C     C_R   0.894817 0.538598 0.801147 -0.134994
C8    C     C_R   0.945462 0.486749 0.313358 -0.022955
C9    C     C_R   0.512108 0.945181 0.313361 -0.023029
C10   C     C_R   0.054547 0.513289 0.313356 -0.022954
C11   C     C_R   0.487921 0.054815 0.313359 -0.023029
C12   C     C_R   0.480290 0.947406 0.813700 -0.020093
C13   C     C_R   0.780938 0.536768 0.514745 0.093202
C14   C     C_R   0.052608 0.480306 0.813697 -0.020092
C15   C     C_R   0.519664 0.052613 0.813697 -0.020092
C16   C     C_R   0.947405 0.519691 0.813699 -0.020093
C17   C     C_R   0.000005 0.500020 0.300570 -0.050110
C18   C     C_R   0.500015 0.999998 0.300573 -0.050088
C19   C     C_R   0.499976 0.000009 0.800971 -0.052361
C20   C     C_R   0.000006 0.499998 0.800971 -0.052361
C21   C     C_R   0.549953 0.026442 0.586464 -0.051719
C22   C     C_R   0.973553 0.549954 0.586464 -0.051720
C23   C     C_R   0.450033 0.973556 0.586464 -0.051717
C24   C     C_R   0.463223 0.780939 0.514743 0.093218
C25   C     C_R   0.026445 0.450035 0.586463 -0.051720
C26   C     C_R   0.032442 0.453770 0.085831 -0.050055
C27   C     C_R   0.546626 0.031874 0.085818 -0.050039
C28   C     C_R   0.967556 0.546242 0.085828 -0.050100
C29   C     C_R   0.453381 0.968114 0.085821 -0.050044
C30   C     C_R   0.946450 0.487043 0.338516 0.504800
C31   C     C_R   0.511845 0.946180 0.338520 0.504853
C32   C     C_R   0.053558 0.512991 0.338514 0.504801
C33   C     C_R   0.488182 0.053817 0.338518 0.504852
C34   C     C_R   0.479366 0.948858 0.838820 0.503594
C35   C     C_R   0.719029 0.964084 0.015057 0.101822
C36   C     C_R   0.051156 0.479379 0.838818 0.503595
C37   C     C_R   0.520595 0.051160 0.838817 0.503595
C38   C     C_R   0.948858 0.520620 0.838819 0.503594
C39   C     C_R   0.488934 0.944053 0.737632 0.044642
C40   C     C_R   0.055957 0.488950 0.737630 0.044641
C41   C     C_R   0.511012 0.055963 0.737630 0.044642
C42   C     C_R   0.944050 0.511037 0.737632 0.044641
C43   C     C_R   0.945415 0.483158 0.237010 0.044289
C44   C     C_R   0.515691 0.945051 0.237012 0.044281
C45   C     C_R   0.054598 0.516888 0.237008 0.044289
C46   C     C_R   0.035969 0.719031 0.015036 0.101552
C47   C     C_R   0.484335 0.054941 0.237010 0.044281
C48   C     C_R   0.499974 0.000007 0.725059 0.073867
C49   C     C_R   0.000003 0.499992 0.725059 0.073869
C50   C     C_R   0.000007 0.500023 0.224425 0.072891
C51   C     C_R   0.500012 0.999995 0.224427 0.072889
C52   C     C_R   0.004763 0.555837 0.388709 -0.102538
C53   C     C_R   0.444235 0.005348 0.388707 -0.102755
C54   C     C_R   0.995244 0.444183 0.388708 -0.102538
C55   C     C_R   0.555782 0.994650 0.388707 -0.102752
C56   C     C_R   0.467712 0.045874 0.889235 -0.093995
C57   C     C_R   0.280967 0.035939 0.015046 0.101833
C58   C     C_R   0.954137 0.467725 0.889235 -0.093995
C59   C     C_R   0.532269 0.954140 0.889233 -0.093996
C60   C     C_R   0.045876 0.532272 0.889233 -0.093993
C61   C     C_R   0.516334 0.111372 0.724344 -0.213839
C62   C     C_R   0.888639 0.516360 0.724349 -0.213840
C63   C     C_R   0.483613 0.888643 0.724349 -0.213839
C64   C     C_R   0.111366 0.483624 0.724345 -0.213840
C65   C     C_R   0.106806 0.535697 0.223535 -0.210784
C66   C     C_R   0.466659 0.107543 0.223537 -0.210805
C67   C     C_R   0.893208 0.464349 0.223538 -0.210785
C68   C     C_R   0.964027 0.280966 0.015035 0.101559
C69   C     C_R   0.533366 0.892448 0.223540 -0.210805
C70   C     C_R   0.513746 0.111207 0.699461 -0.134088
C71   C     C_R   0.888802 0.513768 0.699465 -0.134088
C72   C     C_R   0.486204 0.888805 0.699466 -0.134088
C73   C     C_R   0.111202 0.486213 0.699461 -0.134088
C74   C     C_R   0.106061 0.535929 0.198645 -0.134891
C75   C     C_R   0.466406 0.106800 0.198647 -0.134872
C76   C     C_R   0.893954 0.464118 0.198648 -0.134890
C77   C     C_R   0.533615 0.893189 0.198650 -0.134872
C78   C     C_R   0.506515 0.055794 0.686910 -0.022736
C79   C     C_3   0.214340 0.416934 0.534465 -0.494659
C80   C     C_R   0.944214 0.506532 0.686913 -0.022736
C81   C     C_R   0.493439 0.944217 0.686913 -0.022737
C82   C     C_R   0.055789 0.493449 0.686911 -0.022735
C83   C     C_R   0.053248 0.517824 0.186139 -0.026684
C84   C     C_R   0.483364 0.053606 0.186140 -0.026656
C85   C     C_R   0.946767 0.482224 0.186141 -0.026682
C86   C     C_R   0.516656 0.946382 0.186141 -0.026656
C87   C     C_R   0.499976 0.000006 0.699639 -0.052435
C88   C     C_R   0.000002 0.499991 0.699639 -0.052436
C89   C     C_R   0.000008 0.500024 0.198926 -0.049826
C90   C     C_3   0.583067 0.214339 0.534462 -0.494650
C91   C     C_R   0.500011 0.999994 0.198927 -0.049834
C92   C     C_R   0.494924 0.945085 0.661794 0.510221
C93   C     C_R   0.054919 0.494931 0.661791 0.510221
C94   C     C_R   0.505036 0.054923 0.661791 0.510222
C95   C     C_R   0.945082 0.505049 0.661793 0.510220
C96   C     C_R   0.947758 0.482522 0.160983 0.511292
C97   C     C_R   0.516383 0.947378 0.160983 0.511252
C98   C     C_R   0.052259 0.517526 0.160981 0.511294
C99   C     C_R   0.483633 0.052607 0.160982 0.511253
C100  C     C_R   0.000001 0.500005 0.426407 -0.043495
C101  C     C_3   0.785652 0.583047 0.534468 -0.494679
C102  C     C_R   0.500004 1.000000 0.426406 -0.043374
C103  C     C_R   0.499997 0.000004 0.926744 -0.033164
C104  C     C_R   0.000004 0.499999 0.926744 -0.033179
C105  C     C_R   0.281027 0.464523 0.515195 0.079902
C106  C     C_R   0.535476 0.281027 0.515194 0.079905
C107  C     C_R   0.718970 0.535473 0.515194 0.079909
C108  C     C_R   0.464517 0.718970 0.515191 0.079907
C109  C     C_R   0.780996 0.965433 0.015498 0.082180
C110  C     C_R   0.034622 0.780998 0.015478 0.082063
C111  C     C_R   0.219000 0.034593 0.015487 0.082154
C112  C     C_R   0.619931 0.499817 0.499865 0.882894
C113  C     C_3   0.416929 0.785653 0.534462 -0.494656
C114  C     C_R   0.965373 0.218999 0.015476 0.082064
C115  C     C_R   0.314565 0.501340 0.499669 -0.096512
C116  C     C_R   0.498659 0.314565 0.499670 -0.096489
C117  C     C_R   0.685435 0.498663 0.499667 -0.096521
C118  C     C_R   0.501337 0.685435 0.499667 -0.096487
C119  C     C_R   0.814535 0.001476 0.999696 -0.097788
C120  C     C_R   0.998524 0.814537 0.999696 -0.097702
C121  C     C_R   0.185464 0.998529 0.999694 -0.097772
C122  C     C_R   0.001471 0.185462 0.999693 -0.097712
C123  C     C_R   0.282338 0.539157 0.483357 -0.176854
C124  C     C_3   0.714311 0.918571 0.035047 -0.507386
C125  C     C_R   0.460842 0.282339 0.483359 -0.176838
C126  C     C_R   0.717666 0.460855 0.483353 -0.176857
C127  C     C_R   0.539156 0.717665 0.483355 -0.176853
C128  C     C_R   0.782281 0.038610 0.983154 -0.180602
C129  C     C_R   0.961338 0.782285 0.983173 -0.180645
C130  C     C_R   0.217721 0.961374 0.983160 -0.180598
C131  C     C_R   0.038656 0.217718 0.983169 -0.180626
C132  C     C_R   0.217584 0.539456 0.483493 -0.196580
C133  C     C_R   0.460543 0.217585 0.483494 -0.196575
C134  C     C_R   0.782420 0.460556 0.483489 -0.196586
C135  C     C_3   0.081544 0.714311 0.035003 -0.507252
C136  C     C_R   0.539457 0.782419 0.483492 -0.196574
C137  C     C_R   0.717525 0.038878 0.983290 -0.199328
C138  C     C_R   0.961069 0.717530 0.983309 -0.199249
C139  C     C_R   0.282477 0.961104 0.983296 -0.199307
C140  C     C_R   0.038927 0.282474 0.983305 -0.199243
C141  C     C_R   0.185481 0.500421 0.499391 -0.080562
C142  C     C_R   0.499577 0.185481 0.499391 -0.080519
C143  C     C_R   0.814519 0.499580 0.499389 -0.080555
C144  C     C_R   0.500422 0.814519 0.499390 -0.080516
C145  C     C_R   0.685451 0.000493 0.999429 -0.075812
C146  C     C_3   0.285681 0.081475 0.035027 -0.507351
C147  C     C_R   0.999506 0.685453 0.999428 -0.075981
C148  C     C_R   0.314548 0.999507 0.999428 -0.075847
C149  C     C_R   0.000493 0.314547 0.999427 -0.075981
C150  C     C_1   0.314567 0.360383 0.526855 0.224352
C151  C     C_1   0.639615 0.314566 0.526850 0.224387
C152  C     C_1   0.685428 0.639604 0.526862 0.224362
C153  C     C_1   0.360378 0.685430 0.526852 0.224387
C154  C     C_1   0.814639 0.861816 0.027785 0.222904
C155  C     C_1   0.138277 0.814639 0.027714 0.222993
C156  C     C_1   0.185359 0.138227 0.027751 0.222893
C157  C     C_3   0.918456 0.285680 0.035005 -0.507258
C158  C     C_1   0.861720 0.185355 0.027718 0.222991
C159  C     C_1   0.601262 0.056945 0.574809 0.208368
C160  C     C_1   0.943044 0.601258 0.574810 0.208372
C161  C     C_1   0.398730 0.943050 0.574810 0.208371
C162  C     C_1   0.056951 0.398731 0.574809 0.208368
C163  C     C_1   0.064338 0.404270 0.073587 0.179153
C164  C     C_1   0.596468 0.063204 0.073560 0.178257
C165  C     C_1   0.935629 0.595717 0.073580 0.179182
C166  C     C_1   0.403538 0.936785 0.073566 0.178276
C167  C     C_3   0.285743 0.418328 0.534932 -0.215271
C168  C     C_3   0.581672 0.285742 0.534929 -0.215297
C169  C     C_3   0.714249 0.581653 0.534935 -0.215259
C170  C     C_3   0.418323 0.714250 0.534929 -0.215293
C171  C     C_3   0.785721 0.920037 0.035513 -0.212713
C172  C     C_R   0.500183 0.619931 0.499865 0.882892
C173  C     C_3   0.080079 0.785722 0.035471 -0.212755
C174  C     C_3   0.214270 0.080013 0.035493 -0.212733
C175  C     C_3   0.919920 0.214269 0.035472 -0.212751
C176  C     C_R   0.499987 0.000002 0.624002 0.271444
C177  C     C_R   1.000000 0.499992 0.624002 0.271438
C178  C     C_R   0.000010 0.500021 0.123341 0.284301
C179  C     C_R   0.500006 0.999992 0.123334 0.283656
C180  C     C_R   0.549836 0.025259 0.611458 -0.137141
C181  C     C_R   0.974738 0.549839 0.611458 -0.137140
C182  C     C_R   0.450142 0.974743 0.611458 -0.137139
C183  C     C_R   0.380069 0.500183 0.499866 0.882889
C184  C     C_R   0.025260 0.450147 0.611458 -0.137136
C185  C     C_R   0.032274 0.454213 0.110862 -0.135636
C186  C     C_R   0.546203 0.031695 0.110849 -0.135265
C187  C     C_R   0.967739 0.545818 0.110859 -0.135635
C188  C     C_R   0.453808 0.968291 0.110852 -0.135263
C189  C     C_R   0.000004 0.500012 0.376173 0.317219
C190  C     C_R   0.500010 0.999999 0.376173 0.317815
C191  C     C_R   0.499988 0.000008 0.876614 0.296684
C192  C     C_R   0.000007 0.499999 0.876614 0.296684
C193  C     C_R   0.004663 0.555914 0.413697 -0.211957
C194  C     C_R   0.999765 0.880060 0.999869 0.884068
C195  C     C_R   0.444149 0.005237 0.413696 -0.211791
C196  C     C_R   0.995341 0.444099 0.413697 -0.211959
C197  C     C_R   0.555863 0.994762 0.413696 -0.211793
C198  C     C_R   0.468442 0.046390 0.914190 -0.217743
C199  C     C_R   0.953617 0.468451 0.914190 -0.217733
C200  C     C_R   0.531547 0.953620 0.914188 -0.217744
C201  C     C_R   0.046393 0.531546 0.914188 -0.217738
C202  C     C_R   0.000000 0.500001 0.452769 0.867481
C203  C     C_R   0.500001 0.000000 0.452768 0.867405
C204  C     C_R   0.500000 0.000001 0.952885 0.861869
C205  C     C_R   0.119941 0.999766 0.999868 0.884067
C206  C     C_R   0.000001 0.500000 0.952885 0.861901
C207  C     C_R   0.120033 0.500029 0.499893 0.884947
C208  C     C_R   0.499970 0.120033 0.499893 0.884942
C209  C     C_R   0.879967 0.499971 0.499893 0.884946
C210  C     C_R   0.500029 0.879967 0.499893 0.884941
C211  C     C_R   0.620023 0.000040 0.999911 0.883755
C212  C     C_R   0.999959 0.620024 0.999910 0.883645
C213  C     C_R   0.379977 0.999960 0.999910 0.883758
C214  C     C_R   0.000040 0.379976 0.999910 0.883648
C215  C     C_R   1.000000 0.499999 0.546976 0.869844
C216  C     C_R   0.000235 0.119940 0.999868 0.884064
C217  C     C_R   0.499999 0.999999 0.546976 0.869835
C218  C     C_R   0.500000 0.999999 0.046822 0.875658
C219  C     C_R   0.999999 0.500000 0.046825 0.875345
C220  C     C_R   0.499995 0.999999 0.573521 -0.142617
C221  C     C_R   0.999999 0.499996 0.573521 -0.142618
C222  C     C_R   0.999998 0.500003 0.073117 -0.125883
C223  C     C_R   0.500003 0.999996 0.073110 -0.125444
C224  C     C_R   0.944817 0.485229 0.262488 0.044469
C225  C     C_R   0.513607 0.944499 0.262490 0.044460
C226  C     C_R   0.055195 0.514814 0.262486 0.044468
C227  C     C_R   0.880059 0.000236 0.999869 0.884066
C228  C     C_R   0.486421 0.055494 0.262488 0.044460
C229  C     C_R   0.484211 0.945197 0.762980 0.044596
C230  C     C_R   0.054815 0.484228 0.762978 0.044596
C231  C     C_R   0.515735 0.054821 0.762977 0.044596
C232  C     C_R   0.945194 0.515762 0.762979 0.044596
C233  C     C_R   0.000005 0.500021 0.275071 0.072028
C234  C     C_R   0.500014 0.999997 0.275074 0.072040
C235  C     C_R   0.499974 0.000009 0.775551 0.073027
C236  C     C_R   0.000005 0.499996 0.775551 0.073028
C237  C     C_R   0.890610 0.473353 0.275961 -0.211428
C238  C     C_R   0.219059 0.463227 0.514745 0.093204
C239  C     C_R   0.524306 0.890049 0.275964 -0.211416
C240  C     C_R   0.109401 0.526690 0.275958 -0.211428
C241  C     C_R   0.475723 0.109946 0.275960 -0.211417
C242  C     C_R   0.463613 0.893486 0.776266 -0.214400
C243  C     C_R   0.106526 0.463624 0.776261 -0.214402
C244  C     C_R   0.536334 0.106533 0.776260 -0.214400
C245  C     C_R   0.893484 0.536368 0.776264 -0.214402
C246  C     C_R   0.891117 0.473955 0.300851 -0.136255
C247  C     C_R   0.523722 0.890570 0.300854 -0.136254
C248  C     C_R   0.108893 0.526085 0.300848 -0.136255
H1    H     H_    0.848371 0.464386 0.310274 0.190639
H2    H     H_    0.955372 0.588440 0.621335 0.158633
H3    H     H_    0.411538 0.955378 0.621335 0.158629
H4    H     H_    0.044626 0.411543 0.621334 0.158634
H5    H     H_    0.056734 0.418710 0.120776 0.146724
H6    H     H_    0.582011 0.055716 0.120758 0.147019
H7    H     H_    0.943277 0.581325 0.120770 0.146728
H8    H     H_    0.418001 0.944268 0.120763 0.147021
H9    H     H_    0.008378 0.599649 0.423032 0.165950
H10   H     H_    0.400454 0.009416 0.423031 0.165825
H11   H     H_    0.991625 0.400361 0.423031 0.165950
H12   H     H_    0.532362 0.847627 0.310278 0.190622
H13   H     H_    0.599555 0.990583 0.423032 0.165825
H14   H     H_    0.443481 0.082246 0.923685 0.159479
H15   H     H_    0.917757 0.443492 0.923685 0.159484
H16   H     H_    0.556512 0.917763 0.923681 0.159478
H17   H     H_    0.082251 0.556505 0.923682 0.159483
H18   H     H_    0.192858 0.569174 0.471139 0.160468
H19   H     H_    0.430825 0.192859 0.471141 0.160385
H20   H     H_    0.807149 0.430844 0.471133 0.160466
H21   H     H_    0.569177 0.807148 0.471139 0.160384
H22   H     H_    0.692774 0.068030 0.970742 0.160855
H23   H     H_    0.151639 0.535652 0.310270 0.190639
H24   H     H_    0.931876 0.692780 0.970776 0.160899
H25   H     H_    0.307231 0.931935 0.970755 0.160874
H26   H     H_    0.068120 0.307227 0.970771 0.160896
H27   H     H_    0.192896 0.436905 0.550844 0.202884
H28   H     H_    0.563097 0.192894 0.550841 0.202879
H29   H     H_    0.807092 0.563063 0.550846 0.202881
H30   H     H_    0.436901 0.807092 0.550841 0.202877
H31   H     H_    0.692791 0.939167 0.051297 0.201956
H32   H     H_    0.060999 0.692790 0.051263 0.201841
H33   H     H_    0.307196 0.060897 0.051282 0.201950
H34   H     H_    0.467668 0.152369 0.310273 0.190622
H35   H     H_    0.939005 0.307195 0.051264 0.201848
H36   H     H_    0.193657 0.372684 0.528224 0.221732
H37   H     H_    0.627317 0.193655 0.528219 0.221744
H38   H     H_    0.806338 0.627301 0.528231 0.221735
H39   H     H_    0.372680 0.806340 0.528222 0.221745
H40   H     H_    0.693685 0.874065 0.029058 0.216613
H41   H     H_    0.126032 0.693686 0.028992 0.216664
H42   H     H_    0.306311 0.125973 0.029029 0.216612
H43   H     H_    0.873968 0.306309 0.028997 0.216662
H44   H     H_    0.305967 0.437671 0.551648 0.170352
H45   H     H_    0.445094 0.854085 0.810523 0.190770
H46   H     H_    0.562328 0.305965 0.551646 0.170351
H47   H     H_    0.694020 0.562297 0.551649 0.170352
H48   H     H_    0.437667 0.694021 0.551644 0.170352
H49   H     H_    0.805918 0.940073 0.052111 0.169129
H50   H     H_    0.060094 0.805917 0.052079 0.169115
H51   H     H_    0.194068 0.059997 0.052095 0.169132
H52   H     H_    0.939908 0.194068 0.052078 0.169115
H53   H     H_    0.517877 0.154880 0.690086 0.190602
H54   H     H_    0.845128 0.517901 0.690093 0.190602
H55   H     H_    0.482075 0.845131 0.690094 0.190602
H56   H     H_    0.145925 0.445100 0.810517 0.190770
H57   H     H_    0.154875 0.482080 0.690087 0.190602
H58   H     H_    0.147338 0.550587 0.189220 0.191281
H59   H     H_    0.452643 0.148384 0.189223 0.191298
H60   H     H_    0.852678 0.449460 0.189225 0.191282
H61   H     H_    0.547377 0.851604 0.189227 0.191298
H62   H     H_    0.846353 0.464273 0.267904 0.143861
H63   H     H_    0.532421 0.845603 0.267907 0.143854
H64   H     H_    0.153659 0.535771 0.267900 0.143861
H65   H     H_    0.467608 0.154391 0.267902 0.143855
H66   H     H_    0.447070 0.851742 0.767896 0.145393
H67   H     H_    0.554858 0.145934 0.810515 0.190770
H68   H     H_    0.148268 0.447078 0.767890 0.145394
H69   H     H_    0.552874 0.148277 0.767888 0.145393
H70   H     H_    0.851742 0.552914 0.767894 0.145395
H71   H     H_    0.008351 0.599118 0.379052 0.142041
H72   H     H_    0.401001 0.009403 0.379048 0.141666
H73   H     H_    0.991657 0.400905 0.379051 0.142040
H74   H     H_    0.599019 0.990595 0.379048 0.141667
H75   H     H_    0.442093 0.081134 0.879686 0.154552
H76   H     H_    0.918875 0.442112 0.879685 0.154550
H77   H     H_    0.557885 0.918881 0.879682 0.154550
H78   H     H_    0.854087 0.554897 0.810520 0.190770
H79   H     H_    0.081139 0.557885 0.879682 0.154552
H80   H     H_    0.520706 0.156061 0.732714 0.145113
H81   H     H_    0.843952 0.520736 0.732721 0.145114
H82   H     H_    0.479240 0.843955 0.732721 0.145113
H83   H     H_    0.156055 0.479250 0.732715 0.145114
H84   H     H_    0.149101 0.551580 0.231592 0.143921
H85   H     H_    0.451696 0.150173 0.231594 0.143928
H86   H     H_    0.850913 0.448465 0.231597 0.143921
H87   H     H_    0.548330 0.849818 0.231599 0.143928
H88   H     H_    0.306957 0.568813 0.470949 0.164007
H89   H     H_    0.588437 0.044624 0.621334 0.158628
H90   H     H_    0.431186 0.306958 0.470951 0.163969
H91   H     H_    0.693050 0.431206 0.470943 0.164014
H92   H     H_    0.568814 0.693048 0.470948 0.163966
H93   H     H_    0.806874 0.067722 0.970546 0.163376
H94   H     H_    0.932185 0.806881 0.970581 0.163335
H95   H     H_    0.193130 0.932246 0.970559 0.163365
H96   H     H_    0.067808 0.193126 0.970575 0.163338
N1    N     N_R   0.499982 0.000003 0.649740 -0.345485
N2    N     N_1   0.685185 0.337301 0.520502 -0.201125
N3    N     N_1   0.662696 0.685179 0.520519 -0.201153
N4    N     N_1   0.314807 0.662699 0.520505 -0.201123
N5    N     N_1   0.837469 0.816045 0.021709 -0.194221
N6    N     N_1   0.184029 0.837467 0.021617 -0.194169
N7    N     N_1   0.162534 0.183991 0.021666 -0.194234
N8    N     N_1   0.815967 0.162529 0.021623 -0.194156
N9    N     N_1   0.642392 0.081414 0.565530 -0.198223
N10   N     N_1   0.918571 0.642386 0.565531 -0.198230
N11   N     N_1   0.357604 0.918579 0.565531 -0.198225
N12   N     N_R   0.000000 0.499990 0.649740 -0.345483
N13   N     N_1   0.081423 0.357604 0.565530 -0.198233
N14   N     N_1   0.089761 0.364602 0.063755 -0.182232
N15   N     N_1   0.636405 0.088175 0.063717 -0.182624
N16   N     N_1   0.910178 0.635362 0.063744 -0.182193
N17   N     N_1   0.363600 0.911814 0.063726 -0.182621
N18   N     N_R   0.000009 0.500024 0.149004 -0.349428
N19   N     N_R   0.500007 0.999992 0.149001 -0.349344
N20   N     N_R   0.000004 0.500015 0.350502 -0.355903
N21   N     N_R   0.500013 0.999999 0.350504 -0.356006
N22   N     N_R   0.499983 0.000009 0.850875 -0.352823
N23   N     N_R   0.000007 0.499999 0.850875 -0.352823
N24   N     N_1   0.337301 0.314813 0.520509 -0.201159
O1    O     O_R   0.500120 0.408340 0.520000 -0.623722
O2    O     O_R   0.591600 0.500100 0.479780 -0.622474
O3    O     O_R   0.499900 0.591600 0.479780 -0.622462
O4    O     O_R   0.408400 0.499900 0.479780 -0.622472
O5    O     O_R   0.000100 0.908400 0.979780 -0.623949
O6    O     O_R   0.091600 0.000100 0.979780 -0.623963
O7    O     O_R   0.999900 0.091600 0.979780 -0.623950
O8    O     O_R   0.908400 0.999900 0.979780 -0.623967
O9    O     O_2   0.491850 0.891413 0.649503 -0.564500
O10   O     O_2   0.108590 0.491852 0.649498 -0.564503
O11   O     O_2   0.508114 0.108593 0.649497 -0.564500
O12   O     O_R   0.591660 0.500120 0.520000 -0.623720
O13   O     O_2   0.891411 0.508127 0.649502 -0.564502
O14   O     O_2   0.897097 0.465155 0.148563 -0.554858
O15   O     O_2   0.532674 0.896355 0.148566 -0.554905
O16   O     O_2   0.102922 0.534892 0.148560 -0.554857
O17   O     O_2   0.467340 0.103630 0.148563 -0.554905
O18   O     O_R   0.000080 0.551700 0.464240 -0.626253
O19   O     O_R   0.448300 0.000080 0.464240 -0.626211
O20   O     O_R   0.999920 0.448300 0.464240 -0.626251
O21   O     O_R   0.551700 0.999920 0.464240 -0.626214
O22   O     O_R   0.500080 0.051700 0.964240 -0.621851
O23   O     O_R   0.499880 0.591660 0.520000 -0.623721
O24   O     O_R   0.948300 0.500080 0.964240 -0.621837
O25   O     O_R   0.499920 0.948300 0.964240 -0.621847
O26   O     O_R   0.051700 0.499920 0.964240 -0.621840
O27   O     O_R   0.091720 0.551710 0.499860 -0.619751
O28   O     O_R   0.448290 0.091720 0.499860 -0.619809
O29   O     O_R   0.908280 0.448290 0.499860 -0.619750
O30   O     O_R   0.551710 0.908280 0.499860 -0.619810
O31   O     O_R   0.591720 0.051710 0.999860 -0.612540
O32   O     O_R   0.948290 0.591720 0.999860 -0.612575
O33   O     O_R   0.408280 0.948290 0.999860 -0.612548
O34   O     O_R   0.408340 0.499880 0.520000 -0.623718
O35   O     O_R   0.051710 0.408280 0.999860 -0.612574
O36   O     O_R   0.091720 0.448270 0.499890 -0.616681
O37   O     O_R   0.551730 0.091720 0.499890 -0.616626
O38   O     O_R   0.908280 0.551730 0.499890 -0.616681
O39   O     O_R   0.448270 0.908280 0.499890 -0.616625
O40   O     O_R   0.591720 0.948270 0.999890 -0.624152
O41   O     O_R   0.051730 0.591720 0.999890 -0.624086
O42   O     O_R   0.408280 0.051730 0.999890 -0.624153
O43   O     O_R   0.948270 0.408280 0.999890 -0.624087
O44   O     O_R   0.000130 0.551710 0.535480 -0.609162
O45   O     O_R   0.000120 0.908340 0.020000 -0.623663
O46   O     O_R   0.448290 0.000130 0.535480 -0.609167
O47   O     O_R   0.999870 0.448290 0.535480 -0.609165
O48   O     O_R   0.551710 0.999870 0.535480 -0.609165
O49   O     O_R   0.500130 0.051710 0.035480 -0.609563
O50   O     O_R   0.948290 0.500130 0.035480 -0.609562
O51   O     O_R   0.499870 0.948290 0.035480 -0.609567
O52   O     O_R   0.051710 0.499870 0.035480 -0.609563
O53   O     O_2   0.894283 0.474857 0.350928 -0.559038
O54   O     O_2   0.522941 0.893775 0.350935 -0.558858
O55   O     O_2   0.105725 0.525175 0.350925 -0.559038
O56   O     O_R   0.091660 0.000120 0.020000 -0.623662
O57   O     O_2   0.477086 0.106222 0.350931 -0.558857
O58   O     O_2   0.457523 0.899726 0.851106 -0.563979
O59   O     O_2   0.100286 0.457529 0.851102 -0.563979
O60   O     O_2   0.542441 0.100292 0.851100 -0.563980
O61   O     O_2   0.899729 0.542472 0.851104 -0.563978
O62   O     O_R   0.999880 0.091660 0.020000 -0.623670
O63   O     O_R   0.908340 0.999880 0.020000 -0.623667
O64   O     O_R   0.500100 0.408400 0.479780 -0.622461
Zn1   Zn    Zn3+2 0.500000 0.500000 0.526750 0.965794
Zn2   Zn    Zn3+2 0.930950 0.500100 0.999850 0.988965
Zn3   Zn    Zn3+2 0.499900 0.930950 0.999850 0.988963
Zn4   Zn    Zn3+2 0.069050 0.499900 0.999850 0.988962
Zn5   Zn    Zn3+2 0.000000 0.000000 0.026750 0.962711
Zn6   Zn    Zn3+2 0.500000 0.500000 0.473040 0.976765
Zn7   Zn    Zn3+2 1.000000 1.000000 0.973040 0.968710
Zn8   Zn    Zn3+2 0.000100 0.569050 0.499850 0.985952
Zn9   Zn    Zn3+2 0.430950 0.000100 0.499850 0.985969
Zn10  Zn    Zn3+2 0.999900 0.430950 0.499850 0.985953
Zn11  Zn    Zn3+2 0.569050 0.999900 0.499850 0.985968
Zn12  Zn    Zn3+2 0.500100 0.069050 0.999850 0.988962

loop_
_geom_bond_atom_site_label_1
_geom_bond_atom_site_label_2
_ccdc_geom_bond_type
C165  N16   T    
C219  O50   A    
C54   C189  A    
C157  H43   S    
C59   C191  A    
C210  O39   A    
C41   C61   A    
C74   C83   A    
C239  H63   S    
O44   Zn8   S    
C96   O14   S    
C240  H64   S    
C138  H24   S    
O6    Zn7   S    
C177  N12   S    
C176  C182  A    
C226  C233  A    
C135  C173  S    
C61   H80   S    
C58   H76   S    
C35   C124  S    
C186  H6    S    
C22   C181  A    
C85   C96   A    
O24   Zn2   S    
C26   C163  S    
C3    C241  A    
C2    C90   S    
C204  O22   A    
C68   C149  A    
C134  C143  A    
C215  O44   A    
C6    H67   S    
C47   C228  A    
C41   C231  A    
C30   O53   S    
C20   C236  A    
C21   C220  A    
C214  O43   A    
C230  C236  A    
C84   C91   A    
C142  C208  S    
C4    C12   A    
C53   C190  A    
C128  H93   S    
O52   Zn4   S    
C157  H35   S    
C163  N14   T    
C119  C128  A    
C56   C191  A    
C107  C117  A    
C21   C159  S    
O45   Zn5   S    
C36   N23   A    
C215  C221  S    
C209  O29   A    
C64   H83   S    
C56   C198  A    
C100  C196  A    
C139  C148  A    
C22   C221  A    
C54   C196  A    
C183  O4    A    
C135  H32   S    
C127  C136  A    
C23   C182  A    
C143  C209  S    
C28   C187  A    
C179  C188  A    
C167  H44   S    
O34   Zn1   S    
C29   C166  S    
C102  C203  S    
C203  O21   A    
C138  C147  A    
C115  C183  S    
C11   C33   A    
C16   C20   A    
C154  N5    T    
C48   C87   A    
C5    C243  A    
C135  H41   S    
C65   H84   S    
O37   Zn11  S    
C46   C110  A    
C58   C192  A    
C225  C239  A    
C70   H53   S    
C102  C197  A    
C147  C212  S    
C227  O63   A    
C205  O6    A    
C107  C169  S    
C101  H29   S    
C194  O45   A    
C207  O27   A    
C18   C234  A    
C39   C229  A    
C113  C170  S    
C177  C184  A    
C27   C223  A    
C8    C17   A    
C34   O58   S    
C29   C188  A    
C210  O30   A    
C86   C91   A    
C98   O16   S    
C130  H95   S    
C80   C88   A    
O18   Zn8   S    
C113  H39   S    
C229  C242  A    
C55   C197  A    
C248  H23   S    
C45   C50   A    
C78   C94   A    
C146  C174  S    
C26   C185  A    
C52   C189  A    
C3    C11   A    
C245  H70   S    
C126  C134  A    
C28   C222  A    
C90   H28   S    
C79   C167  S    
C131  H96   S    
C113  H30   S    
C76   H60   S    
C78   C87   A    
C77   H61   S    
C11   C18   A    
C108  C170  S    
C123  C132  A    
C95   O13   S    
C69   C77   A    
C71   H54   S    
C121  C130  A    
C128  C137  A    
O26   Zn4   S    
C166  N17   T    
C31   N21   A    
C218  C223  S    
C179  C186  A    
C57   C111  A    
O64   Zn6   S    
C67   H86   S    
C133  C142  A    
C190  N21   S    
C225  C234  A    
C206  O26   A    
O47   Zn10  S    
C160  N10   T    
C35   C145  A    
C180  H89   S    
C75   C84   A    
C33   N21   A    
C66   C75   A    
C40   C49   A    
C232  C236  A    
C55   H74   S    
C179  N19   S    
C86   C97   A    
C15   C37   A    
C36   O59   S    
C30   N20   A    
C81   C92   A    
O35   Zn4   S    
C83   C98   A    
C153  C170  S    
C101  H38   S    
C64   C73   A    
C131  C140  A    
C99   N19   A    
C218  O51   A    
C97   O15   S    
O41   Zn4   S    
C92   O9    S    
C6    C244  A    
C164  N15   T    
O62   Zn5   S    
C4    C242  A    
C133  H19   S    
C3    H34   S    
C83   C89   A    
C58   C199  A    
C120  C129  A    
O22   Zn12  S    
C188  H8    S    
C4    H45   S    
O23   Zn1   S    
C32   O55   S    
O20   Zn10  S    
C99   O17   S    
O42   Zn12  S    
C2    C106  A    
C65   C74   A    
C13   C101  S    
C196  H11   S    
C244  H69   S    
C1    O64   A    
C207  O36   A    
O25   Zn3   S    
C59   C200  A    
C60   C192  A    
C241  H65   S    
O33   Zn3   S    
C80   C95   A    
O32   Zn2   S    
C116  C125  A    
C45   C65   A    
C2    C142  A    
C53   H72   S    
C118  C127  A    
C122  C131  A    
C212  O41   A    
C132  C141  A    
C79   H27   S    
C90   C168  S    
C206  O24   A    
C105  C115  A    
C52   C193  A    
C215  O47   A    
C161  N11   T    
C35   C109  A    
C123  H88   S    
O5    Zn7   S    
C43   C50   A    
C202  O20   A    
C7    C245  A    
C112  C117  S    
C104  C201  A    
C231  C244  A    
C205  O56   A    
C1    O1    A    
C82   C88   A    
C76   C85   A    
C122  C216  S    
C62   C71   A    
C150  N24   T    
C103  C200  A    
O8    Zn7   S    
C8    C246  A    
C9    C18   A    
C176  C180  A    
C216  O62   A    
C43   C67   A    
O56   Zn5   S    
C129  H94   S    
C139  H25   S    
C38   O61   S    
C231  C235  A    
C79   C238  S    
C187  H7    S    
C140  C149  A    
C109  C171  S    
C145  C211  S    
C246  H1    S    
C42   C232  A    
C61   C70   A    
C237  H62   S    
C125  H90   S    
C141  C238  A    
C111  C174  S    
O1    Zn1   S    
C31   O54   S    
C121  C205  S    
C102  C195  A    
C172  O23   A    
C144  C210  S    
C247  H12   S    
C100  C193  A    
C217  C220  S    
C15   C19   A    
O30   Zn11  S    
C93   N12   A    
C156  C174  S    
C201  H17   S    
C59   H77   S    
O28   Zn9   S    
C137  C145  A    
O49   Zn12  S    
C181  H2    S    
C185  H5    S    
C208  O37   A    
C111  C121  A    
C218  O49   A    
O36   Zn10  S    
C239  C247  A    
C96   N18   A    
C103  C204  S    
C155  N6    T    
C197  H13   S    
C51   C91   A    
C46   C135  S    
C100  C202  S    
C94   N1    A    
C228  C241  A    
C52   H71   S    
O4    Zn6   S    
C193  H9    S    
C101  C169  S    
C136  H21   S    
C24   C108  A    
C104  C206  S    
C56   H75   S    
C47   C66   A    
C72   C81   A    
C74   H58   S    
C25   C184  A    
C13   C107  A    
O63   Zn5   S    
C73   H57   S    
C82   C93   A    
C57   C146  S    
C49   C88   A    
C156  N7    T    
C130  C139  A    
C202  O18   A    
C134  H20   S    
C226  C240  A    
C14   C20   A    
C115  C123  A    
C32   N20   A    
C189  N20   S    
C85   C89   A    
C47   C51   A    
C79   H36   S    
C172  O3    A    
C106  C116  A    
C194  O5    A    
C229  C235  A    
C141  C207  S    
C75   H59   S    
C50   C89   A    
C46   C147  A    
C118  C172  S    
C173  H50   S    
C37   O60   S    
C175  H52   S    
C37   N22   A    
C44   C69   A    
C54   H73   S    
C5    C14   A    
C81   C87   A    
C28   C165  S    
C217  O48   A    
C178  C187  A    
C124  H40   S    
C114  C175  S    
C112  O12   A    
C53   C195  A    
C72   H55   S    
C162  N13   T    
C12   C34   A    
C68   C157  S    
O46   Zn9   S    
C127  H92   S    
O3    Zn6   S    
C109  C119  A    
C29   C223  A    
C23   C220  A    
C192  N23   S    
C84   C99   A    
C203  O19   A    
C19   C235  A    
O38   Zn8   S    
C137  H22   S    
C17   C233  A    
C168  H46   S    
C242  H66   S    
C8    C30   A    
C38   N23   A    
C151  N2    T    
C136  C144  A    
C204  O25   A    
C214  O35   A    
C14   C36   A    
C152  C169  S    
C124  C171  S    
C24   C144  A    
C150  C167  S    
C12   C19   A    
C213  O33   A    
C237  C246  A    
C45   C226  A    
C13   C143  A    
C9    C247  A    
O50   Zn2   S    
C200  H16   S    
C212  O32   A    
C132  H18   S    
C60   C201  A    
C63   C72   A    
C57   C148  A    
C240  C248  A    
O48   Zn11  S    
C103  C198  A    
C39   C48   A    
C219  C222  S    
C70   C78   A    
O31   Zn12  S    
C224  C233  A    
C148  C213  S    
C191  N22   S    
C171  H49   S    
C119  C227  S    
C22   C160  S    
C184  H4    S    
C159  N9    T    
C199  H15   S    
C92   N1    A    
C34   N22   A    
C177  C181  A    
C69   H87   S    
C10   C17   A    
C151  C168  S    
C174  H51   S    
C232  C245  A    
C140  H26   S    
C178  N18   S    
C66   H85   S    
C149  C214  S    
C183  O34   A    
C230  C243  A    
C6    C15   A    
C208  O28   A    
C178  C185  A    
C21   C180  A    
C129  C138  A    
C154  C171  S    
C105  C238  A    
C25   C221  A    
C1    C116  S    
C224  C237  A    
C228  C234  A    
C98   N18   A    
O43   Zn2   S    
C155  C173  S    
C24   C113  S    
C243  H68   S    
C7    H78   S    
C169  H47   S    
C71   C80   A    
C124  H31   S    
C170  H48   S    
C126  H91   S    
C219  O52   A    
C97   N19   A    
C55   C190  A    
C108  C118  A    
C211  O40   A    
C110  C120  A    
C198  H14   S    
C9    C31   A    
C44   C225  A    
C158  N8    T    
C227  O8    A    
O2    Zn6   S    
C120  C194  S    
C105  C167  S    
C27   C186  A    
C106  C168  S    
C182  H3    S    
C26   C222  A    
C27   C164  S    
C158  C175  S    
C25   C162  S    
C33   O57   S    
C73   C82   A    
C90   H37   S    
C112  O2    A    
O12   Zn1   S    
O7    Zn7   S    
C211  O31   A    
C146  H33   S    
C157  C175  S    
O19   Zn9   S    
C44   C51   A    
C63   H82   S    
C77   C86   A    
C213  O42   A    
O51   Zn3   S    
C104  C199  A    
C195  H10   S    
C10   C248  A    
C40   C230  A    
C110  C173  S    
C125  C133  A    
O39   Zn9   S    
C42   C62   A    
C7    C16   A    
C153  N4    T    
C62   H81   S    
C67   C76   A    
C39   C63   A    
C40   C64   A    
C94   O11   S    
O40   Zn3   S    
C43   C224  A    
C217  O46   A    
C216  O7    A    
C146  H42   S    
C41   C48   A    
C176  N1    S    
C5    H56   S    
O21   Zn11  S    
C42   C49   A    
C209  O38   A    
C114  C122  A    
C152  N3    T    
C10   C32   A    
C93   O10   S    
C16   C38   A    
C95   N12   A    
C117  C126  A    
O29   Zn10  S    
C60   H79   S    
O27   Zn8   S    
C68   C114  A    
C23   C161  S    
