data_mof_unit_67179.cif
_audit_creation_date              2013-03-05T15:59:00-0500
_audit_creation_method            fapswitch 2.2
_symmetry_space_group_name_H-M    P1
_symmetry_Int_Tables_number       1
_space_group_crystal_system       triclinic
_cell_length_a                    8.399812
_cell_length_b                    12.736467
_cell_length_c                    14.874946
_cell_angle_alpha                 96.52868
_cell_angle_beta                  97.703739
_cell_angle_gamma                 99.022191
_cell_volume                      1542.67926652

loop_
_atom_site_label
_atom_site_type_symbol
_atom_site_description
_atom_site_fract_x
_atom_site_fract_y
_atom_site_fract_z
_atom_type_partial_charge
P1    P     P_3+3 0.998730 0.403530 0.291970 0.466900
O1    O     O_2   0.827880 0.435260 0.277750 -0.403279
O2    O     O_3   0.100280 0.438960 0.391170 -0.363135
O3    O     O_3   0.625580 0.634130 0.333250 -0.361331
O4    O     O_2   0.665913 0.526886 0.176752 -0.385009
O5    O     O_3   0.985232 0.263257 0.274502 -0.573785
O6    O     O_3   0.677364 0.728859 0.175560 -0.535291
H1    H     H_    0.697490 0.861415 0.271373 0.141143
C1    C     C_3   0.610030 0.892144 0.135134 -1.091645
H2    H     H_    0.733639 0.912436 0.116991 0.267357
H3    H     H_    0.526392 0.851099 0.072565 0.260304
P2    P     P_3+3 0.687380 0.751030 0.571310 0.436437
P3    P     P_3+3 0.113106 0.829776 0.385088 0.469593
O7    O     O_2   0.857130 0.766340 0.543890 -0.379521
O8    O     O_3   0.056550 0.691050 0.379010 -0.361255
O9    O     O_2   0.025409 0.881525 0.458337 -0.371915
O10   O     O_3   0.725537 0.784288 0.690018 -0.642858
O11   O     O_3   0.027362 0.872737 0.284724 -0.524965
C2    C     C_3   0.075771 0.818723 0.207823 0.292557
H4    H     H_    0.971754 0.804174 0.151438 0.118646
H5    H     H_    0.105630 0.738325 0.218149 0.061182
C3    C     C_3   0.219904 0.887558 0.177715 -0.461418
H6    H     H_    0.267517 0.837417 0.124989 0.175160
C4    C     C_3   0.205944 0.797833 0.676967 0.585593
H7    H     H_    0.124989 0.753714 0.614986 0.116966
C5    C     C_3   0.128917 0.892723 0.711719 -0.891308
H8    H     H_    0.186111 0.927499 0.782595 0.255140
H9    H     H_    0.143103 0.954638 0.665590 0.266282
H10   H     H_    0.999074 0.868071 0.713874 0.248826
Ba1   Ba    Ba6+2 0.843750 0.550210 0.455600 1.547467
C6    C     C_3   0.826259 0.206918 0.268238 0.676801
H11   H     H_    0.757343 0.249610 0.314375 0.069224
C7    C     C_3   0.836970 0.098355 0.301073 -0.969197
H12   H     H_    0.890022 0.046272 0.252988 0.273302
H13   H     H_    0.713814 0.056893 0.307913 0.204458
H14   H     H_    0.917498 0.109856 0.368083 0.263968
C8    C     C_3   0.768705 0.699449 0.734193 0.268628
H15   H     H_    0.890837 0.685687 0.720909 0.088917
H16   H     H_    0.678705 0.624397 0.711526 0.144334
C9    C     C_3   0.772271 0.733351 0.836301 0.111228
H17   H     H_    0.828914 0.819671 0.854379 0.115717
H18   H     H_    0.643646 0.723552 0.849580 0.088379
P4    P     P_3+3 0.190990 0.596560 0.708040 0.443708
O12   O     O_2   0.361830 0.564780 0.722310 -0.367000
O13   O     O_3   0.089430 0.561130 0.608830 -0.416021
O14   O     O_3   0.564130 0.365960 0.666760 -0.359208
O15   O     O_3   0.229099 0.734846 0.747057 -0.595236
P5    P     P_3+3 0.085603 0.170170 0.616577 0.434472
O16   O     O_3   0.601940 0.368240 0.453770 -0.393655
O17   O     O_3   0.133170 0.309040 0.621000 -0.386614
O18   O     O_2   0.222506 0.122175 0.575288 -0.374367
O19   O     O_3   0.111509 0.143959 0.730775 -0.572430
Ba2   Ba    Ba6+2 0.346090 0.449880 0.544410 1.552574
P6    P     P_3+3 0.578729 0.615921 0.214209 0.443686
C10   C     C_3   0.615201 0.818975 0.208809 0.445634
H19   H     H_    0.490882 0.799288 0.226578 0.013042
H20   H     H_    0.566308 0.966083 0.159959 0.262031
O20   O     O_3   0.587780 0.631850 0.546230 -0.387842
C11   C     C_3   0.410889 0.299090 0.266520 0.428474
H21   H     H_    0.320918 0.333197 0.303993 0.128444
H22   H     H_    0.522540 0.360395 0.272283 0.120965
C12   C     C_3   0.336263 0.270008 0.165813 -1.027191
H23   H     H_    0.219991 0.213041 0.159078 0.277037
H24   H     H_    0.312273 0.342565 0.135806 0.229963
H25   H     H_    0.419588 0.232922 0.125602 0.257098
P7    P     P_3+3 0.501818 0.234272 0.420314 0.426457
O21   O     O_2   0.332590 0.233690 0.456160 -0.326697
O22   O     O_3   0.449954 0.206560 0.300872 -0.604137
H26   H     H_    0.317588 0.914076 0.237295 0.168643
C13   C     C_3   0.104696 0.237685 0.789682 0.491958
H27   H     H_    0.212479 0.300365 0.790361 0.151774
H28   H     H_    0.996414 0.271792 0.766876 0.049132
C14   C     C_3   0.095831 0.212448 0.887091 -1.092736
H29   H     H_    0.218099 0.229969 0.929145 0.287168
H30   H     H_    0.023855 0.264349 0.922510 0.233807
H31   H     H_    0.038163 0.127653 0.886328 0.285586
P8    P     P_3+3 0.614409 0.389679 0.787213 0.436806
C15   C     C_3   0.506423 0.189983 0.817254 0.662971
O23   O     O_2   0.553959 0.493672 0.817834 -0.382574
O24   O     O_3   0.497815 0.298660 0.844079 -0.573338
H32   H     H_    0.420718 0.161431 0.752505 0.144100
H33   H     H_    0.518357 0.055119 0.897047 0.253120
C16   C     C_3   0.451812 0.123513 0.891143 -1.109872
H34   H     H_    0.321085 0.087822 0.873653 0.279838
H35   H     H_    0.475229 0.173468 0.959362 0.273070
C17   C     C_R   0.835213 0.429444 0.828879 0.223312
C18   C     C_R   0.902360 0.440225 0.922553 0.006495
C19   C     C_R   0.038036 0.461943 0.111563 -0.057071
C20   C     C_R   0.878510 0.409355 0.078780 -0.097986
C21   C     C_R   0.811374 0.400736 0.987635 -0.253664
C22   C     C_R   0.105702 0.472595 0.205968 0.255709
H36   H     H_    0.800603 0.373718 0.122437 0.198570
H37   H     H_    0.687234 0.361198 0.970461 0.200290
C23   C     C_R   0.263421 0.530525 0.234644 -0.497873
C24   C     C_R   0.089115 0.526412 0.794322 0.274163
C25   C     C_R   0.157144 0.539665 0.888958 0.012381
C26   C     C_R   0.064858 0.493661 0.952634 0.048748
C27   C     C_R   0.312146 0.600572 0.922902 -0.080046
C28   C     C_R   0.378889 0.609913 0.014869 -0.228724
C29   C     C_R   0.291625 0.562966 0.078483 0.003553
C30   C     C_R   0.131577 0.506385 0.047723 0.002155
C31   C     C_R   0.358599 0.572187 0.172115 0.153966
C32   C     C_R   0.930505 0.470006 0.766203 -0.487355
H38   H     H_    0.498410 0.657136 0.035383 0.168634
H39   H     H_    0.384353 0.643133 0.879628 0.170892
H40   H     H_    0.317409 0.536513 0.305699 0.175389
H41   H     H_    0.875868 0.464222 0.695268 0.171892
C33   C     C_R   0.781382 0.177638 0.512749 -0.450699
C34   C     C_R   0.429187 0.807339 0.457500 -0.472179
C35   C     C_R   0.395424 0.984806 0.425384 -0.226033
C36   C     C_R   0.332238 0.876711 0.421811 0.202285
C37   C     C_R   0.586622 0.846511 0.505358 0.304249
C38   C     C_R   0.654033 0.957698 0.508208 -0.055779
C39   C     C_R   0.556206 0.027054 0.467056 -0.050516
C40   C     C_R   0.619633 0.137860 0.471645 0.235566
C41   C     C_R   0.879594 0.110819 0.552266 0.252474
C42   C     C_R   0.813997 0.002491 0.552043 -0.200887
H42   H     H_    0.315364 0.035056 0.396567 0.192231
H43   H     H_    0.887469 0.955535 0.589362 0.183993
H44   H     H_    0.830889 0.261851 0.515290 0.177040
H45   H     H_    0.375802 0.723906 0.455640 0.165655
N1    N     N_2   0.741438 0.191661 0.174477 -0.127735
H46   H     H_    0.624449 0.149515 0.166925 0.176016
C43   C     C_3   0.828682 0.158549 0.101260 -0.954591
H47   H     H_    0.854633 0.076847 0.104880 0.260799
H48   H     H_    0.753368 0.158923 0.034066 0.254601
H49   H     H_    0.945377 0.214078 0.104427 0.273465
O25   O     O_3   0.865533 0.672544 0.888399 -0.622525
C44   C     C_3   0.830299 0.681242 0.978777 -0.106500
H50   H     H_    0.729842 0.615585 0.983867 0.183227
H51   H     H_    0.797977 0.759994 0.003095 0.102489
H52   H     H_    0.939505 0.671157 0.025359 0.145497
N2    N     N_2   0.669522 0.173227 0.807581 -0.127276
H53   H     H_    0.762804 0.211231 0.858051 0.171004
C45   C     C_3   0.705412 0.150089 0.716496 -0.992568
H54   H     H_    0.798148 0.097404 0.719399 0.278639
H55   H     H_    0.750855 0.225322 0.690743 0.251994
H56   H     H_    0.596439 0.108445 0.667727 0.254715
N3    N     N_2   0.176333 0.982468 0.142538 -0.059779
H57   H     H_    0.120590 0.029686 0.184953 0.234582
C46   C     C_3   0.112437 0.971293 0.046067 -0.875497
H58   H     H_    0.107542 0.052002 0.025858 0.252439
H59   H     H_    0.987521 0.923485 0.031997 0.229441
H60   H     H_    0.192882 0.932540 0.004251 0.268782
N4    N     N_2   0.362303 0.834984 0.651883 -0.126271
H61   H     H_    0.409189 0.769379 0.628662 0.175118
C47   C     C_3   0.478024 0.908594 0.720432 -0.816164
H62   H     H_    0.591322 0.932948 0.692761 0.261673
H63   H     H_    0.505727 0.871518 0.783495 0.256507
H64   H     H_    0.430120 0.982613 0.736687 0.245852

loop_
_geom_bond_atom_site_label_1
_geom_bond_atom_site_label_2
_geom_bond_distance
_ccdc_geom_bond_type
C45   H56   1.107990 S    
P7    O22   1.752912 S    
C10   H19   1.109123 S    
C24   C25   1.427141 A    
N3    C46   1.445916 S    
C14   H29   1.104550 S    
C33   H44   1.082345 S    
Ba1   O13   2.837259 S    
C47   H62   1.101273 S    
O6    C10   1.400975 S    
O25   C44   1.410777 S    
C35   H42   1.079668 S    
P3    O9    1.538946 D    
N4    H61   1.023058 S    
C45   H54   1.104732 S    
C44   H51   1.113477 S    
C5    H8    1.108942 S    
C8    H15   1.106836 S    
C27   H39   1.075620 S    
P3    O11   1.751577 S    
C21   H37   1.068094 S    
C33   C40   1.402650 A    
C47   H63   1.110752 S    
C4    C5    1.529483 S    
O11   C2    1.407333 S    
C8    C9    1.526050 S    
C4    N4    1.436913 S    
C34   C36   1.393586 A    
C15   O24   1.412045 S    
C9    O25   1.406424 S    
C7    H14   1.107934 S    
C41   C42   1.402587 A    
P1    O1    1.545169 D    
C35   C36   1.388017 A    
C29   C30   1.411477 A    
C12   H24   1.105402 S    
C15   C16   1.536273 S    
P4    Ba2   3.419240 S    
P5    O18   1.548457 D    
C2    H4    1.103904 S    
C25   C27   1.403495 A    
P2    O10   1.742337 S    
P4    C24   1.868995 S    
C6    C7    1.529480 S    
C13   H27   1.107307 S    
C1    C10   1.517742 S    
C1    H2    1.106573 S    
C35   C39   1.403393 A    
C3    H26   1.105812 S    
P5    C41   1.860769 S    
C44   H52   1.106737 S    
P2    Ba1   3.447954 S    
P5    O17   1.742750 S    
C28   H38   1.072159 S    
O13   Ba2   2.962598 S    
C11   H21   1.109678 S    
P1    C22   1.879858 S    
C14   H30   1.100736 S    
O7    Ba1   2.890717 S    
C17   C32   1.398819 A    
O12   Ba2   2.850723 S    
H1    C10   1.109957 S    
C37   C38   1.433971 A    
N4    C47   1.447269 S    
C24   C32   1.395756 A    
C19   C30   1.422074 A    
P8    O23   1.534712 D    
Ba1   Ba2   4.587115 S    
C11   H22   1.109115 S    
O17   Ba2   2.778338 S    
P7    C40   1.860638 S    
P1    O5    1.759326 S    
O4    P6    1.535857 D    
C47   H64   1.096527 S    
P7    O21   1.582961 D    
C4    H7    1.105641 S    
O16   P7    1.763800 S    
C46   H60   1.111123 S    
C17   C18   1.414227 A    
C3    N3    1.449217 S    
P1    O2    1.580829 S    
C46   H59   1.107844 S    
O2    Ba1   2.961729 S    
P4    O12   1.545391 D    
C12   H23   1.106948 S    
C11   O22   1.403890 S    
C1    H3    1.109927 S    
C16   H34   1.104565 S    
C19   C22   1.425474 A    
Ba2   O20   2.826493 S    
C25   C26   1.421959 A    
C2    C3    1.528635 S    
C13   C14   1.528287 S    
C29   C31   1.414954 A    
C7    H12   1.104766 S    
O10   C8    1.396887 S    
C20   H36   1.069480 S    
P4    O13   1.580984 S    
C43   H49   1.107177 S    
C38   C42   1.412858 A    
C9    H17   1.114364 S    
C16   H35   1.110699 S    
Ba1   O16   2.827059 S    
P2    O7    1.524561 D    
P8    C17   1.845653 S    
H33   C16   1.111715 S    
P3    O8    1.744883 S    
N2    H53   1.025945 S    
C14   H31   1.110320 S    
C34   C37   1.401571 A    
N1    C43   1.451736 S    
C20   C21   1.382012 A    
P2    C37   1.878586 S    
O8    Ba1   2.777737 S    
C43   H48   1.109842 S    
C38   C39   1.430392 A    
P8    O24   1.762817 S    
C45   H55   1.103890 S    
C23   H40   1.082075 S    
C11   C12   1.524281 S    
C12   H25   1.105639 S    
O3    P6    1.742219 S    
C4    O15   1.397558 S    
P6    C31   1.846234 S    
C6    H11   1.105498 S    
C6    N1    1.455712 S    
O14   P8    1.764644 S    
C13   H28   1.098076 S    
N3    H57   1.029660 S    
C39   C40   1.418708 A    
C5    H9    1.105622 S    
C28   C29   1.402640 A    
O1    Ba1   2.850161 S    
C33   C41   1.397956 A    
C42   H43   1.070564 S    
C44   H50   1.107833 S    
P2    O20   1.591378 S    
C8    H16   1.109354 S    
C46   H58   1.108576 S    
C22   C23   1.397071 A    
O2    Ba2   2.838032 S    
C15   H32   1.109280 S    
C34   H45   1.082403 S    
O16   Ba2   2.945593 S    
Ba1   O20   2.946368 S    
O14   Ba2   2.823419 S    
C9    H18   1.114653 S    
P1    Ba1   3.418673 S    
C7    H13   1.108372 S    
O5    C6    1.399159 S    
C1    H20   1.106262 S    
Ba2   O21   2.891026 S    
C15   N2    1.442471 S    
O3    Ba1   2.824097 S    
O19   C13   1.411768 S    
P5    O19   1.759823 S    
C19   C20   1.396793 A    
C23   C31   1.401576 A    
C5    H10   1.092427 S    
P3    C36   1.831633 S    
C27   C28   1.391517 A    
C18   C21   1.400986 A    
N2    C45   1.435284 S    
C3    H6    1.110503 S    
C32   H41   1.082262 S    
O6    P6    1.740111 S    
C18   C26   1.414979 A    
N1    H46   1.028440 S    
P4    O15   1.755654 S    
C26   C30   1.431030 A    
C43   H47   1.101810 S    
C2    H5    1.114014 S    
