data_mof_unit_10534.cif
_audit_creation_date              2013-03-05T16:48:31-0500
_audit_creation_method            fapswitch 2.2
_symmetry_space_group_name_H-M    P1
_symmetry_Int_Tables_number       1
_space_group_crystal_system       triclinic
_cell_length_a                    11.017074
_cell_length_b                    14.639042
_cell_length_c                    15.129585
_cell_angle_alpha                 64.963925
_cell_angle_beta                  101.594892
_cell_angle_gamma                 99.380431
_cell_volume                      2157.34266669

loop_
_atom_site_label
_atom_site_type_symbol
_atom_site_description
_atom_site_fract_x
_atom_site_fract_y
_atom_site_fract_z
_atom_type_partial_charge
O1    O     O_R   0.455540 0.022090 0.338120 -0.510903
O2    O     O_R   0.544460 0.977910 0.661880 -0.552965
O3    O     O_R   0.512510 0.160150 0.379180 -0.577449
O4    O     O_R   0.487490 0.839850 0.620820 -0.574084
C1    C     C_R   0.476687 0.120265 0.313922 0.926229
C2    C     C_R   0.522433 0.880287 0.686966 0.876823
O5    O     O_R   0.291160 0.930970 0.479480 -0.574670
O6    O     O_R   0.708840 0.069030 0.520520 -0.551082
O7    O     O_R   0.348130 0.069020 0.520540 -0.540792
O8    O     O_R   0.651870 0.930980 0.479460 -0.570920
C3    C     C_R   0.264554 0.999696 0.506484 0.874257
C4    C     C_R   0.735891 0.000022 0.493952 0.912078
Cu1   Cu    Cu3+1 0.466270 0.918260 0.475690 1.040094
Cu2   Cu    Cu3+1 0.533730 0.081740 0.524310 1.055854
C5    C     C_R   0.284219 0.981528 0.827089 -0.200945
C6    C     C_R   0.776198 0.976795 0.174519 -0.278004
H1    H     H_    0.336105 0.927835 0.891189 0.199769
H2    H     H_    0.734130 0.023247 0.100976 0.162815
C7    C     C_R   0.214775 0.951835 0.753553 0.392130
C8    C     C_R   0.809193 0.016583 0.247598 0.434333
C9    C     C_R   0.153527 0.024948 0.667718 -0.011505
C10   C     C_R   0.860594 0.953454 0.344173 0.031899
C11   C     C_R   0.143123 0.120525 0.666704 0.400937
C12   C     C_R   0.893733 0.856847 0.360625 0.395293
C13   C     C_R   0.211398 0.147901 0.741289 -0.166184
C14   C     C_R   0.867028 0.821803 0.286044 -0.118577
H3    H     H_    0.210065 0.223590 0.736114 0.254454
H4    H     H_    0.895744 0.749220 0.299174 0.181366
C15   C     C_R   0.288221 0.080839 0.817655 0.351855
C16   C     C_R   0.808491 0.881005 0.193664 0.413998
C17   C     C_R   0.949767 0.987789 0.583258 0.313282
C18   C     C_R   0.051987 0.017309 0.417008 0.328340
C19   C     C_R   0.869696 0.990893 0.497294 -0.169763
C20   C     C_R   0.131585 0.008933 0.504043 -0.130225
C21   C     C_R   0.922703 0.997283 0.415864 -0.001239
C22   C     C_R   0.079824 0.999167 0.586883 -0.002985
C23   C     C_R   0.452351 0.190671 0.209071 -0.210718
C24   C     C_R   0.530239 0.815547 0.794748 -0.206959
C25   C     C_R   0.334819 0.232958 0.046750 -0.182441
C26   C     C_R   0.530401 0.794335 0.963523 -0.151072
C27   C     C_R   0.363214 0.161906 0.143093 0.397790
C28   C     C_R   0.538286 0.858009 0.864596 0.364522
C29   C     C_R   0.515998 0.288381 0.176334 0.343955
C30   C     C_R   0.527303 0.710054 0.829779 0.382804
C31   C     C_R   0.473342 0.365869 0.083934 -0.030463
C32   C     C_R   0.505066 0.646290 0.926020 -0.042162
C33   C     C_R   0.390044 0.332881 0.015846 -0.122398
C34   C     C_R   0.518878 0.688547 0.995465 -0.112064
C35   C     C_R   0.502993 0.473764 0.056413 -0.095266
C36   C     C_R   0.470425 0.540680 0.955533 -0.130234
C37   C     C_R   0.396610 0.502501 0.887837 0.457131
C38   C     C_R   0.548510 0.521070 0.124340 0.365509
C39   C     C_R   0.359926 0.400093 0.917722 0.332690
C40   C     C_R   0.529524 0.623653 0.095425 0.281396
H5    H     H_    0.262896 0.210965 0.997706 0.209673
H6    H     H_    0.535679 0.829081 0.014778 0.247817
N1    N     N_R   0.584450 0.204570 0.560790 -0.233922
N2    N     N_R   0.415550 0.795430 0.439210 -0.235678
C41   C     C_R   0.758573 0.311322 0.592048 -0.248006
C42   C     C_R   0.248967 0.687725 0.396519 -0.254519
C43   C     C_R   0.707139 0.218668 0.593182 0.025085
C44   C     C_R   0.291342 0.769700 0.420504 0.020517
C45   C     C_R   0.508495 0.279745 0.531880 0.593647
C46   C     C_R   0.498732 0.741380 0.430607 0.537988
C47   C     C_R   0.558992 0.380548 0.514319 -0.090245
C48   C     C_R   0.461510 0.643118 0.432826 -0.028324
C49   C     C_R   0.684529 0.392486 0.555144 -0.108279
C50   C     C_R   0.334048 0.623889 0.402183 -0.072778
C51   C     C_R   0.489147 0.467594 0.463225 -0.123304
C52   C     C_R   0.541818 0.562793 0.467186 -0.107150
C53   C     C_R   0.667030 0.569468 0.515057 0.395410
C54   C     C_R   0.370224 0.464984 0.404484 0.466028
C55   C     C_R   0.735049 0.484093 0.561200 0.397755
C56   C     C_R   0.293563 0.542751 0.375064 0.434029
H7    H     H_    0.222591 0.815808 0.416231 0.234353
H8    H     H_    0.766713 0.158055 0.620481 0.215501
H9    H     H_    0.856989 0.319587 0.617156 0.229119
H10   H     H_    0.149915 0.673182 0.376413 0.213414
Cl1   Cl    Cl    0.395527 0.123617 0.896926 -0.652967
Cl2   Cl    Cl    0.789464 0.837203 0.100588 -0.695269
O9    O     O_3   0.358216 0.564343 0.790303 -0.497865
C57   C     C_3   0.251263 0.609645 0.783107 0.013038
H11   H     H_    0.274353 0.663538 0.818779 0.169930
H12   H     H_    0.176193 0.552453 0.817876 0.127896
C58   C     C_3   0.204509 0.668890 0.674688 -0.594330
H13   H     H_    0.171157 0.616659 0.637227 0.267322
H14   H     H_    0.127673 0.712943 0.667392 0.217447
H15   H     H_    0.280389 0.722635 0.637999 0.271886
O10   O     O_3   0.603554 0.469331 0.219898 -0.568180
C59   C     C_3   0.731111 0.506373 0.229035 0.141341
H16   H     H_    0.746394 0.590414 0.199037 0.189346
H17   H     H_    0.782688 0.480692 0.188937 0.169857
C60   C     C_3   0.787546 0.466949 0.337106 -0.635968
H18   H     H_    0.764821 0.384023 0.374138 0.289594
H19   H     H_    0.890173 0.483252 0.344501 0.235579
H20   H     H_    0.750069 0.506096 0.372996 0.236360
O11   O     O_3   0.853893 0.492192 0.611329 -0.533372
C61   C     C_3   0.853932 0.440006 0.714944 -0.006955
H21   H     H_    0.780777 0.375608 0.736999 0.151746
H22   H     H_    0.839727 0.492808 0.746165 0.163965
C62   C     C_3   0.979626 0.399276 0.764013 -0.700415
H23   H     H_    0.054339 0.459384 0.735328 0.288852
H24   H     H_    0.988694 0.374485 0.845146 0.196921
H25   H     H_    0.990556 0.333708 0.748544 0.256054
O12   O     O_3   0.174954 0.534864 0.324845 -0.542203
C63   C     C_3   0.170214 0.605684 0.225238 0.046341
H26   H     H_    0.208803 0.574897 0.182085 0.159400
H27   H     H_    0.222563 0.680111 0.216652 0.162287
C64   C     C_3   0.035688 0.625182 0.180417 -0.790258
H28   H     H_    0.991109 0.647770 0.226896 0.258467
H29   H     H_    0.031201 0.687196 0.105582 0.231309
H30   H     H_    0.984810 0.555554 0.174702 0.234635
Cl3   Cl    Cl    0.608708 0.813881 0.355644 -0.577371
Cl4   Cl    Cl    0.360992 0.240831 0.565002 -0.522993
O13   O     O_3   0.727507 0.659275 0.517027 -0.519323
C65   C     C_3   0.717157 0.665089 0.605927 0.176837
H31   H     H_    0.682793 0.591891 0.662278 0.146645
H32   H     H_    0.651120 0.721673 0.589064 0.209093
C66   C     C_3   0.841492 0.701576 0.651061 -0.673503
H33   H     H_    0.837802 0.691400 0.727399 0.217956
H34   H     H_    0.916303 0.657937 0.653852 0.273541
H35   H     H_    0.863626 0.783111 0.607472 0.268663
O14   O     O_3   0.320103 0.383072 0.382236 -0.516507
C67   C     C_3   0.353074 0.393565 0.293178 0.111501
H36   H     H_    0.437068 0.353060 0.310201 0.213165
H37   H     H_    0.370731 0.473717 0.241522 0.145349
C68   C     C_3   0.247023 0.344619 0.242106 -0.759260
H38   H     H_    0.160274 0.380382 0.229948 0.262358
H39   H     H_    0.267842 0.355225 0.169542 0.183308
H40   H     H_    0.232980 0.262356 0.288382 0.286193
O15   O     O_3   0.207609 0.852153 0.765604 -0.610602
C69   C     C_3   0.118871 0.793197 0.828891 0.076824
H41   H     H_    0.072396 0.733660 0.803405 0.160407
H42   H     H_    0.043332 0.836203 0.826950 0.209257
C70   C     C_3   0.179898 0.741240 0.935779 -0.897372
H43   H     H_    0.194985 0.793702 0.973357 0.241009
H44   H     H_    0.118195 0.674575 0.975943 0.219996
H45   H     H_    0.270063 0.714992 0.939627 0.258586
O16   O     O_3   0.803807 0.118668 0.224074 -0.539112
C71   C     C_3   0.864062 0.180153 0.140656 0.129348
H46   H     H_    0.793214 0.205946 0.073556 0.150946
H47   H     H_    0.932795 0.140541 0.127628 0.157527
C72   C     C_3   0.936231 0.272229 0.154680 -0.676203
H48   H     H_    0.986445 0.249344 0.231164 0.287477
H49   H     H_    0.004897 0.306875 0.102255 0.174083
H50   H     H_    0.873049 0.330284 0.139798 0.261723
Cl5   Cl    Cl    0.052106 0.211318 0.569310 -0.540060
Cl6   Cl    Cl    0.986946 0.782790 0.468193 -0.686584
Cl7   Cl    Cl    0.886235 0.965793 0.690334 -0.748947
Cl8   Cl    Cl    0.115361 0.047215 0.307881 -0.649351
Cl9   Cl    Cl    0.279102 0.358118 0.826464 -0.610682
Cl10  Cl    Cl    0.531568 0.669299 0.187198 -0.643392
Cl11  Cl    Cl    0.595666 0.658756 0.769352 -0.671624
Cl12  Cl    Cl    0.671820 0.292323 0.231939 -0.600999
O17   O     O_3   0.549119 0.961673 0.837519 -0.554637
C73   C     C_3   0.676279 0.997919 0.844841 0.135137
H51   H     H_    0.714568 0.008107 0.778740 0.202102
H52   H     H_    0.734142 0.946346 0.910189 0.198738
C74   C     C_3   0.689522 0.100177 0.851039 -0.716041
H53   H     H_    0.660962 0.091196 0.920730 0.271551
H54   H     H_    0.787951 0.132494 0.849627 0.183387
H55   H     H_    0.630233 0.153263 0.787633 0.279525
O18   O     O_3   0.298670 0.066474 0.176124 -0.526005
C75   C     C_3   0.305747 0.015675 0.116268 0.142670
H56   H     H_    0.401643 0.025242 0.098464 0.196091
H57   H     H_    0.237302 0.042754 0.047839 0.166909
C76   C     C_3   0.272754 0.903057 0.170458 -0.716619
H58   H     H_    0.182689 0.889304 0.198359 0.260090
H59   H     H_    0.265092 0.865005 0.119515 0.190930
H60   H     H_    0.347392 0.870714 0.232745 0.272807

loop_
_geom_bond_atom_site_label_1
_geom_bond_atom_site_label_2
_geom_bond_distance
_ccdc_geom_bond_type
N2    C44   1.364196 A    
C70   H45   1.104544 S    
C48   C50   1.409261 A    
C45   C47   1.420435 A    
C60   H18   1.109922 S    
C1    C23   1.478502 S    
C72   H50   1.106981 S    
O18   C75   1.412971 S    
C73   C74   1.520884 S    
C71   C72   1.522800 S    
C41   H9    1.079405 S    
O11   C61   1.423852 S    
O14   C67   1.405159 S    
C76   H59   1.110568 S    
C9    C22   1.479551 S    
C58   H13   1.110125 S    
O5    C3    1.325593 A    
C10   C21   1.484564 S    
C42   H10   1.083668 S    
C75   H57   1.110801 S    
C62   H23   1.106535 S    
O1    C1    1.316676 A    
C30   Cl11  1.734710 S    
C8    O16   1.390596 S    
C67   H37   1.111730 S    
C73   H51   1.105974 S    
C7    C9    1.412125 A    
C71   H47   1.117316 S    
C24   C28   1.418223 A    
C64   H29   1.109377 S    
C17   Cl7   1.777320 S    
C58   H15   1.108366 S    
C63   H26   1.110496 S    
C50   C56   1.394397 A    
C72   H48   1.110087 S    
C61   H21   1.115256 S    
C65   H31   1.114762 S    
C42   C44   1.381152 A    
O4    Cu1   1.985315 S    
C35   C36   1.430682 A    
C26   C34   1.405370 A    
C60   H19   1.109795 S    
C41   C49   1.400111 A    
C5    C7    1.403859 A    
C45   Cl4   1.732164 S    
C73   H52   1.107093 S    
C25   H5    1.079259 S    
C30   C32   1.403565 A    
C69   H41   1.109080 S    
C26   H6    1.081456 S    
C17   C19   1.404871 A    
C5    C15   1.393518 A    
C52   C53   1.432266 A    
C49   C55   1.398835 A    
C29   Cl12  1.756816 S    
C37   O9    1.385377 S    
C6    C8    1.417167 A    
C33   C39   1.397950 A    
C16   Cl2   1.743535 S    
C66   H34   1.106352 S    
C62   H24   1.110833 S    
C70   H44   1.109788 S    
Cu1   Cu2   2.740670 S    
C7    O15   1.382726 S    
C38   O10   1.379170 S    
O2    C2    1.307738 A    
C3    C20   1.484675 S    
C38   C40   1.414169 A    
N1    C45   1.359515 A    
C76   H60   1.107338 S    
C31   C33   1.425873 A    
C43   H8    1.076743 S    
C13   C15   1.390249 A    
O16   C71   1.422749 S    
C32   C34   1.401754 A    
C41   C43   1.376499 A    
C58   H14   1.106706 S    
C18   C21   1.404722 A    
C70   H43   1.109337 S    
C71   H46   1.111547 S    
C25   C27   1.394268 A    
C12   Cl6   1.753942 S    
C64   H30   1.108815 S    
C76   H58   1.111132 S    
C53   C55   1.402667 A    
C40   Cl10  1.772757 S    
Cu1   N2    2.058772 S    
N2    C46   1.361737 A    
C47   C49   1.412113 A    
C11   Cl5   1.768108 S    
C69   H42   1.111364 S    
O9    C57   1.407867 S    
C37   C39   1.384739 A    
C18   C20   1.397225 A    
C23   C29   1.412817 A    
C51   C54   1.432563 A    
C34   C40   1.397306 A    
O7    Cu2   2.014199 S    
C68   H39   1.107864 S    
C24   C30   1.401684 A    
O7    C3    1.312361 A    
C59   H17   1.110652 S    
C74   H53   1.109317 S    
C15   Cl1   1.747150 S    
C31   C35   1.450756 A    
O6    C4    1.326987 A    
C35   C38   1.438477 A    
C2    C24   1.492283 S    
C36   C37   1.422755 A    
C74   H55   1.110615 S    
C53   O13   1.383059 S    
C29   C31   1.424582 A    
O3    Cu2   1.985315 S    
O8    C4    1.314330 A    
C67   C68   1.519328 S    
C54   C56   1.393157 A    
C8    C10   1.415903 A    
C55   O11   1.389214 S    
C60   H20   1.106510 S    
C57   H12   1.112699 S    
C9    C11   1.415767 A    
C54   O14   1.380984 S    
C13   H3    1.079554 S    
C10   C12   1.424470 A    
C44   H7    1.069358 S    
O4    C2    1.331317 A    
O1    Cu1   1.984553 S    
O15   C69   1.421009 S    
C61   C62   1.518389 S    
C59   C60   1.517466 S    
C25   C33   1.404949 A    
C66   H35   1.105705 S    
C72   H49   1.110988 S    
Cu2   N1    2.058772 S    
C75   H56   1.114710 S    
O6    Cu2   1.982481 S    
C46   Cl3   1.730653 S    
C75   C76   1.517463 S    
C12   C14   1.389347 A    
O3    C1    1.314400 A    
O8    Cu1   2.014198 S    
C66   H33   1.108641 S    
N1    C43   1.355800 A    
C62   H25   1.108931 S    
C57   C58   1.519897 S    
O12   C63   1.418543 S    
C32   C36   1.423771 A    
C14   H4    1.083628 S    
C65   C66   1.523857 S    
C27   O18   1.391114 S    
C74   H54   1.110729 S    
C4    C19   1.490663 S    
C68   H40   1.110645 S    
C64   H28   1.110683 S    
C56   O12   1.387123 S    
C59   H16   1.112883 S    
C48   C52   1.439653 A    
C63   H27   1.114496 S    
C69   C70   1.527859 S    
C47   C51   1.435354 A    
C26   C28   1.400581 A    
C19   C21   1.428797 A    
C65   H32   1.106122 S    
C28   O17   1.385438 S    
C20   C22   1.423218 A    
C11   C13   1.393945 A    
C23   C27   1.401789 A    
C51   C52   1.440692 A    
O2    Cu2   1.984554 S    
C61   H22   1.106012 S    
O5    Cu1   1.982480 S    
C18   Cl8   1.776806 S    
C42   C50   1.394537 A    
C6    H2    1.081800 S    
C57   H11   1.103730 S    
O17   C73   1.414728 S    
C39   Cl9   1.766999 S    
C17   C22   1.407889 A    
O13   C65   1.411048 S    
O10   C59   1.423017 S    
C5    H1    1.078682 S    
C6    C16   1.397945 A    
C63   C64   1.519205 S    
C68   H38   1.110067 S    
C46   C48   1.418031 A    
C67   H36   1.108169 S    
C14   C16   1.383873 A    
