data_mof_unit_15069.cif
_audit_creation_date              2012-12-11T15:36:28-0500
_audit_creation_method            fapswitch 2.2
_symmetry_space_group_name_H-M    P1
_symmetry_Int_Tables_number       1
_space_group_crystal_system       triclinic
_cell_length_a                    15.052892
_cell_length_b                    15.051551
_cell_length_c                    34.831746
_cell_angle_alpha                 91.298427
_cell_angle_beta                  91.809835
_cell_angle_gamma                 60.156715
_cell_volume                      6841.63821982

loop_
_atom_site_label
_atom_site_type_symbol
_atom_type_description
_atom_site_fract_x
_atom_site_fract_y
_atom_site_fract_z
_atom_type_partial_charge
Br1   Br    Br    0.056919 0.508294 0.894779 -0.531578
Br2   Br    Br    0.219431 0.828916 0.580853 -0.522919
Br3   Br    Br    0.507965 0.848201 0.327428 -0.560320
C1    C     C_R   0.610778 0.302002 0.444074 0.556922
C2    C     C_R   0.593430 0.102341 0.763650 -0.110745
C3    C     C_R   0.101460 0.765727 0.889532 -0.156400
C4    C     C_R   0.139552 0.754433 0.852866 -0.136639
C5    C     C_R   0.151438 0.672786 0.829503 -0.005265
C6    C     C_R   0.130817 0.599041 0.843926 -0.084013
C7    C     C_R   0.091327 0.610039 0.880491 0.162107
C8    C     C_R   0.244905 0.579704 0.771080 -0.119295
C9    C     C_R   0.254219 0.574708 0.731394 -0.113961
C10   C     C_R   0.190449 0.660531 0.708767 0.029436
C11   C     C_R   0.120620 0.752775 0.726527 -0.114345
C12   C     C_R   0.111873 0.757946 0.766260 -0.109234
C13   C     C_R   0.592127 0.175998 0.789586 0.029995
C14   C     C_R   0.665171 0.771406 0.166582 -0.084762
C15   C     C_R   0.172528 0.670876 0.788638 0.027423
C16   C     C_R   0.198347 0.730614 0.645614 -0.088724
C17   C     C_R   0.220231 0.716808 0.606588 0.152982
C18   C     C_R   0.231382 0.550154 0.609044 -0.152443
C19   C     C_R   0.208839 0.565101 0.647762 -0.133702
C20   C     C_R   0.197521 0.652935 0.666727 -0.002306
C21   C     C_R   0.243673 0.622553 0.588488 0.033100
C22   C     C_R   0.672272 0.080435 0.906403 0.022208
C23   C     C_R   0.596412 0.067112 0.887004 -0.123184
C24   C     C_R   0.546037 0.199198 0.641298 -0.120206
C25   C     C_R   0.565394 0.103332 0.849576 -0.116074
C26   C     C_R   0.828864 0.615763 0.160467 -0.136051
C27   C     C_R   0.549760 0.221222 0.602846 -0.123354
C28   C     C_R   0.689478 0.253203 0.618572 -0.117996
C29   C     C_R   0.684718 0.232606 0.657017 -0.118042
C30   C     C_R   0.610799 0.208776 0.668823 0.027267
C31   C     C_R   0.619222 0.251833 0.591389 0.024647
C32   C     C_R   0.044960 0.739432 0.048795 0.539212
C33   C     C_R   0.749952 0.687200 0.183546 0.044433
C34   C     C_R   0.747753 0.747042 0.064265 0.542204
C35   C     C_R   0.751667 0.039888 0.050837 0.543348
C36   C     C_R   0.016999 0.722257 0.939621 0.565912
C37   C     C_R   0.717146 0.730014 0.954919 0.542862
C38   C     C_R   0.825623 0.631687 0.120958 -0.127763
C39   C     C_R   0.721288 0.024640 0.942104 0.543479
C40   C     C_R   0.754101 0.587799 0.239784 -0.142771
C41   C     C_R   0.741355 0.581102 0.278813 -0.118567
C42   C     C_R   0.728589 0.660375 0.303976 0.031056
C43   C     C_R   0.735918 0.743210 0.290212 -0.054764
C44   C     C_R   0.609253 0.153979 0.831198 0.031552
C45   C     C_R   0.748339 0.750954 0.250854 0.117304
C46   C     C_R   0.753927 0.673999 0.225384 0.049743
C47   C     C_R   0.604127 0.733506 0.357754 0.168912
C48   C     C_R   0.593254 0.610170 0.449322 0.543106
C49   C     C_R   0.572352 0.720503 0.393416 -0.091242
C50   C     C_R   0.732312 0.561657 0.402349 -0.136737
C51   C     C_R   0.764733 0.574446 0.366911 -0.155549
C52   C     C_R   0.700296 0.658751 0.343920 0.035941
C53   C     C_R   0.634522 0.632965 0.415397 -0.011287
C54   C     C_R   0.098407 0.730784 0.085945 0.021608
C55   C     C_R   0.679545 0.173530 0.851788 -0.117315
C56   C     C_R   0.141856 0.637982 0.106031 -0.123560
C57   C     C_R   0.160762 0.636234 0.145454 -0.120829
C58   C     C_R   0.138078 0.726789 0.165354 0.028019
C59   C     C_R   0.105240 0.817415 0.144846 -0.119285
C60   C     C_R   0.303496 0.591698 0.442451 0.545574
C61   C     C_R   0.085362 0.819498 0.105293 -0.125102
C62   C     C_R   0.196531 0.763541 0.228613 -0.110708
C63   C     C_R   0.204554 0.755235 0.268589 -0.108230
C64   C     C_R   0.154795 0.712010 0.288109 0.026259
C65   C     C_R   0.093140 0.681718 0.267011 -0.121950
C66   C     C_R   0.710732 0.137103 0.888964 -0.122807
C67   C     C_R   0.086237 0.688868 0.227110 -0.121025
C68   C     C_R   0.139853 0.727495 0.207616 0.026117
C69   C     C_R   0.192868 0.594975 0.343626 -0.119086
C70   C     C_R   0.227916 0.566002 0.381301 -0.120339
C71   C     C_R   0.223160 0.727715 0.392498 -0.118371
C72   C     C_R   0.605379 0.300948 0.553865 0.540248
C73   C     C_R   0.187620 0.756889 0.354838 -0.115065
C74   C     C_R   0.175468 0.689361 0.329636 0.029243
C75   C     C_R   0.246918 0.630555 0.405678 0.019957
C76   C     C_R   0.726815 0.095241 0.087795 0.001311
C77   C     C_R   0.587456 0.264657 0.775148 -0.118227
C78   C     C_R   0.801718 0.107749 0.108348 -0.105910
C79   C     C_R   0.790027 0.133939 0.147516 0.104367
C80   C     C_R   0.701853 0.147863 0.166027 0.056665
C81   C     C_R   0.623232 0.144607 0.144507 -0.145061
C82   C     C_R   0.635519 0.118589 0.105743 -0.136306
C83   C     C_R   0.604536 0.235012 0.224683 -0.123223
C84   C     C_R   0.587197 0.606196 0.559258 0.539421
C85   C     C_R   0.594668 0.240638 0.264383 -0.109091
C86   C     C_R   0.673989 0.168616 0.288081 0.030489
C87   C     C_R   0.763148 0.090394 0.271510 -0.124218
C88   C     C_R   0.590997 0.276174 0.735749 -0.118892
C89   C     C_R   0.772684 0.084324 0.231723 -0.079725
C90   C     C_R   0.693848 0.157305 0.208103 0.048737
C91   C     C_R   0.744318 0.180531 0.352233 -0.131265
C92   C     C_R   0.728436 0.212266 0.390439 -0.150362
C93   C     C_R   0.556978 0.233800 0.386036 0.097682
C94   C     C_R   0.573840 0.202563 0.347431 -0.092630
C95   C     C_R   0.665348 0.180358 0.330052 0.008531
C96   C     C_R   0.297879 0.589455 0.551834 0.562409
C97   C     C_R   0.633202 0.244525 0.407247 0.045103
C98   C     C_R   0.691246 0.689071 0.920060 -0.003700
C99   C     C_R   0.598068 0.199865 0.710059 0.025930
C100  C     C_R   0.762150 0.592346 0.905354 -0.087304
C101  C     C_R   0.751041 0.563685 0.867593 0.115020
C102  C     C_R   0.668109 0.633672 0.844248 0.051775
C103  C     C_R   0.592376 0.725827 0.860384 -0.150818
C104  C     C_R   0.603575 0.753123 0.897934 -0.139493
C105  C     C_R   0.573949 0.638419 0.783089 -0.130136
C106  C     C_R   0.567955 0.638189 0.743029 -0.119244
C107  C     C_R   0.653406 0.617875 0.721395 0.024497
C108  C     C_R   0.742693 0.718685 0.104069 0.019906
C109  C     C_R   0.745827 0.594641 0.740438 -0.122498
C110  C     C_R   0.595849 0.114497 0.724133 -0.112902
C111  C     C_R   0.751568 0.595751 0.780494 -0.083283
C112  C     C_R   0.665441 0.618507 0.802182 0.041470
C113  C     C_R   0.719321 0.542992 0.656624 -0.121438
C114  C     C_R   0.704907 0.541778 0.616841 -0.127975
C115  C     C_R   0.546305 0.703577 0.621150 -0.115579
C116  C     C_R   0.560329 0.704223 0.660884 -0.119595
C117  C     C_R   0.645169 0.622365 0.679055 0.028389
C118  C     C_R   0.616352 0.620327 0.598864 0.017389
C119  C     C_R   0.073056 0.696418 0.903372 0.030817
C120  C     C_R   0.661274 0.786872 0.127182 -0.127830
Cr1   Cr    Cr6+3 0.426010 0.422500 0.497000 1.032753
Cr2   Cr    Cr6+3 0.651300 0.426310 0.501970 1.017689
Cr3   Cr    Cr6+3 0.422670 0.651170 0.501050 1.075473
Cr4   Cr    Cr6+3 0.905130 0.911420 0.992650 1.011816
Cr5   Cr    Cr6+3 0.911860 0.682710 0.002320 1.050534
Cr6   Cr    Cr6+3 0.682710 0.906840 0.004710 1.016934
H1    H     H_    0.596441 0.854750 0.115159 0.131628
H2    H     H_    0.188070 0.565155 0.160810 0.107603
H3    H     H_    0.052161 0.650253 0.281288 0.104332
H4    H     H_    0.889715 0.578089 0.103940 0.127613
H5    H     H_    0.040109 0.662848 0.211329 0.108263
H6    H     H_    0.185360 0.540679 0.324831 0.105512
H7    H     H_    0.245786 0.490543 0.390550 0.143368
H8    H     H_    0.087816 0.887945 0.159803 0.117663
H9    H     H_    0.236302 0.779494 0.410732 0.136154
H10   H     H_    0.872131 0.090818 0.094655 0.120198
H11   H     H_    0.576286 0.110134 0.090490 0.130540
H12   H     H_    0.496448 0.776122 0.402832 0.161606
H13   H     H_    0.514042 0.199187 0.330417 0.114111
H14   H     H_    0.525949 0.302680 0.276666 0.111479
H15   H     H_    0.542782 0.291602 0.206883 0.105011
H16   H     H_    0.838605 0.516193 0.356630 0.113871
H17   H     H_    0.824867 0.033828 0.289324 0.106261
H18   H     H_    0.840966 0.021920 0.219337 0.143697
H19   H     H_    0.815803 0.163120 0.339320 0.116953
H20   H     H_    0.788936 0.217705 0.406059 0.137782
H21   H     H_    0.554852 0.155716 0.158281 0.114631
H22   H     H_    0.828984 0.541290 0.922518 0.151675
H23   H     H_    0.894281 0.549713 0.173219 0.102833
H24   H     H_    0.547368 0.827997 0.908493 0.134622
H25   H     H_    0.503204 0.767280 0.677598 0.113639
H26   H     H_    0.736397 0.516370 0.289129 0.120552
H27   H     H_    0.496298 0.654601 0.728896 0.114152
H28   H     H_    0.506591 0.656229 0.799199 0.107567
H29   H     H_    0.812424 0.579387 0.724329 0.109813
H30   H     H_    0.822179 0.582982 0.794502 0.157644
H31   H     H_    0.785510 0.479156 0.670061 0.107674
H32   H     H_    0.760094 0.476380 0.600518 0.126529
H33   H     H_    0.527995 0.780447 0.843018 0.110188
H34   H     H_    0.782127 0.493547 0.418723 0.136114
H35   H     H_    0.477263 0.765300 0.608270 0.164425
H36   H     H_    0.090164 0.831680 0.906447 0.132935
H37   H     H_    0.758677 0.528251 0.220489 0.112601
H38   H     H_    0.204647 0.505800 0.663299 0.117233
H39   H     H_    0.310619 0.503473 0.718336 0.111590
H40   H     H_    0.292667 0.512053 0.788025 0.112253
H41   H     H_    0.156148 0.811532 0.842172 0.115782
H42   H     H_    0.070482 0.819701 0.709633 0.110481
H43   H     H_    0.054421 0.828548 0.779358 0.112594
H44   H     H_    0.187099 0.800104 0.659820 0.135393
H45   H     H_    0.153545 0.568237 0.091904 0.128726
H46   H     H_    0.139262 0.536023 0.825755 0.143113
H47   H     H_    0.602649 0.826065 0.184012 0.146012
H48   H     H_    0.246279 0.478147 0.596015 0.140277
H49   H     H_    0.565603 0.023530 0.899806 0.126379
H50   H     H_    0.768895 0.148975 0.903350 0.127952
H51   H     H_    0.736477 0.238746 0.677824 0.111592
H52   H     H_    0.590120 0.343890 0.725317 0.111974
H53   H     H_    0.584456 0.323540 0.794414 0.105736
H54   H     H_    0.510148 0.088334 0.834487 0.107638
H55   H     H_    0.600903 0.055029 0.704697 0.109951
H56   H     H_    0.051577 0.892281 0.090659 0.126241
H57   H     H_    0.598341 0.032642 0.773930 0.107062
H58   H     H_    0.488781 0.180481 0.649877 0.108793
H59   H     H_    0.728519 0.803106 0.309940 0.134008
H60   H     H_    0.494605 0.219733 0.582490 0.123825
H61   H     H_    0.715648 0.211267 0.838345 0.105739
H62   H     H_    0.743389 0.277166 0.610718 0.131676
H63   H     H_    0.837339 0.219684 0.177337 0.232709
H64   H     H_    0.930070 0.126350 0.151340 0.217870
H65   H     H_    0.410838 0.255517 0.382419 0.216973
H66   H     H_    0.476426 0.203022 0.423265 0.232462
H67   H     H_    0.172965 0.830862 0.345048 0.114987
H68   H     H_    0.787834 0.423784 0.846861 0.221655
H69   H     H_    0.883020 0.424668 0.872868 0.251173
H70   H     H_    0.826429 0.810052 0.225987 0.225684
H71   H     H_    0.743796 0.888746 0.258690 0.231368
H72   H     H_    0.253611 0.778152 0.283990 0.129777
H73   H     H_    0.238016 0.793903 0.213980 0.116383
N1    N     N_3   0.868451 0.143030 0.168873 -0.648612
N2    N     N_3   0.461175 0.259201 0.402931 -0.595124
N3    N     N_3   0.825239 0.465693 0.852380 -0.623016
N4    N     N_3   0.752858 0.837330 0.236423 -0.626051
O1    O     O_R   0.324990 0.503440 0.453910 -0.502933
O2    O     O_R   0.675430 0.831160 0.051290 -0.518333
O3    O     O_R   0.698870 0.998880 0.039560 -0.499069
O4    O     O_R   0.522030 0.339050 0.458320 -0.464167
O5    O     O_R   0.811290 0.006780 0.950620 -0.516015
O6    O     O_R   0.980960 0.812920 0.953200 -0.512999
O7    O     O_R   0.001480 0.656720 0.955830 -0.453101
O8    O     O_R   0.809240 0.683250 0.968050 -0.487644
O9    O     O_R   0.652500 0.818540 0.967340 -0.519495
O10   O     O_R   0.677620 0.987170 0.961730 -0.500590
O11   O     O_3   0.833240 0.833660 0.999890 -0.242666
O12   O     O_R   0.639980 0.519500 0.542640 -0.506707
O13   O     O_R   0.676180 0.324490 0.458320 -0.525506
O14   O     O_R   0.643570 0.521510 0.464260 -0.500664
O15   O     O_R   0.504630 0.675350 0.460920 -0.513806
O16   O     O_R   0.339850 0.642450 0.459830 -0.497140
O17   O     O_R   0.321120 0.501280 0.538470 -0.531024
O18   O     O_R   0.518440 0.337050 0.536710 -0.505204
O19   O     O_R   0.672300 0.322330 0.542880 -0.515986
O20   O     O_R   0.500750 0.673190 0.545480 -0.490566
O21   O     O_R   0.336260 0.640450 0.538210 -0.446000
O22   O     O_3   0.499990 0.499990 0.500010 -0.251113
O23   O     O_R   0.834210 0.019400 0.034570 -0.522603
O24   O     O_R   0.002210 0.824620 0.031030 -0.504884
O25   O     O_R   0.024400 0.669340 0.039790 -0.516441
O26   O     O_R   0.830490 0.694950 0.045870 -0.503514

loop_
_geom_bond_atom_site_label_1
_geom_bond_atom_site_label_2
_ccdc_geom_bond_type
C98   C104  A    
C12   C15   A    
C25   C44   A    
C34   O26   A    
C21   C96   S    
H68   N3    S    
Cr3   O21   S    
C64   C74   S    
C26   H23   S    
C56   H45   S    
C38   H4    S    
C94   C95   A    
Cr3   O15   S    
C83   H15   S    
C4    C5    A    
C8    C15   A    
C50   C51   A    
C105  C106  A    
C50   C53   A    
C71   H9    S    
C26   C33   A    
C115  H35   S    
C36   C119  S    
C71   C73   A    
C80   C81   A    
C89   H18   S    
C105  C112  A    
C25   H54   S    
C48   O15   A    
C113  H31   S    
C85   C86   A    
C79   N1    S    
C83   C85   A    
C84   O12   A    
C110  H55   S    
C103  C104  A    
C91   C95   A    
C40   C46   A    
C80   C90   S    
C28   H62   S    
Cr4   O23   S    
C1    O4    A    
C113  C114  A    
C10   C20   S    
C48   C53   S    
C27   H60   S    
C65   H3    S    
C106  H27   S    
C114  C118  A    
C115  C116  A    
C2    C13   A    
C59   C61   A    
C73   H67   S    
C107  C109  A    
C37   C98   S    
C63   H72   S    
C14   C120  A    
C62   H73   S    
Cr1   O18   S    
C5    C6    A    
C55   H61   S    
C47   C49   A    
C70   C75   A    
Cr1   O17   S    
C93   N2    S    
C67   C68   A    
C92   H20   S    
C14   C33   A    
C77   H53   S    
Cr2   O22   S    
C100  C101  A    
C6    C7    A    
C85   H14   S    
C71   C75   A    
C61   H56   S    
C14   H47   S    
C100  H22   S    
Cr5   O7    S    
C69   C70   A    
C1    O13   A    
C26   C38   A    
Cr2   O12   S    
C58   C68   S    
C18   H48   S    
C63   C64   A    
C3    H36   S    
C56   C57   A    
Cr5   O26   S    
C60   O1    A    
C10   C11   A    
H69   N3    S    
C60   O16   A    
Cr3   O20   S    
Cr6   O11   S    
C2    H57   S    
Cr2   O19   S    
C35   O3    A    
C57   H2    S    
C109  C111  A    
C101  C102  A    
Cr1   O22   S    
Br3   C47   S    
C111  C112  A    
C35   O23   A    
C96   O17   A    
C23   H49   S    
C91   H19   S    
C111  H30   S    
C43   C45   A    
C27   C31   A    
Br2   C17   S    
C64   C65   A    
C17   C21   A    
C72   O19   A    
C39   O10   A    
C81   C82   A    
C107  C117  S    
C84   C118  S    
Cr6   O2    S    
C13   C44   S    
C92   C97   A    
C50   H34   S    
C69   H6    S    
H66   N2    S    
C87   H17   S    
C114  H32   S    
C22   C23   A    
C42   C43   A    
C108  C120  A    
Cr4   O24   S    
C78   C79   A    
C30   C99   S    
C57   C58   A    
C13   C77   A    
C115  C118  A    
Cr6   O9    S    
C16   C20   A    
C40   C41   A    
C16   H44   S    
C69   C74   A    
C83   C90   A    
C87   C89   A    
C28   C29   A    
C70   H7    S    
C116  C117  A    
C84   O20   A    
H65   N2    S    
C93   C94   A    
C28   C31   A    
C24   H58   S    
C101  N3    S    
C73   C74   A    
C82   H11   S    
C104  H24   S    
C109  H29   S    
C51   H16   S    
C19   H38   S    
Cr2   O13   S    
Cr4   O5    S    
C45   C46   A    
C72   O18   A    
C8    H40   S    
C116  H25   S    
C88   H52   S    
Cr1   O1    S    
C38   C108  A    
C34   O2    A    
C4    H41   S    
C22   C66   A    
C62   C63   A    
C3    C119  A    
C88   C99   A    
C37   O8    A    
C76   C82   A    
C41   C42   A    
Cr4   O11   S    
C54   C61   A    
C76   C78   A    
C40   H37   S    
H70   N4    S    
C78   H10   S    
C51   C52   A    
H71   N4    S    
C2    C110  A    
C11   C12   A    
C41   H26   S    
C102  C112  S    
Cr3   O22   S    
Br1   C7    S    
C47   C52   A    
C11   H42   S    
C7    C119  A    
C22   C39   S    
C9    H39   S    
C58   C59   A    
C8    C9    A    
Cr3   O16   S    
C55   C66   A    
C3    C4    A    
C105  H28   S    
C48   O14   A    
Cr5   O25   S    
C102  C103  A    
C16   C17   A    
C23   C25   A    
C49   H12   S    
H64   N1    S    
C86   C95   S    
C32   C54   S    
C36   O7    A    
C29   C30   A    
C32   O24   A    
Cr6   O10   S    
C1    C97   S    
C120  H1    S    
C99   C110  A    
C62   C68   A    
C106  C107  A    
C66   H50   S    
C44   C55   A    
Cr1   O4    S    
C77   C88   A    
C93   C97   A    
C37   O9    A    
C89   C90   A    
H63   N1    S    
C36   O6    A    
C6    H46   S    
C32   O25   A    
C103  H33   S    
C59   H8    S    
C91   C92   A    
C5    C15   S    
C94   H13   S    
C34   C108  S    
C54   C56   A    
C39   O5    A    
C12   H43   S    
Cr2   O14   S    
C113  C117  A    
Cr4   O6    S    
C31   C72   S    
C9    C10   A    
C42   C52   S    
C98   C100  A    
C79   C80   A    
C35   C76   S    
C18   C21   A    
C45   N4    S    
C24   C30   A    
C67   H5    S    
C65   C67   A    
C19   C20   A    
C29   H51   S    
C43   H59   S    
C86   C87   A    
C18   C19   A    
Cr6   O3    S    
Cr5   O11   S    
C96   O21   A    
C33   C46   S    
C49   C53   A    
Cr5   O8    S    
C24   C27   A    
C60   C75   S    
C81   H21   S    
