data_mof_unit_43142.cif
_audit_creation_date              2012-12-10T17:46:22-0500
_audit_creation_method            fapswitch 2.2
_symmetry_space_group_name_H-M    P1
_symmetry_Int_Tables_number       1
_space_group_crystal_system       triclinic
_cell_length_a                    14.125615
_cell_length_b                    10.661582
_cell_length_c                    9.995733
_cell_angle_alpha                 89.722067
_cell_angle_beta                  89.499593
_cell_angle_gamma                 91.619758
_cell_volume                      1504.69294565

loop_
_atom_site_label
_atom_site_type_symbol
_atom_type_description
_atom_site_fract_x
_atom_site_fract_y
_atom_site_fract_z
_atom_type_partial_charge
C1    C     C_R   0.503922 0.260833 0.499282 0.986349
C2    C     C_R   0.432142 0.063434 0.442755 -0.307698
C3    C     C_R   0.429238 0.934481 0.444411 0.085232
C4    C     C_R   0.329473 0.499915 0.500502 0.913422
C5    C     C_R   0.504968 0.871596 0.500464 -0.010559
C6    C     C_R   0.358783 0.367433 0.146857 -0.174646
C7    C     C_R   0.273765 0.331782 0.087412 0.047152
C8    C     C_R   0.267849 0.338249 0.949830 -0.292730
C9    C     C_R   0.349647 0.365813 0.872964 0.538404
C10   C     C_R   0.427725 0.434854 0.931059 0.024207
C11   C     C_R   0.429491 0.435146 0.075056 0.052056
C12   C     C_1   0.772183 0.507954 0.499296 -0.172185
C13   C     C_R   0.568324 0.562361 0.068207 0.137149
C14   C     C_R   0.567569 0.562141 0.926262 -0.096570
C15   C     C_R   0.500405 0.739053 0.499993 0.874101
C16   C     C_R   0.670499 0.505328 0.499595 0.939515
C17   C     C_1   0.227938 0.500826 0.501389 -0.192237
C18   C     C_1   0.142623 0.502125 0.501437 -0.020183
C19   C     C_1   0.042702 0.504099 0.500995 0.000926
C20   C     C_1   0.957408 0.505837 0.500399 -0.002218
C21   C     C_1   0.857509 0.507539 0.499670 -0.017308
C22   C     C_3   0.360412 0.177103 0.768463 -0.309049
C23   C     C_R   0.680022 0.129049 0.558445 0.324774
C24   C     C_3   0.731950 0.221359 0.366713 -0.261990
C25   C     C_3   0.826475 0.211594 0.756112 -0.223241
C26   C     C_3   0.881313 0.836505 0.595612 -0.253839
C27   C     C_R   0.753909 0.067146 0.622504 0.380047
C28   C     C_R   0.746181 0.937338 0.642425 0.439218
C29   C     C_R   0.663692 0.871863 0.604611 -0.395206
C30   C     C_R   0.586154 0.935422 0.550151 -0.075785
C31   C     C_R   0.591677 0.066192 0.537448 -0.090997
C32   C     C_R   0.510422 0.128240 0.494077 -0.077421
H1    H     H_    0.371991 0.113384 0.404821 0.140367
H2    H     H_    0.676806 0.171304 0.306653 0.156708
H3    H     H_    0.798645 0.168163 0.366216 0.170597
H4    H     H_    0.799289 0.160564 0.846703 0.141185
H5    H     H_    0.778698 0.288865 0.729609 0.188161
H6    H     H_    0.896241 0.255105 0.781516 0.180863
H7    H     H_    0.917146 0.919404 0.547218 0.187115
H8    H     H_    0.843617 0.778805 0.519144 0.135374
H9    H     H_    0.936975 0.778051 0.639549 0.189500
H10   H     H_    0.288294 0.895467 0.446790 0.178431
H11   H     H_    0.339680 0.892459 0.293481 0.199436
H12   H     H_    0.204990 0.299772 0.901883 0.176447
H13   H     H_    0.689642 0.564605 0.173362 0.200259
H14   H     H_    0.617596 0.687592 0.204717 0.227525
H15   H     H_    0.213034 0.275542 0.265595 0.178541
H16   H     H_    0.139239 0.337367 0.154693 0.197221
H17   H     H_    0.622903 0.612854 0.871199 0.162134
H18   H     H_    0.662429 0.771087 0.616821 0.190944
H19   H     H_    0.368268 0.338913 0.247922 0.203822
H20   H     H_    0.301593 0.135493 0.830192 0.153967
H21   H     H_    0.429804 0.152829 0.811977 0.173296
H22   H     H_    0.353765 0.131602 0.670002 0.184232
H23   H     H_    0.747550 0.312393 0.316165 0.182510
N1    N     N_R   0.499190 0.498800 0.142780 -0.112712
N2    N     N_R   0.499160 0.498720 0.857170 -0.119129
N3    N     N_3   0.348010 0.866935 0.393737 -0.455956
N4    N     N_3   0.644581 0.629397 0.131034 -0.467492
N5    N     N_3   0.196282 0.277628 0.163902 -0.447331
O1    O     O_R   0.500000 0.316780 0.614690 -0.551607
O2    O     O_3   0.699915 0.243561 0.498766 -0.613323
O3    O     O_3   0.839160 0.129106 0.647971 -0.581512
O4    O     O_3   0.819636 0.873388 0.698967 -0.576500
O5    O     O_R   0.499990 0.316750 0.385360 -0.638230
O6    O     O_R   0.373720 0.500010 0.614690 -0.543954
O7    O     O_R   0.373710 0.499990 0.385360 -0.623261
O8    O     O_R   0.500010 0.683250 0.614640 -0.625883
O9    O     O_R   0.500000 0.683220 0.385310 -0.615782
O10   O     O_R   0.626290 0.500010 0.614640 -0.603972
O11   O     O_R   0.626280 0.499990 0.385310 -0.623753
O12   O     O_3   0.354911 0.308772 0.750295 -0.572258
Zn1   Zn    Zn3+2 0.500010 0.500020 0.653130 0.981193
Zn2   Zn    Zn3+2 0.499990 0.499980 0.346870 0.924135

loop_
_geom_bond_atom_site_label_1
_geom_bond_atom_site_label_2
_ccdc_geom_bond_type
C17   C18   T    
C8    C9    A    
O11   Zn2   S    
C1    O5    A    
C11   N1    A    
C1    C32   S    
C6    C7    A    
C13   N4    S    
C23   C27   A    
C25   H6    S    
C4    O7    A    
C9    C10   A    
C19   C20   T    
C9    O12   S    
C13   N1    A    
O1    Zn1   S    
H10   N3    S    
O10   Zn1   S    
C2    C3    A    
H15   N5    S    
C7    C8    A    
C22   H22   S    
O7    Zn2   S    
C13   C14   A    
C24   H23   S    
C4    O6    A    
C26   H8    S    
C29   C30   A    
C16   O11   A    
C27   O3    S    
C15   O8    A    
C28   O4    S    
C2    H1    S    
C22   O12   S    
C28   C29   A    
H16   N5    S    
C22   H21   S    
C29   H18   S    
C6    C11   A    
C25   O3    S    
C30   C31   A    
C15   O9    A    
C26   H7    S    
C5    C15   S    
C14   H17   S    
N1    Zn2   S    
C10   C11   A    
C4    C17   S    
C25   H4    S    
C24   H3    S    
C3    N3    S    
C12   C16   S    
C7    N5    S    
O9    Zn2   S    
C10   N2    A    
C16   O10   A    
C20   C21   S    
H14   N4    S    
C22   H20   S    
C18   C19   S    
C5    C30   A    
C6    H19   S    
N2    Zn1   S    
C27   C28   A    
C14   N2    A    
C26   O4    S    
H13   N4    S    
C24   O2    S    
H11   N3    S    
C25   H5    S    
O8    Zn1   S    
O6    Zn1   S    
C12   C21   T    
C23   O2    S    
C24   H2    S    
O5    Zn2   S    
C31   C32   A    
C26   H9    S    
C1    O1    A    
C2    C32   A    
C3    C5    A    
C8    H12   S    
C23   C31   A    
