data_mof_unit_49185.cif
_audit_creation_date              2012-12-11T14:30:43-0500
_audit_creation_method            fapswitch 2.2
_symmetry_space_group_name_H-M    P1
_symmetry_Int_Tables_number       1
_space_group_crystal_system       triclinic
_cell_length_a                    17.409493
_cell_length_b                    24.345544
_cell_length_c                    15.008715
_cell_angle_alpha                 90.397709
_cell_angle_beta                  125.188163
_cell_angle_gamma                 89.911677
_cell_volume                      5198.75130537

loop_
_atom_site_label
_atom_site_type_symbol
_atom_type_description
_atom_site_fract_x
_atom_site_fract_y
_atom_site_fract_z
_atom_type_partial_charge
C1    C     C_R   0.807869 0.622987 0.907795 -0.275799
C2    C     C_R   0.923395 0.497964 0.628469 -0.084568
C3    C     C_R   0.489961 0.000239 0.315777 -0.220513
C4    C     C_R   0.421649 0.997372 0.627750 -0.098587
C5    C     C_R   0.683223 0.498072 0.658893 -0.006923
C6    C     C_R   0.304047 0.501908 0.360752 0.033985
C7    C     C_R   0.174664 0.000767 0.714969 -0.045557
C8    C     C_R   0.813025 0.999561 0.350714 -0.005191
C9    C     C_3   0.518886 0.447304 0.544543 -0.154742
C10   C     C_3   0.467577 0.467617 0.425812 -0.193722
C11   C     C_3   0.002153 0.955292 0.602807 -0.172114
C12   C     C_R   0.193422 0.621288 0.093093 -0.281830
C13   C     C_3   0.975232 0.951532 0.484690 -0.178734
C14   C     C_3   0.452611 0.481915 0.560769 -0.211761
C15   C     C_3   0.535177 0.517422 0.463041 -0.188546
C16   C     C_3   0.928883 0.002139 0.568463 -0.221638
C17   C     C_3   0.050554 0.994992 0.511396 -0.208069
C18   C     C_3   0.402933 0.502421 0.443477 0.143340
C19   C     C_3   0.584466 0.497309 0.580064 0.164972
C20   C     C_3   0.904475 0.998439 0.452369 0.158391
C21   C     C_3   0.076061 0.999020 0.628083 0.156630
C22   C     C_3   0.470255 0.551107 0.480211 0.085204
C23   C     C_R   0.338347 0.148570 0.907570 -0.232830
C24   C     C_3   0.519660 0.531129 0.596195 0.042790
C25   C     C_3   0.979470 0.040851 0.479860 0.093866
C26   C     C_3   0.004618 0.044696 0.594566 0.103297
C27   C     C_2   0.260686 0.682485 0.920416 -0.094028
C28   C     C_2   0.744183 0.687130 0.081008 -0.110366
C29   C     C_2   0.758288 0.184786 0.919965 -0.095540
C30   C     C_2   0.373991 0.273568 0.056615 -0.118229
C31   C     C_2   0.271695 0.660760 0.009137 0.024344
C32   C     C_2   0.731519 0.663617 0.992159 0.025696
C33   C     C_2   0.769988 0.162885 0.008813 0.022128
C34   C     C_R   0.692919 0.122115 0.092845 -0.287036
C35   C     C_2   0.319673 0.230243 0.996065 0.043420
C36   C     C_2   0.806063 0.235818 0.927210 -0.128908
C37   C     C_2   0.334246 0.321721 0.074932 -0.152315
C38   C     C_2   0.310612 0.732659 0.927613 -0.132658
C39   C     C_2   0.696595 0.738293 0.072832 -0.155111
C40   C     C_R   0.928687 0.355675 0.091085 -0.101171
C41   C     C_R   0.096761 0.380832 0.905777 -0.181135
C42   C     C_R   0.432778 0.853917 0.091267 -0.090095
C43   C     C_R   0.572478 0.856667 0.907351 -0.157414
C44   C     C_2   0.820507 0.275190 0.998454 -0.165049
C45   C     C_R   0.856817 0.328567 0.999004 0.110513
C46   C     C_2   0.261729 0.347924 0.990091 -0.202769
C47   C     C_2   0.328833 0.771795 0.000798 -0.164408
C48   C     C_2   0.681171 0.776441 0.999978 -0.186780
C49   C     C_2   0.917290 0.469583 0.386652 0.274184
C50   C     C_2   0.905491 0.454364 0.471942 0.301574
C51   C     C_2   0.396155 0.965617 0.373301 0.283543
C52   C     C_2   0.391772 0.952185 0.465195 0.288851
C53   C     C_2   0.996968 0.496293 0.418144 0.463755
C54   C     C_2   0.877615 0.494339 0.510376 0.442636
C55   C     C_2   0.467591 0.998000 0.394880 0.456183
C56   C     C_R   0.186457 0.369778 0.995590 0.132461
C57   C     C_2   0.370072 0.993337 0.508412 0.465286
C58   C     C_R   0.026341 0.545944 0.291216 0.451218
C59   C     C_R   0.943264 0.544662 0.692808 0.473982
C60   C     C_R   0.503462 0.046275 0.272658 0.402180
C61   C     C_R   0.441990 0.044317 0.692120 0.473776
C62   C     C_R   0.736395 0.453400 0.714129 -0.224402
C63   C     C_R   0.256223 0.456052 0.300499 -0.287226
C64   C     C_R   0.231660 0.955106 0.747093 -0.211070
C65   C     C_R   0.761455 0.954372 0.291991 -0.251017
C66   C     C_R   0.027075 0.455138 0.289483 0.543760
C67   C     C_R   0.363593 0.825504 0.999825 0.110927
C68   C     C_R   0.940327 0.454314 0.694337 0.450894
C69   C     C_R   0.510979 0.955392 0.277633 0.533286
C70   C     C_R   0.439720 0.953907 0.694470 0.467614
C71   C     C_R   0.736347 0.544591 0.704047 0.491200
C72   C     C_R   0.254598 0.546907 0.302990 0.454193
C73   C     C_R   0.229915 0.046508 0.738436 0.515636
C74   C     C_R   0.760620 0.045560 0.299971 0.464714
C75   C     C_R   0.838358 0.356041 0.908857 -0.116298
C76   C     C_R   0.188388 0.380036 0.087872 -0.100486
C77   C     C_R   0.343140 0.853757 0.909583 -0.125292
C78   C     C_R   0.644839 0.829875 0.999216 0.135740
C79   C     C_R   0.662930 0.857092 0.090178 -0.105355
C80   C     C_R   0.903127 0.630219 0.088476 0.495951
C81   C     C_R   0.099818 0.626488 0.912090 0.496300
C82   C     C_R   0.435401 0.151447 0.087878 0.571927
C83   C     C_R   0.599209 0.126975 0.911841 0.498608
C84   C     C_R   0.810985 0.638320 0.998380 0.037922
C85   C     C_R   0.191913 0.635131 0.002745 0.011170
C86   C     C_R   0.362301 0.178486 0.998192 -0.007950
C87   C     C_R   0.691053 0.136195 0.002429 0.011355
C88   C     C_R   0.020685 0.499734 0.340456 -0.243625
H1    H     H_    0.747486 0.626156 0.824952 0.174614
H2    H     H_    0.803094 0.676434 0.162353 0.196062
H3    H     H_    0.701964 0.171881 0.838561 0.190103
H4    H     H_    0.449995 0.270648 0.104983 0.180291
H5    H     H_    0.818641 0.243694 0.865482 0.131499
H6    H     H_    0.352409 0.327341 0.156720 0.144359
H7    H     H_    0.320496 0.740603 0.863724 0.131384
H8    H     H_    0.684418 0.747142 0.134749 0.139835
H9    H     H_    0.804459 0.268881 0.057536 0.149452
H10   H     H_    0.247320 0.342819 0.909774 0.150940
H11   H     H_    0.315163 0.765584 0.061914 0.151509
H12   H     H_    0.253414 0.623568 0.176888 0.148211
H13   H     H_    0.696496 0.769000 0.940443 0.147615
H14   H     H_    0.966609 0.339842 0.172721 0.137831
H15   H     H_    0.072617 0.377886 0.821561 0.149657
H16   H     H_    0.472934 0.837707 0.172650 0.132524
H17   H     H_    0.535364 0.842047 0.824201 0.138854
H18   H     H_    0.718125 0.410536 0.694323 0.136394
H19   H     H_    0.272790 0.413788 0.326586 0.141979
H20   H     H_    0.209260 0.912739 0.729357 0.139224
H21   H     H_    0.776751 0.911887 0.316660 0.132581
H22   H     H_    0.794189 0.342282 0.824977 0.096656
H23   H     H_    0.295544 0.163727 0.825458 0.177429
H24   H     H_    0.248136 0.376390 0.171422 0.093862
H25   H     H_    0.301328 0.839216 0.826110 0.096697
H26   H     H_    0.708004 0.843937 0.174018 0.093325
H27   H     H_    0.417404 0.468563 0.599458 0.140429
H28   H     H_    0.570746 0.531734 0.425330 0.159324
H29   H     H_    0.877276 0.005584 0.589170 0.145410
H30   H     H_    0.101394 0.992618 0.489326 0.152462
H31   H     H_    0.508945 0.631118 0.495598 0.151629
H32   H     H_    0.424547 0.611490 0.367979 0.103643
H33   H     H_    0.490717 0.583440 0.679087 0.129748
H34   H     H_    0.752842 0.125157 0.176375 0.163345
H35   H     H_    0.582032 0.541574 0.758610 0.107227
H36   H     H_    0.031639 0.108321 0.452931 0.157618
H37   H     H_    0.952819 0.072692 0.339898 0.088583
H38   H     H_    0.958605 0.117534 0.613459 0.142818
H39   H     H_    0.036463 0.085206 0.730625 0.106099
H40   H     H_    0.350641 0.687325 0.166883 0.105541
H41   H     H_    0.384600 0.626808 0.144534 0.110954
H42   H     H_    0.645905 0.691646 0.836138 0.110757
H43   H     H_    0.588250 0.678889 0.894219 0.134315
H44   H     H_    0.847094 0.190758 0.165722 0.111866
H45   H     H_    0.541432 0.404367 0.571446 0.130514
H46   H     H_    0.884057 0.130731 0.145683 0.113163
H47   H     H_    0.190713 0.256494 0.868272 0.118917
H48   H     H_    0.198230 0.242867 0.985116 0.135661
H49   H     H_    0.803026 0.431692 0.276214 0.317726
H50   H     H_    0.973053 0.386428 0.494281 0.343185
H51   H     H_    0.294042 0.915922 0.277067 0.319988
H52   H     H_    0.454936 0.883078 0.482256 0.345573
H53   H     H_    0.116418 0.528095 0.533494 0.325611
H54   H     H_    0.786394 0.526629 0.368068 0.312900
H55   H     H_    0.577883 0.041530 0.499020 0.329415
H56   H     H_    0.443769 0.441086 0.353733 0.137153
H57   H     H_    0.274573 0.025930 0.368030 0.306789
H58   H     H_    0.048948 0.598484 0.400534 0.336129
H59   H     H_    0.910608 0.601754 0.589326 0.377991
H60   H     H_    0.476012 0.100927 0.344029 0.339025
H61   H     H_    0.407713 0.101232 0.587987 0.380254
H62   H     H_    0.087349 0.386816 0.304806 0.297537
H63   H     H_    0.903778 0.384148 0.717635 0.307872
H64   H     H_    0.579054 0.888388 0.311061 0.294453
H65   H     H_    0.394697 0.886600 0.716496 0.303209
H66   H     H_    0.775787 0.616512 0.695055 0.338232
H67   H     H_    0.014460 0.920053 0.656038 0.138617
H68   H     H_    0.202485 0.618049 0.292902 0.327571
H69   H     H_    0.251085 0.111079 0.683480 0.330238
H70   H     H_    0.716046 0.117288 0.301810 0.311401
H71   H     H_    0.012459 0.666918 0.205797 0.350109
H72   H     H_    0.996906 0.662618 0.789238 0.351289
H73   H     H_    0.560551 0.156184 0.217877 0.334087
H74   H     H_    0.495327 0.161957 0.788016 0.350999
H75   H     H_    0.961202 0.913026 0.437496 0.138144
H76   H     H_    0.203502 0.670218 0.838978 0.189950
N1    N     N_R   0.892320 0.603520 0.941090 -0.071775
N2    N     N_R   0.973240 0.529450 0.794410 -0.115152
N3    N     N_R   0.526760 0.029450 0.205590 -0.106454
N4    N     N_R   0.473240 0.029450 0.794410 -0.113574
N5    N     N_R   0.819350 0.473090 0.793940 -0.066621
N6    N     N_R   0.180650 0.473090 0.206060 -0.061989
N7    N     N_R   0.319350 0.973090 0.793940 -0.069672
N8    N     N_R   0.680650 0.973090 0.206060 -0.060427
N9    N     N_R   0.027860 0.473090 0.206590 -0.135076
N10   N     N_R   0.972140 0.473090 0.793410 -0.145637
N11   N     N_R   0.527860 0.973090 0.206590 -0.137430
N12   N     N_R   0.107680 0.603520 0.058910 -0.071525
N13   N     N_R   0.472140 0.973090 0.793410 -0.145264
N14   N     N_R   0.818250 0.529450 0.792940 -0.101414
N15   N     N_R   0.181750 0.529450 0.207060 -0.096376
N16   N     N_R   0.318250 0.029450 0.792940 -0.097660
N17   N     N_R   0.681750 0.029450 0.207060 -0.098573
N18   N     N_R   0.896320 0.399020 0.944720 -0.043495
N19   N     N_R   0.103680 0.399020 0.055280 -0.042307
N20   N     N_R   0.396320 0.899020 0.944720 -0.043106
N21   N     N_R   0.603680 0.899020 0.055280 -0.041900
N22   N     N_R   0.949790 0.603520 0.054810 -0.105177
N23   N     N_R   0.392320 0.103520 0.941090 -0.079666
N24   N     N_R   0.050210 0.603520 0.945190 -0.096244
N25   N     N_R   0.449790 0.103520 0.054810 -0.109583
N26   N     N_R   0.550210 0.103520 0.945190 -0.096890
N27   N     N_3   0.446698 0.608414 0.448958 -0.162654
N28   N     N_3   0.550771 0.566601 0.689888 -0.204673
N29   N     N_3   0.967058 0.087905 0.413300 -0.178425
N30   N     N_3   0.021663 0.095645 0.654803 -0.166132
N31   N     N_3   0.360723 0.666233 0.113493 -0.198470
N32   N     N_3   0.641533 0.665017 0.887372 -0.211955
N33   N     N_3   0.858465 0.169757 0.113321 -0.196601
N34   N     N_R   0.607680 0.103520 0.058910 -0.076878
N35   N     N_3   0.218747 0.230378 0.934959 -0.200001
N36   N     N_R   0.953790 0.399020 0.058440 -0.051721
N37   N     N_R   0.046210 0.399020 0.941560 -0.050546
N38   N     N_R   0.453790 0.899020 0.058440 -0.051136
N39   N     N_R   0.546210 0.899020 0.941560 -0.050850
N40   N     N_R   0.026760 0.529450 0.205590 -0.108329
Ni1   Ni    Ni4+2 0.934100 0.565890 0.869590 0.227736
Ni2   Ni    Ni4+2 0.065900 0.565890 0.130410 0.222640
Ni3   Ni    Ni4+2 0.434100 0.065890 0.869590 0.224358
Ni4   Ni    Ni4+2 0.565900 0.065890 0.130410 0.211898
Ni5   Ni    Ni4+2 0.068420 0.436630 0.132700 0.196703
Ni6   Ni    Ni4+2 0.931580 0.436630 0.867300 0.204166
Ni7   Ni    Ni4+2 0.568420 0.936630 0.132700 0.190383
Ni8   Ni    Ni4+2 0.431580 0.936630 0.867300 0.203746
O1    O     O_3   0.854446 0.451807 0.280205 -0.770799
O2    O     O_3   0.908342 0.596045 0.652933 -0.730551
O3    O     O_3   0.500064 0.100000 0.298207 -0.728034
O4    O     O_3   0.405790 0.095454 0.651839 -0.740326
O5    O     O_3   0.055096 0.403918 0.334924 -0.752588
O6    O     O_3   0.895381 0.404359 0.655511 -0.701947
O7    O     O_3   0.535512 0.904789 0.326233 -0.745843
O8    O     O_3   0.392485 0.904569 0.656086 -0.704001
O9    O     O_3   0.717026 0.594571 0.653260 -0.760522
O10   O     O_3   0.258709 0.596945 0.348658 -0.749949
O11   O     O_3   0.198378 0.095221 0.682921 -0.779466
O12   O     O_3   0.954367 0.408958 0.534203 -0.696667
O13   O     O_3   0.773988 0.095640 0.349987 -0.767061
O14   O     O_3   0.946211 0.662277 0.180760 -0.738916
O15   O     O_3   0.060343 0.650612 0.812663 -0.762685
O16   O     O_3   0.501760 0.177698 0.183763 -0.733649
O17   O     O_3   0.559192 0.150653 0.811918 -0.763150
O18   O     O_3   0.339055 0.939171 0.273741 -0.754912
O19   O     O_3   0.440737 0.906367 0.525581 -0.694476
O20   O     O_3   0.058621 0.514578 0.524548 -0.776596
O21   O     O_3   0.821962 0.537702 0.445910 -0.776031
O22   O     O_3   0.524598 0.024071 0.495171 -0.780791
O23   O     O_3   0.314000 0.037056 0.445976 -0.777527
O24   O     O_3   0.053222 0.597330 0.337565 -0.724690

loop_
_geom_bond_atom_site_label_1
_geom_bond_atom_site_label_2
_ccdc_geom_bond_type
H37   N29   S    
H46   N33   S    
C83   C87   A    
C21   C26   S    
H64   O7    S    
N2    Ni1   S    
C31   C85   S    
C49   O1    S    
C14   C18   S    
C83   N26   A    
H43   N32   S    
C67   C77   A    
H40   N31   S    
N38   Ni7   S    
C32   N32   S    
H59   O2    S    
H33   N28   S    
C4    C70   A    
C59   O2    S    
C35   N35   S    
C7    C73   A    
C74   N17   A    
C1    C84   A    
C15   C19   S    
C39   H8    S    
C29   C36   S    
C50   O12   S    
C50   C54   D    
C12   C85   A    
C8    C20   S    
N9    N40   A    
C71   O9    S    
N13   Ni8   S    
C3    C69   A    
C60   O3    S    
H31   N27   S    
C66   O5    S    
C2    C68   A    
C10   C15   S    
H47   N35   S    
C35   C86   S    
C20   C25   S    
N5    Ni6   S    
C27   C38   S    
C14   C24   S    
C14   H27   S    
N14   Ni1   S    
C29   C33   D    
N18   Ni6   S    
C77   N20   A    
C47   H11   S    
H68   O10   S    
C43   H17   S    
H71   O14   S    
C48   C78   S    
C69   N11   A    
H38   N30   S    
H48   N35   S    
C57   O23   S    
C73   N16   A    
C3    C55   S    
N8    N17   A    
C9    C19   S    
H54   O21   S    
H65   O8    S    
C23   C86   A    
H61   O4    S    
H36   N29   S    
C37   H6    S    
C74   O13   S    
N21   Ni7   S    
C66   N9    A    
C64   H20   S    
C61   O4    S    
N11   Ni7   S    
H51   O18   S    
C76   N19   A    
C79   N21   A    
C9    C10   S    
C81   N24   A    
N26   N34   A    
C11   H67   S    
C12   N12   A    
H73   O16   S    
C3    C60   A    
N8    Ni7   S    
C46   H10   S    
N15   Ni2   S    
C58   N40   A    
C8    C65   A    
C34   H34   S    
C42   N38   A    
N10   Ni6   S    
C51   O18   S    
C76   H24   S    
C23   N23   A    
C77   H25   S    
H74   O17   S    
C36   H5    S    
C47   C67   S    
H41   N31   S    
C13   H75   S    
C15   C22   S    
C16   C26   S    
C40   C45   A    
C6    C18   S    
H58   O24   S    
N24   Ni1   S    
N4    Ni3   S    
C60   N3    A    
N20   N38   A    
N22   Ni2   S    
C65   N8    A    
C27   C31   D    
C51   C52   S    
N19   N37   A    
C28   C32   D    
N17   Ni4   S    
N18   N36   A    
C30   H4    S    
C2    C54   S    
H32   N27   S    
C80   C84   A    
C68   N10   A    
C78   C79   A    
C63   N6    A    
C40   N36   A    
C28   C39   S    
C25   C26   S    
C82   C86   A    
C82   O16   S    
C4    C61   A    
C11   C21   S    
C70   O8    S    
C41   H15   S    
C30   C37   S    
C42   H16   S    
H53   O20   S    
N12   N24   A    
C6    C63   A    
C38   H7    S    
C68   O6    S    
C9    C14   S    
C22   N27   S    
C41   C56   A    
C27   H76   S    
C43   C78   A    
C44   H9    S    
C34   N34   A    
C33   N33   S    
C80   O14   S    
C16   C20   S    
N20   Ni8   S    
C72   O10   S    
C8    C74   A    
H63   O6    S    
C24   N28   S    
C10   H56   S    
C66   C88   A    
H70   O13   S    
C65   H21   S    
C38   C47   D    
C59   N2    A    
C17   H30   S    
C5    C19   S    
C30   C35   D    
C2    C59   A    
C58   O24   S    
N40   Ni2   S    
C56   C76   A    
H57   O23   S    
C82   N25   A    
C43   N39   A    
C42   C67   A    
C22   C24   S    
N7    N16   A    
H39   N30   S    
C55   O22   S    
C41   N37   A    
N23   N25   A    
N16   Ni3   S    
H60   O3    S    
N5    N14   A    
C29   H3    S    
C73   O11   S    
C25   N29   S    
C44   C45   S    
H55   O22   S    
N3    N11   A    
H50   O12   S    
N12   Ni2   S    
C23   H23   S    
C62   N5    A    
C10   C18   S    
C75   H22   S    
C1    H1    S    
C81   O15   S    
C13   C20   S    
H49   O1    S    
C1    N1    A    
C69   O7    S    
C71   N14   A    
N9    Ni5   S    
N1    N22   A    
C32   C84   S    
C58   C88   A    
C52   O19   S    
C62   H18   S    
N19   Ni5   S    
C83   O17   S    
N2    N10   A    
H42   N32   S    
N36   Ni5   S    
C54   O21   S    
H72   O15   S    
C13   C17   S    
N6    N15   A    
C45   C75   A    
C61   N4    A    
C17   C25   S    
N3    Ni4   S    
N21   N39   A    
C64   N7    A    
C18   C22   S    
C19   C24   S    
H35   N28   S    
N37   Ni6   S    
C5    C71   A    
C7    C21   S    
C16   H29   S    
C31   N31   S    
N7    Ni8   S    
C11   C13   S    
N6    Ni5   S    
N1    Ni1   S    
H66   O9    S    
C49   C53   D    
C48   H13   S    
H44   N33   S    
H62   O5    S    
C5    C62   A    
C53   C88   S    
C51   C55   D    
C34   C87   A    
C33   C87   S    
N39   Ni8   S    
C17   C21   S    
C7    C64   A    
C12   H12   S    
C11   C16   S    
C36   C44   D    
C52   C57   D    
C53   O20   S    
C40   H14   S    
C70   N13   A    
N26   Ni3   S    
H52   O19   S    
C49   C50   S    
C79   H26   S    
N23   Ni3   S    
H69   O11   S    
C80   N22   A    
C15   H28   S    
C28   H2    S    
N25   Ni4   S    
C72   N15   A    
C46   C56   S    
C37   C46   D    
C75   N18   A    
C63   H19   S    
N34   Ni4   S    
C81   C85   A    
N4    N13   A    
C4    C57   S    
C9    H45   S    
C39   C48   D    
C6    C72   A    
C26   N30   S    
