data_mof_unit_50933.cif
_audit_creation_date              2012-12-10T20:39:54-0500
_audit_creation_method            fapswitch 2.2
_symmetry_space_group_name_H-M    P1
_symmetry_Int_Tables_number       1
_space_group_crystal_system       triclinic
_cell_length_a                    23.419018
_cell_length_b                    10.675324
_cell_length_c                    9.841837
_cell_angle_alpha                 90.214021
_cell_angle_beta                  89.848676
_cell_angle_gamma                 89.929051
_cell_volume                      2460.48674874

loop_
_atom_site_label
_atom_site_type_symbol
_atom_type_description
_atom_site_fract_x
_atom_site_fract_y
_atom_site_fract_z
_atom_type_partial_charge
C1    C     C_R   0.498498 0.259891 0.499901 0.885852
C2    C     C_R   0.970248 0.274255 0.420537 -0.157855
C3    C     C_R   0.029709 0.274473 0.420524 -0.156493
C4    C     C_R   0.059744 0.381415 0.462816 -0.015673
C5    C     C_R   0.029620 0.488732 0.506194 -0.021010
C6    C     C_R   0.059341 0.596521 0.548955 -0.015621
C7    C     C_R   0.028976 0.702943 0.592144 -0.156921
C8    C     C_R   0.969562 0.702608 0.592501 -0.157945
C9    C     C_R   0.119382 0.384245 0.462962 0.504618
C10   C     C_R   0.118936 0.594993 0.546729 0.504445
C11   C     C_R   0.237941 0.491734 0.625773 -0.096027
C12   C     C_R   0.389242 0.499674 0.500234 0.875500
C13   C     C_R   0.297154 0.495115 0.624939 -0.211881
C14   C     C_R   0.326943 0.497516 0.500976 -0.041897
C15   C     C_R   0.296702 0.496867 0.377983 -0.213830
C16   C     C_R   0.237440 0.493610 0.379170 -0.096486
C17   C     C_R   0.208149 0.491055 0.503006 0.315850
C18   C     C_R   0.760014 0.421342 0.594018 -0.098546
C19   C     C_R   0.700901 0.427339 0.593878 -0.239152
C20   C     C_R   0.672534 0.503225 0.499627 -0.081986
C21   C     C_R   0.703925 0.575494 0.405194 -0.038044
C22   C     C_R   0.763369 0.566999 0.405465 -0.141894
C23   C     C_R   0.498283 0.740091 0.500244 0.880526
C24   C     C_R   0.791134 0.490977 0.499844 0.300285
C25   C     C_R   0.492388 0.064459 0.623570 0.136773
C26   C     C_R   0.489922 0.128503 0.500842 -0.106567
C27   C     C_R   0.476746 0.064248 0.380500 -0.228587
C28   C     C_R   0.476272 0.934735 0.380936 -0.232892
C29   C     C_R   0.489407 0.871450 0.501550 -0.110828
C30   C     C_R   0.492094 0.936750 0.624027 0.157876
C31   C     C_3   0.535153 0.929992 0.735749 -0.510419
C32   C     C_3   0.535582 0.071925 0.734891 -0.483071
C33   C     C_R   0.480939 0.397789 0.070981 0.214020
C34   C     C_R   0.610509 0.502139 0.499785 0.866142
C35   C     C_R   0.523637 0.595817 0.072309 -0.125709
C36   C     C_R   0.523981 0.595496 0.928227 -0.131698
C37   C     C_R   0.480939 0.397856 0.928260 0.210982
C38   C     C_3   0.422543 0.343060 0.922169 -0.501538
C39   C     C_3   0.422387 0.343271 0.076433 -0.505271
C40   C     C_R   0.879984 0.593824 0.547713 0.506223
C41   C     C_R   0.880204 0.383614 0.462347 0.506200
C42   C     C_R   0.939853 0.380926 0.462982 -0.016459
C43   C     C_R   0.969629 0.488459 0.506358 -0.021470
C44   C     C_R   0.939558 0.595927 0.549435 -0.015882
H1    H     H_    0.948241 0.190539 0.386938 0.194295
H2    H     H_    0.677199 0.371552 0.666445 0.158935
H3    H     H_    0.788464 0.622452 0.335232 0.147681
H4    H     H_    0.470712 0.112828 0.285279 0.165416
H5    H     H_    0.469906 0.885219 0.285890 0.173792
H6    H     H_    0.516738 0.890754 0.830643 0.200607
H7    H     H_    0.576296 0.887470 0.702505 0.198411
H8    H     H_    0.517626 0.114060 0.829250 0.201815
H9    H     H_    0.576928 0.112284 0.700601 0.204538
H10   H     H_    0.541413 0.674322 0.127063 0.167401
H11   H     H_    0.051999 0.190894 0.386976 0.195010
H12   H     H_    0.542773 0.673122 0.874116 0.144538
H13   H     H_    0.390750 0.408386 0.877839 0.214706
H14   H     H_    0.422698 0.247348 0.877304 0.202847
H15   H     H_    0.390537 0.408820 0.121153 0.215643
H16   H     H_    0.422146 0.247601 0.120357 0.196498
H17   H     H_    0.050967 0.786755 0.625524 0.195053
H18   H     H_    0.947286 0.786199 0.626077 0.194349
H19   H     H_    0.215091 0.489891 0.721558 0.142020
H20   H     H_    0.319442 0.495954 0.721107 0.154791
H21   H     H_    0.318676 0.499159 0.281149 0.154653
H22   H     H_    0.214185 0.493777 0.284208 0.142156
H23   H     H_    0.781756 0.363281 0.667639 0.147650
N1    N     N_R   0.851855 0.489115 0.503787 -0.355764
N2    N     N_R   0.147403 0.489984 0.504239 -0.359891
N3    N     N_R   0.499610 0.499140 0.142800 -0.108192
N4    N     N_R   0.499610 0.499180 0.857150 -0.105309
O1    O     O_R   0.500010 0.316790 0.614690 -0.617479
O2    O     O_2   0.850657 0.282460 0.419565 -0.553562
O3    O     O_2   0.149266 0.282303 0.423019 -0.549866
O4    O     O_2   0.148367 0.697661 0.585612 -0.549559
O5    O     O_R   0.500000 0.316760 0.385350 -0.621612
O6    O     O_R   0.416160 0.499980 0.614700 -0.621227
O7    O     O_R   0.416150 0.499940 0.385360 -0.622804
O8    O     O_R   0.500000 0.683240 0.614650 -0.620127
O9    O     O_R   0.499990 0.683210 0.385310 -0.625310
O10   O     O_R   0.583850 0.500060 0.614640 -0.620345
O11   O     O_R   0.583840 0.500020 0.385300 -0.601067
O12   O     O_2   0.850213 0.695218 0.589852 -0.555558
Zn1   Zn    Zn3+2 0.500000 0.500020 0.653130 0.947041
Zn2   Zn    Zn3+2 0.500000 0.499980 0.346870 0.955232
C45   C     C_R   0.676668 0.667045 0.312752 0.133548
C46   C     C_R   0.685965 0.659572 0.171840 -0.134838
C47   C     C_R   0.662718 0.749876 0.085423 -0.141250
C48   C     C_R   0.630589 0.848861 0.139078 -0.145989
C49   C     C_R   0.621308 0.857170 0.279148 -0.130466
C50   C     C_R   0.644062 0.766542 0.365828 -0.104956
H24   H     H_    0.711212 0.583966 0.129118 0.135440
H25   H     H_    0.669747 0.743336 0.976890 0.143029
H26   H     H_    0.612754 0.918854 0.072104 0.136033
H27   H     H_    0.596849 0.934382 0.320681 0.145682
H28   H     H_    0.637090 0.775051 0.474321 0.102721

loop_
_geom_bond_atom_site_label_1
_geom_bond_atom_site_label_2
_ccdc_geom_bond_type
C27   H4    S    
C46   C47   A    
C4    C9    A    
C17   N2    S    
C41   C42   A    
C19   C20   A    
C19   H2    S    
C7    C8    A    
C26   C27   A    
C37   C38   S    
C18   C24   A    
C5    C6    A    
C23   C29   S    
C28   C29   A    
C9    N2    A    
C11   H19   S    
C45   C50   A    
C30   C31   S    
C15   C16   A    
C15   H21   S    
C18   C19   A    
C28   H5    S    
C48   H26   S    
C7    H17   S    
C50   H28   S    
C21   C45   S    
C3    H11   S    
C32   H8    S    
C35   C36   A    
C35   N3    A    
C16   C17   A    
C12   O7    A    
C34   O10   A    
C23   O9    A    
C29   C30   A    
C36   N4    A    
C20   C34   S    
C25   C32   S    
C22   H3    S    
C5    C43   A    
C38   H14   S    
C13   C14   A    
C35   H10   S    
C40   O12   S    
C41   N1    A    
C2    H1    S    
C38   C39   S    
C1    O1    A    
C49   H27   S    
C45   C46   A    
O6    Zn1   S    
C25   C26   A    
C33   C37   A    
C43   C44   A    
O9    Zn2   S    
C36   H12   S    
C38   H13   S    
C10   O4    S    
C31   C32   S    
C39   H15   S    
C12   O6    A    
C33   C39   S    
C20   C21   A    
O1    Zn1   S    
C33   N3    A    
O7    Zn2   S    
C12   C14   S    
C37   N4    A    
C40   N1    A    
C1    C26   S    
C22   C24   A    
C16   H22   S    
C42   C43   A    
C31   H6    S    
C3    C4    A    
C32   H9    S    
O10   Zn1   S    
C46   H24   S    
N4    Zn1   S    
C25   C30   A    
C47   H25   S    
C11   C17   A    
C1    O5    A    
C8    C44   A    
C31   H7    S    
C4    C5    A    
C6    C10   A    
C6    C7    A    
O11   Zn2   S    
C2    C3    A    
C18   H23   S    
C11   C13   A    
C49   C50   A    
O8    Zn1   S    
C13   H20   S    
C2    C42   A    
C39   H16   S    
C24   N1    S    
C41   O2    S    
C10   N2    A    
C40   C44   A    
C47   C48   A    
C9    O3    S    
C27   C28   A    
C14   C15   A    
C34   O11   A    
C23   O8    A    
C48   C49   A    
C21   C22   A    
N3    Zn2   S    
O5    Zn2   S    
C8    H18   S    
