data_mof_unit_49063.cif
_audit_creation_date              2013-03-05T16:01:47-0500
_audit_creation_method            fapswitch 2.2
_symmetry_space_group_name_H-M    P1
_symmetry_Int_Tables_number       1
_space_group_crystal_system       triclinic
_cell_length_a                    14.971705
_cell_length_b                    14.198652
_cell_length_c                    11.508891
_cell_angle_alpha                 89.595825
_cell_angle_beta                  88.417487
_cell_angle_gamma                 89.269169
_cell_volume                      2445.35031633

loop_
_atom_site_label
_atom_site_type_symbol
_atom_site_description
_atom_site_fract_x
_atom_site_fract_y
_atom_site_fract_z
_atom_type_partial_charge
O1    O     O_R   0.367850 0.580280 0.500030 -0.591464
O2    O     O_R   0.632150 0.419720 0.499970 -0.605788
O3    O     O_R   0.632150 0.580280 0.499970 -0.656827
O4    O     O_R   0.367850 0.419720 0.500030 -0.662863
C1    C     C_R   0.327506 0.500305 0.500637 0.904694
C2    C     C_R   0.672463 0.499167 0.499173 0.901979
O5    O     O_R   0.500010 0.580270 0.334450 -0.576807
O6    O     O_R   0.499990 0.419730 0.665550 -0.590658
O7    O     O_R   0.499990 0.580270 0.665550 -0.653259
O8    O     O_R   0.500010 0.419730 0.334450 -0.654521
C3    C     C_R   0.500165 0.500259 0.282156 0.886418
C4    C     C_R   0.499714 0.499731 0.717846 0.882113
Zn1   Zn    Zn3+2 0.500000 0.607200 0.500000 0.959197
Zn2   Zn    Zn3+2 0.500000 0.392800 0.500000 0.941895
C5    C     C_1   0.500129 0.500665 0.161655 -0.149086
C6    C     C_1   0.499673 0.499293 0.838349 -0.156172
C7    C     C_1   0.499986 0.500324 0.059362 0.019253
C8    C     C_1   0.499774 0.499608 0.940645 0.017826
C9    C     C_R   0.814938 0.505082 0.389479 0.112610
C10   C     C_R   0.184131 0.507522 0.607514 0.108868
C11   C     C_R   0.767911 0.496253 0.496386 -0.058882
C12   C     C_R   0.232014 0.500210 0.501239 -0.055852
C13   C     C_R   0.810805 0.479168 0.600934 0.089628
C14   C     C_R   0.189948 0.486326 0.395775 0.093217
C15   C     C_R   0.903089 0.493507 0.603900 0.069342
C16   C     C_R   0.096982 0.499127 0.392986 0.079351
C17   C     C_R   0.952996 0.494990 0.497202 -0.093045
C18   C     C_R   0.046924 0.496272 0.499434 -0.091535
C19   C     C_R   0.909100 0.494316 0.388542 0.075073
C20   C     C_R   0.090798 0.494068 0.607956 0.062344
C21   C     C_R   0.947244 0.501973 0.710198 0.185542
C22   C     C_R   0.052463 0.509771 0.287031 0.178449
C23   C     C_R   0.039056 0.485050 0.712570 0.196256
C24   C     C_R   0.961546 0.490099 0.283760 0.191988
C25   C     C_R   0.557507 0.797697 0.426816 0.059432
C26   C     C_R   0.443539 0.202446 0.574630 0.053478
C27   C     C_R   0.442438 0.798557 0.572800 0.056733
C28   C     C_R   0.558201 0.201709 0.427795 0.048747
N1    N     N_R   0.500000 0.750030 0.500000 -0.168786
N2    N     N_R   0.500000 0.249970 0.500000 -0.174707
C29   C     C_R   0.443623 0.899413 0.578862 -0.036909
C30   C     C_R   0.556309 0.101008 0.421147 -0.026186
C31   C     C_R   0.561559 0.898726 0.427217 -0.044697
C32   C     C_R   0.438827 0.101643 0.572770 -0.031205
C33   C     C_R   0.500615 0.949589 0.500546 -0.020262
C34   C     C_R   0.499300 0.050729 0.499107 -0.025832
C35   C     C_R   0.388955 0.952027 0.659215 0.201556
C36   C     C_R   0.610110 0.048884 0.339957 0.212179
C37   C     C_R   0.623057 0.951026 0.355786 0.198857
C38   C     C_R   0.376630 0.049909 0.643003 0.209662
C39   C     C_3   0.764598 0.531090 0.280178 -0.895101
H1    H     H_    0.799630 0.588231 0.231826 0.249963
H2    H     H_    0.755157 0.468519 0.225302 0.245695
H3    H     H_    0.696404 0.558676 0.297458 0.228729
C40   C     C_3   0.232358 0.535503 0.716575 -0.856220
H4    H     H_    0.295805 0.571549 0.697454 0.234205
H5    H     H_    0.191637 0.587215 0.767589 0.258144
H6    H     H_    0.250070 0.472733 0.769192 0.227078
C41   C     C_3   0.758559 0.436055 0.703217 -0.845646
H7    H     H_    0.802432 0.402621 0.767819 0.249192
H8    H     H_    0.714148 0.489781 0.745279 0.223826
H9    H     H_    0.717272 0.377060 0.673543 0.270228
C42   C     C_3   0.244108 0.448350 0.291855 -0.884045
H10   H     H_    0.288283 0.389391 0.318915 0.252759
H11   H     H_    0.201756 0.416272 0.225950 0.252277
H12   H     H_    0.285830 0.504733 0.252059 0.238319
C43   C     C_3   0.902084 0.544174 0.817946 -0.902835
H13   H     H_    0.839582 0.582668 0.797034 0.254793
H14   H     H_    0.888070 0.489368 0.884930 0.241044
H15   H     H_    0.946446 0.597182 0.856180 0.247770
C44   C     C_3   0.095529 0.557321 0.181320 -0.891165
H16   H     H_    0.155807 0.597022 0.204277 0.260885
H17   H     H_    0.112878 0.505585 0.112278 0.237174
H18   H     H_    0.048375 0.610130 0.144899 0.245671
C45   C     C_3   0.075627 0.443207 0.823434 -0.906759
H19   H     H_    0.023214 0.403539 0.872450 0.243088
H20   H     H_    0.128463 0.389903 0.803287 0.245881
H21   H     H_    0.099629 0.498872 0.881553 0.246364
C46   C     C_3   0.927707 0.450552 0.171339 -0.895679
H22   H     H_    0.982861 0.417331 0.119016 0.240691
H23   H     H_    0.880646 0.392282 0.189704 0.253655
H24   H     H_    0.897733 0.506561 0.116685 0.246148
C47   C     C_2   0.606335 0.742419 0.338160 0.491782
H25   H     H_    0.668276 0.707318 0.359449 0.053616
O9    O     O_2   0.579308 0.739349 0.239156 -0.571531
C48   C     C_2   0.400277 0.256744 0.669516 0.485924
H26   H     H_    0.345684 0.305084 0.652651 0.067402
O10   O     O_2   0.425625 0.246948 0.768857 -0.575428
C49   C     C_2   0.371393 0.744752 0.631765 0.489363
H27   H     H_    0.386230 0.701524 0.706698 0.049655
O11   O     O_2   0.294860 0.750514 0.598119 -0.568809
C50   C     C_2   0.632270 0.254992 0.373475 0.484249
H28   H     H_    0.619969 0.307015 0.306581 0.073092
O12   O     O_2   0.708747 0.240810 0.404096 -0.575114
C51   C     C_3   0.352200 0.909255 0.771720 -0.882805
H29   H     H_    0.344868 0.963132 0.840937 0.256081
H30   H     H_    0.285572 0.878322 0.758834 0.266271
H31   H     H_    0.399504 0.855965 0.806489 0.219513
C52   C     C_3   0.643965 0.092310 0.226327 -0.882478
H32   H     H_    0.646493 0.039180 0.155878 0.255481
H33   H     H_    0.597538 0.148300 0.196000 0.219210
H34   H     H_    0.712154 0.120485 0.235473 0.266187
C53   C     C_3   0.709062 0.907977 0.305864 -0.895230
H35   H     H_    0.761036 0.962070 0.290458 0.256827
H36   H     H_    0.738687 0.857961 0.368988 0.217759
H37   H     H_    0.697295 0.873405 0.221639 0.266106
C54   C     C_3   0.289863 0.093799 0.689370 -0.892872
H38   H     H_    0.236090 0.040693 0.695934 0.255609
H39   H     H_    0.298637 0.123558 0.777112 0.267047
H40   H     H_    0.264782 0.148475 0.628595 0.215623

loop_
_geom_bond_atom_site_label_1
_geom_bond_atom_site_label_2
_geom_bond_distance
_ccdc_geom_bond_type
C15   C21   1.413112 A    
C40   H4    1.100884 S    
C42   H11   1.106175 S    
C16   C22   1.412021 A    
C17   C19   1.428853 A    
C51   H29   1.110618 S    
O3    C2    1.293397 A    
C13   C41   1.524303 S    
C51   H31   1.109923 S    
C10   C20   1.412624 A    
C33   C34   1.435915 A    
O5    C3    1.289312 A    
O1    C1    1.292854 A    
C9    C11   1.406237 A    
C14   C16   1.402597 A    
C28   C30   1.433087 A    
C48   O10   1.221024 D    
C28   C50   1.472884 S    
C30   C34   1.416816 A    
O7    Zn1   1.940637 S    
C3    C5    1.386821 S    
C23   C45   1.516689 S    
C1    C12   1.429518 S    
C4    C6    1.386814 S    
C54   H38   1.110743 S    
C21   C23   1.393374 A    
C35   C38   1.411405 A    
C25   C31   1.436579 A    
O3    Zn1   2.010292 S    
C42   H12   1.110236 S    
C41   H7    1.106191 S    
C27   C29   1.434569 A    
C54   H39   1.109181 S    
O2    C2    1.285987 A    
C10   C40   1.522849 S    
C45   H21   1.108686 S    
C32   C34   1.417965 A    
C22   C44   1.519171 S    
C41   H8    1.110339 S    
C43   H13   1.108980 S    
C26   N2    1.368900 A    
C46   H22   1.110663 S    
O8    Zn2   1.940638 S    
C46   H23   1.108970 S    
C25   C47   1.465261 S    
C48   H26   1.081393 S    
C31   C37   1.428993 A    
C26   C48   1.471905 S    
C2    C11   1.428576 S    
C19   C24   1.421942 A    
C39   H1    1.109672 S    
C39   H2    1.106427 S    
C22   C24   1.394611 A    
C25   N1    1.369504 A    
C45   H19   1.110664 S    
C24   C46   1.516478 S    
C46   H24   1.108561 S    
C45   H20   1.108784 S    
C47   H25   1.080493 S    
O6    C4    1.289160 A    
C50   O12   1.221121 D    
C7    C8    1.366499 S    
C29   C35   1.426730 A    
C53   H36   1.109648 S    
C30   C36   1.422196 A    
C31   C33   1.419710 A    
C36   C37   1.411687 A    
C47   O9    1.220868 D    
C10   C12   1.404339 A    
C14   C42   1.524152 S    
C40   H5    1.109233 S    
C38   C54   1.518679 S    
C54   H40   1.110107 S    
C12   C14   1.399113 A    
C26   C32   1.434245 A    
O1    Zn1   2.019867 S    
C9    C19   1.415844 A    
C17   C18   1.407556 A    
C44   H17   1.109247 S    
C32   C38   1.423910 A    
C5    C7    1.177386 T    
C36   C52   1.518983 S    
C41   H9    1.108726 S    
O6    Zn2   1.945925 S    
C20   C23   1.419487 A    
C52   H33   1.110115 S    
O4    C1    1.286985 A    
C37   C53   1.518472 S    
C44   H18   1.111192 S    
C51   H30   1.109156 S    
C15   C17   1.419865 A    
C16   C18   1.418997 A    
C52   H32   1.110896 S    
C27   C49   1.465972 S    
C39   H3    1.102291 S    
C43   H15   1.111201 S    
C11   C13   1.397707 A    
C44   H16   1.109167 S    
C27   N1    1.368412 A    
C29   C33   1.418444 A    
C28   N2    1.368287 A    
C18   C20   1.427104 A    
C50   H28   1.081009 S    
C53   H37   1.109026 S    
C13   C15   1.400523 A    
O4    Zn2   2.010294 S    
O2    Zn2   2.019865 S    
O7    C4    1.288499 A    
Zn1   N1    2.027993 S    
O8    C3    1.288358 A    
C21   C43   1.519143 S    
Zn2   N2    2.027995 S    
C42   H10   1.108508 S    
C9    C39   1.524960 S    
O5    Zn1   1.945926 S    
C52   H34   1.109194 S    
C6    C8    1.177395 T    
C49   O11   1.221169 D    
C40   H6    1.107500 S    
C53   H35   1.110203 S    
C35   C51   1.518631 S    
C43   H14   1.109349 S    
C49   H27   1.081393 S    
