data_mof_unit_35916.cif
_audit_creation_date              2012-12-10T18:57:12-0500
_audit_creation_method            fapswitch 2.2
_symmetry_space_group_name_H-M    P1
_symmetry_Int_Tables_number       1
_space_group_crystal_system       triclinic
_cell_length_a                    10.635689
_cell_length_b                    9.908371
_cell_length_c                    10.674808
_cell_angle_alpha                 90.057384
_cell_angle_beta                  91.295772
_cell_angle_gamma                 89.799157
_cell_volume                      1124.64132296

loop_
_atom_site_label
_atom_site_type_symbol
_atom_type_description
_atom_site_fract_x
_atom_site_fract_y
_atom_site_fract_z
_atom_type_partial_charge
C1    C     C_R   0.260716 0.500217 0.498962 0.898553
C2    C     C_R   0.739125 0.499689 0.500321 0.816695
C3    C     C_R   0.572053 0.070174 0.586219 0.012433
C4    C     C_R   0.427316 0.070448 0.414260 0.033649
C5    C     C_R   0.570725 0.926671 0.585350 -0.038972
C6    C     C_R   0.428992 0.926935 0.414909 -0.028842
C7    C     C_R   0.496890 0.499972 0.260017 0.906612
C8    C     C_R   0.497228 0.500087 0.739827 0.842986
C9    C     C_R   0.476559 0.622314 0.063422 0.200227
C10   C     C_R   0.476789 0.622370 0.935666 0.145915
C11   C     C_R   0.478642 0.500294 0.128002 -0.094559
C12   C     C_R   0.478720 0.500453 0.870887 -0.114155
C13   C     C_R   0.457298 0.378932 0.063423 -0.185010
C14   C     C_R   0.457129 0.379017 0.934079 -0.169450
C15   C     C_3   0.564162 0.740056 0.930757 -0.434350
C16   C     C_3   0.563624 0.740229 0.072792 -0.446478
C17   C     C_R   0.062020 0.509412 0.383500 -0.031915
C18   C     C_R   0.931090 0.510276 0.383920 -0.063135
C19   C     C_R   0.871711 0.499017 0.499856 -0.174545
C20   C     C_R   0.127928 0.501116 0.499162 -0.170969
C21   C     C_R   0.937223 0.487854 0.615367 -0.046754
C22   C     C_R   0.068263 0.493128 0.615254 -0.062964
H1    H     H_    0.449543 0.283475 0.111742 0.190655
H2    H     H_    0.448784 0.283645 0.884913 0.188232
H3    H     H_    0.627427 0.869833 0.652393 0.173748
H4    H     H_    0.372213 0.870226 0.348038 0.203303
N1    N     N_R   0.500000 0.857200 0.500000 -0.128727
N2    N     N_R   0.500000 0.142810 0.500000 -0.169759
O1    O     O_R   0.316770 0.614620 0.499990 -0.567527
O2    O     O_R   0.683230 0.614620 0.500010 -0.605480
O3    O     O_R   0.316800 0.385290 0.500000 -0.663473
O4    O     O_R   0.683200 0.385290 0.500000 -0.646717
O5    O     O_R   0.500000 0.614690 0.316780 -0.596488
O6    O     O_R   0.500000 0.614690 0.683220 -0.620693
O7    O     O_R   0.500020 0.385360 0.316780 -0.659190
O8    O     O_R   0.499980 0.385360 0.683220 -0.656930
Zn1   Zn    Zn3+2 0.500000 0.653120 0.500000 0.987042
Zn2   Zn    Zn3+2 0.500000 0.346880 0.500000 0.921375
H5    H     H_    0.657147 0.713292 0.891826 0.219483
H6    H     H_    0.517087 0.830768 0.112641 0.230090
H7    H     H_    0.518196 0.830657 0.888505 0.230607
H8    H     H_    0.656299 0.713909 0.116601 0.236442
C23   C     C_2   0.129058 0.511536 0.262525 0.472793
H9    H     H_    0.096408 0.448834 0.185064 0.120450
O9    O     O_2   0.217531 0.587204 0.246873 -0.559913
C24   C     C_2   0.854497 0.523459 0.265193 0.394223
H10   H     H_    0.763126 0.475832 0.256724 0.057416
O10   O     O_2   0.890557 0.591021 0.177495 -0.534894
C25   C     C_2   0.866914 0.467338 0.733449 0.506248
H11   H     H_    0.775969 0.514945 0.745388 0.015779
O11   O     O_2   0.907190 0.392415 0.815879 -0.508058
C26   C     C_2   0.144399 0.494505 0.734370 0.510703
H12   H     H_    0.232840 0.440080 0.740683 0.033651
O12   O     O_2   0.111362 0.560647 0.824504 -0.502535
C27   C     C_2   0.653392 0.137898 0.681385 0.425107
H13   H     H_    0.678013 0.242363 0.673582 0.140860
O13   O     O_2   0.696207 0.075678 0.771505 -0.570711
C28   C     C_2   0.344080 0.138307 0.320452 0.380144
H14   H     H_    0.322455 0.243863 0.326175 0.135688
O14   O     O_2   0.296134 0.074973 0.233634 -0.577914

loop_
_geom_bond_atom_site_label_1
_geom_bond_atom_site_label_2
_ccdc_geom_bond_type
C27   H13   S    
C17   C23   S    
C7    O5    A    
O4    Zn2   S    
O6    Zn1   S    
C23   O9    D    
C9    C10   A    
C3    C27   S    
C6    N1    A    
O3    Zn2   S    
N2    Zn2   S    
C8    C12   S    
O7    Zn2   S    
C25   O11   D    
O8    Zn2   S    
C17   C18   A    
C28   H14   S    
C8    O6    A    
C21   C22   A    
C7    C11   S    
C11   C13   A    
C5    N1    A    
C15   H5    S    
C6    H4    S    
C10   C12   A    
C16   H6    S    
C5    H3    S    
C21   C25   S    
C18   C24   S    
C7    O7    A    
C1    O1    A    
C3    N2    A    
C19   C21   A    
C9    C16   S    
N1    Zn1   S    
C25   H11   S    
C22   C26   S    
C10   C15   S    
C27   O13   D    
C23   H9    S    
C24   O10   D    
C4    C6    A    
O1    Zn1   S    
C2    O2    A    
C20   C22   A    
C28   O14   D    
C15   C16   S    
C16   H8    S    
C12   C14   A    
C1    O3    A    
C17   C20   A    
C26   H12   S    
C15   H7    S    
C2    O4    A    
C18   C19   A    
C8    O8    A    
C14   H2    S    
C9    C11   A    
C24   H10   S    
C1    C20   S    
C4    C28   S    
C2    C19   S    
C13   C14   A    
C4    N2    A    
O5    Zn1   S    
O2    Zn1   S    
C26   O12   D    
C3    C5    A    
C13   H1    S    
