data_mof_unit_57730.cif
_audit_creation_date              2012-12-10T18:02:51-0500
_audit_creation_method            fapswitch 2.2
_symmetry_space_group_name_H-M    P1
_symmetry_Int_Tables_number       1
_space_group_crystal_system       triclinic
_cell_length_a                    10.881413
_cell_length_b                    9.71225
_cell_length_c                    27.694026
_cell_angle_alpha                 89.925777
_cell_angle_beta                  92.830095
_cell_angle_gamma                 89.904509
_cell_volume                      2923.21131974

loop_
_atom_site_label
_atom_site_type_symbol
_atom_type_description
_atom_site_fract_x
_atom_site_fract_y
_atom_site_fract_z
_atom_type_partial_charge
C1    C     C_R   0.262892 0.499982 0.502320 0.920451
C2    C     C_R   0.737109 0.499825 0.497863 0.928721
C3    C     C_R   0.517132 0.494938 0.101295 -0.124696
C4    C     C_R   0.566717 0.474776 0.899294 -0.124757
C5    C     C_R   0.456090 0.386126 0.124220 -0.143119
C6    C     C_R   0.609684 0.592592 0.875418 -0.133672
C7    C     C_R   0.388398 0.290266 0.095433 0.124582
C8    C     C_R   0.683517 0.687708 0.902180 0.104672
C9    C     C_R   0.552459 0.612639 0.128286 -0.128598
C10   C     C_R   0.521916 0.360310 0.872025 -0.149131
C11   C     C_R   0.494409 0.496467 0.354381 -0.240004
C12   C     C_R   0.517188 0.502284 0.645571 -0.223399
C13   C     C_R   0.509531 0.364392 0.974057 -0.059940
C14   C     C_R   0.610791 0.590043 0.028948 -0.020173
C15   C     C_R   0.628206 0.579076 0.977838 -0.049057
C16   C     C_R   0.482926 0.379356 0.023427 -0.067464
C17   C     C_R   0.567440 0.473229 0.950582 -0.057163
C18   C     C_R   0.537768 0.487934 0.051075 -0.046744
C19   C     C_R   0.485049 0.241332 0.947529 0.446324
C20   C     C_R   0.648945 0.706432 0.057896 0.395578
C21   C     C_R   0.485916 0.240436 0.896909 0.126849
C22   C     C_R   0.603105 0.724906 0.104134 0.103975
C23   C     C_R   0.496420 0.499498 0.407617 0.893493
C24   C     C_R   0.506005 0.500337 0.592337 0.894297
C25   C     C_R   0.392252 0.297783 0.045106 0.487417
C26   C     C_R   0.706557 0.665979 0.951823 0.501696
C27   C     C_R   0.063904 0.372735 0.505173 0.356023
C28   C     C_R   0.936304 0.624520 0.497287 0.350578
C29   C     C_R   0.935342 0.372153 0.495679 0.385839
C30   C     C_R   0.063500 0.624968 0.505029 0.364696
C31   C     C_R   0.871695 0.498968 0.496380 -0.318665
C32   C     C_R   0.128470 0.499405 0.505224 -0.320064
C33   C     C_R   0.423449 0.074394 0.468485 0.224147
C34   C     C_R   0.576376 0.925724 0.531510 0.215970
C35   C     C_R   0.574816 0.072956 0.532008 0.177886
C36   C     C_R   0.423148 0.927027 0.468710 0.209401
C37   C     C_R   0.459177 0.383485 0.175065 0.642715
C38   C     C_R   0.584809 0.603997 0.825246 0.647225
C39   C     C_R   0.536475 0.612567 0.178601 0.638718
C40   C     C_R   0.519823 0.369994 0.821043 0.632971
C41   C     C_R   0.604004 0.469072 0.280170 0.445481
C42   C     C_R   0.420422 0.519053 0.723054 0.455045
C43   C     C_R   0.603741 0.468061 0.330899 0.006197
C44   C     C_R   0.411443 0.521690 0.672219 0.002844
C45   C     C_R   0.382797 0.512895 0.326536 0.059386
C46   C     C_R   0.633829 0.490482 0.670275 0.071628
C47   C     C_R   0.383476 0.515014 0.275770 0.427843
C48   C     C_R   0.642359 0.487075 0.721048 0.428521
C49   C     C_R   0.494268 0.494266 0.252746 0.107322
C50   C     C_R   0.535742 0.500296 0.747297 0.104315
Cu1   Cu    Cu3+1 0.500000 0.640660 0.500000 1.050281
Cu2   Cu    Cu3+1 0.500000 0.359340 0.500000 1.049798
N1    N     N_R   0.495569 0.497126 0.200865 -0.420001
N2    N     N_R   0.544997 0.492145 0.799195 -0.419705
N3    N     N_R   0.500000 0.852070 0.500000 -0.236059
N4    N     N_R   0.500000 0.147930 0.500000 -0.231695
O1    O     O_R   0.319640 0.618740 0.500000 -0.517373
O2    O     O_R   0.680360 0.381260 0.500000 -0.522076
O3    O     O_R   0.680360 0.618740 0.500000 -0.531757
O4    O     O_R   0.319640 0.381260 0.500000 -0.537403
O5    O     O_R   0.500020 0.618770 0.430260 -0.568295
O6    O     O_R   0.499980 0.381230 0.569740 -0.568334
O7    O     O_R   0.499980 0.618770 0.569740 -0.548418
O8    O     O_R   0.500020 0.381230 0.430260 -0.546587
O9    O     O_2   0.430147 0.267872 0.198849 -0.488465
O10   O     O_2   0.598523 0.725130 0.802423 -0.486840
O11   O     O_2   0.492577 0.260082 0.793014 -0.498389
O12   O     O_2   0.567552 0.723043 0.205855 -0.501111
I1    I     I_    0.208119 0.515271 0.358402 -0.260124
I2    I     I_    0.802603 0.489942 0.633870 -0.299543
I3    I     I_    0.298962 0.177557 0.418055 -0.162523
I4    I     I_    0.701966 0.823282 0.581419 -0.231257
I5    I     I_    0.689289 0.171711 0.585721 -0.250711
I6    I     I_    0.298554 0.827545 0.418792 -0.178032
O13   O     O_3   0.277563 0.549351 0.248629 -0.551783
C51   C     C_3   0.208068 0.429916 0.237036 -0.157391
H1    H     H_    0.110570 0.450143 0.244643 0.178853
H2    H     H_    0.237379 0.335370 0.257537 0.185419
H3    H     H_    0.211318 0.409422 0.197750 0.178893
O14   O     O_3   0.753838 0.457963 0.745210 -0.552751
C52   C     C_3   0.820788 0.580623 0.754517 -0.156431
H4    H     H_    0.781200 0.674839 0.736530 0.184653
H5    H     H_    0.915387 0.566841 0.742075 0.192440
H6    H     H_    0.828888 0.598163 0.794088 0.179671
I7    I     I_    0.256702 0.150294 0.123075 -0.212458
I8    I     I_    0.789672 0.846662 0.870497 -0.218657
I9    I     I_    0.236906 0.561579 0.636964 -0.390227
I10   I     I_    0.769149 0.412707 0.370439 -0.265859
O15   O     O_3   0.318421 0.547863 0.749256 -0.543721
C53   C     C_3   0.248653 0.426842 0.755105 -0.159315
H7    H     H_    0.258695 0.348434 0.726136 0.165875
H8    H     H_    0.149929 0.455693 0.754819 0.187449
H9    H     H_    0.272806 0.379902 0.790837 0.177994
O16   O     O_3   0.709040 0.432436 0.256995 -0.544976
C54   C     C_3   0.788057 0.547283 0.253884 -0.168699
H10   H     H_    0.884102 0.512147 0.261517 0.187633
H11   H     H_    0.770184 0.632409 0.279684 0.162663
H12   H     H_    0.782213 0.588374 0.216458 0.172553
I11   I     I_    0.427301 0.050741 0.863163 -0.119015
I12   I     I_    0.590957 0.933386 0.129913 -0.191322
O17   O     O_3   0.461287 0.118696 0.970625 -0.529479
C55   C     C_3   0.573353 0.060479 0.988089 -0.158480
H13   H     H_    0.618709 0.125079 0.016902 0.153130
H14   H     H_    0.636770 0.042125 0.958399 0.172893
H15   H     H_    0.552213 0.959474 0.004171 0.235485
O18   O     O_3   0.718804 0.811532 0.039859 -0.573520
C56   C     C_3   0.835646 0.813167 0.065005 -0.150730
H16   H     H_    0.878727 0.709052 0.066984 0.144498
H17   H     H_    0.830930 0.855105 0.102044 0.161071
H18   H     H_    0.897632 0.881416 0.045246 0.211255
O19   O     O_3   0.300096 0.232456 0.017550 -0.502460
C57   C     C_3   0.211981 0.331419 0.001592 -0.263132
H19   H     H_    0.251240 0.406131 0.976095 0.151075
H20   H     H_    0.173020 0.386811 0.032550 0.143105
H21   H     H_    0.134998 0.277641 0.981856 0.201097
O20   O     O_3   0.819537 0.707902 0.971283 -0.528602
C58   C     C_3   0.901027 0.594455 0.972313 -0.319428
H22   H     H_    0.909916 0.549941 0.935601 0.169276
H23   H     H_    0.871821 0.513796 0.997892 0.151802
H24   H     H_    0.993549 0.630460 0.985272 0.192640
O21   O     O_3   0.126483 0.249672 0.512171 -0.552435
C59   C     C_3   0.152064 0.230120 0.562314 -0.274784
H25   H     H_    0.229795 0.295554 0.575724 0.202108
H26   H     H_    0.180227 0.121606 0.568482 0.174407
H27   H     H_    0.070625 0.250099 0.584174 0.163632
O22   O     O_3   0.876090 0.748896 0.489836 -0.554388
C60   C     C_3   0.874602 0.780320 0.440052 -0.211128
H28   H     H_    0.819601 0.875170 0.433367 0.174927
H29   H     H_    0.829836 0.697509 0.417818 0.167578
H30   H     H_    0.969137 0.800121 0.428140 0.202025
O23   O     O_3   0.871411 0.259233 0.475701 -0.537700
C61   C     C_3   0.904764 0.130584 0.495781 -0.088324
H31   H     H_    0.825348 0.060244 0.490179 0.168739
H32   H     H_    0.924874 0.135469 0.535346 0.153222
H33   H     H_    0.981800 0.084828 0.476385 0.209904
O24   O     O_3   0.125366 0.749443 0.509051 -0.537542
C62   C     C_3   0.094640 0.819232 0.551601 -0.133844
H34   H     H_    0.179170 0.867779 0.567744 0.170564
H35   H     H_    0.056414 0.751824 0.579807 0.174104
H36   H     H_    0.027547 0.902167 0.542376 0.174415

loop_
_geom_bond_atom_site_label_1
_geom_bond_atom_site_label_2
_ccdc_geom_bond_type
O22   C60   S    
C5    C37   A    
C27   C29   A    
C8    C26   A    
C39   O12   S    
C14   C18   A    
C54   H10   S    
Cu1   O5    S    
C51   H3    S    
C57   H20   S    
C52   H4    S    
C27   O21   S    
C54   H12   S    
C47   C49   A    
C29   O23   S    
C62   H35   S    
O17   C55   S    
C55   H15   S    
C43   I10   S    
C19   C21   A    
C51   H2    S    
C58   H23   S    
C21   I11   S    
C9    C22   A    
O18   C56   S    
C9    C39   A    
C33   C36   A    
O20   C58   S    
C3    C18   A    
C10   C40   A    
C34   C35   A    
Cu2   O4    S    
C38   O10   S    
C61   H31   S    
C40   O11   S    
C37   O9    S    
C56   H16   S    
C6    C38   A    
C11   C43   A    
Cu1   O1    S    
C44   I9    S    
C41   C43   A    
Cu1   N3    S    
C37   N1    A    
C33   N4    A    
C48   C50   A    
C35   N4    A    
C34   N3    A    
C56   H17   S    
O16   C54   S    
C42   C44   A    
C41   C49   A    
C57   H19   S    
C52   H5    S    
C28   O22   S    
C20   O18   S    
C45   C47   A    
C10   C21   A    
Cu2   O2    S    
C62   H36   S    
C46   C48   A    
C22   I12   S    
C13   C19   A    
C45   I1    S    
Cu1   Cu2   S    
C14   C20   A    
Cu1   O7    S    
C51   H1    S    
C4    C6    A    
Cu2   O8    S    
C1    O4    A    
C5    C7    A    
C33   I3    S    
C2    O3    A    
O24   C62   S    
C15   C26   A    
C6    C8    A    
C7    I7    S    
C1    C32   S    
C2    C31   S    
O13   C51   S    
C60   H29   S    
C3    C9    A    
C1    O1    A    
C53   H8    S    
C41   O16   S    
C38   N2    A    
C2    O2    A    
C16   C18   A    
C50   N2    S    
C55   H14   S    
O21   C59   S    
C36   I6    S    
C42   C50   A    
C4    C17   A    
C12   C46   A    
C23   O8    A    
C20   C22   A    
C24   O7    A    
C40   N2    A    
C56   H18   S    
C58   H24   S    
Cu1   O3    S    
C59   H26   S    
C60   H28   S    
C34   I4    S    
C52   H6    S    
C53   H9    S    
C16   C25   A    
C15   C17   A    
C35   I5    S    
C24   O6    A    
O19   C57   S    
C27   C32   A    
C28   C31   A    
O14   C52   S    
C3    C5    A    
O23   C61   S    
C54   H11   S    
C62   H34   S    
C12   C24   S    
C30   O24   S    
C7    C25   A    
C13   C17   A    
C42   O15   S    
C48   O14   S    
C59   H27   S    
C28   C30   A    
C59   H25   S    
C60   H30   S    
C47   O13   S    
C29   C31   A    
C36   N3    A    
Cu2   O6    S    
C58   H22   S    
C30   C32   A    
C19   O17   S    
C53   H7    S    
C39   N1    A    
C61   H33   S    
C49   N1    S    
C11   C23   S    
C8    I8    S    
C55   H13   S    
C26   O20   S    
C46   I2    S    
C11   C45   A    
C25   O19   S    
C23   O5    A    
C61   H32   S    
C13   C16   A    
C14   C15   A    
C12   C44   A    
O15   C53   S    
C4    C10   A    
C57   H21   S    
Cu2   N4    S    
