data_mof_unit_36948.cif
_audit_creation_date              2012-10-26T18:47:36-0400
_audit_creation_method            fapswitch 2.2
_symmetry_space_group_name_H-M    P1
_symmetry_Int_Tables_number       1
_space_group_crystal_system       triclinic
_cell_length_a                    10.88953
_cell_length_b                    12.997804
_cell_length_c                    11.663479
_cell_angle_alpha                 100.015555
_cell_angle_beta                  94.107107
_cell_angle_gamma                 90.582164
_cell_volume                      1621.08572918

loop_
_atom_site_label
_atom_site_type_symbol
_atom_type_description
_atom_site_fract_x
_atom_site_fract_y
_atom_site_fract_z
_atom_type_partial_charge
C1    C     C_R   0.498225 0.298993 0.478506 0.545882
C2    C     C_R   0.513411 0.985535 0.656112 -0.142445
C3    C     C_R   0.487578 0.122652 0.354882 -0.138911
C4    C     C_R   0.512420 0.877348 0.645118 -0.138911
C5    C     C_R   0.505800 0.139588 0.566318 -0.137996
C6    C     C_R   0.494198 0.860412 0.433682 -0.137999
C7    C     C_R   0.504839 0.031519 0.556045 0.046973
C8    C     C_R   0.495158 0.968481 0.443955 0.046973
C9    C     C_R   0.436297 0.372839 0.020026 -0.180568
C10   C     C_R   0.563698 0.627163 0.979974 -0.180580
C11   C     C_R   0.434432 0.388934 0.142182 0.053239
C12   C     C_R   0.501774 0.701007 0.521494 0.545884
C13   C     C_R   0.565564 0.611067 0.857818 0.053243
C14   C     C_R   0.518806 0.559755 0.157893 0.031210
C15   C     C_R   0.481196 0.440244 0.842107 0.031206
C16   C     C_R   0.262068 0.502300 0.499697 0.546634
C17   C     C_R   0.737932 0.497700 0.500303 0.546637
C18   C     C_R   0.520473 0.547517 0.034842 -0.003539
C19   C     C_R   0.479526 0.452483 0.965158 -0.003531
C20   C     C_R   0.196525 0.627247 0.162002 -0.100785
C21   C     C_R   0.803480 0.372805 0.838035 -0.100788
C22   C     C_R   0.155172 0.615233 0.269147 -0.043961
C23   C     C_R   0.871912 0.495974 0.501963 -0.008514
C24   C     C_R   0.844827 0.384800 0.730882 -0.043949
C25   C     C_R   0.100526 0.520502 0.282021 0.048197
C26   C     C_R   0.899476 0.479523 0.717987 0.048204
C27   C     C_R   0.087901 0.437816 0.186617 -0.098162
C28   C     C_R   0.912111 0.562219 0.813378 -0.098165
C29   C     C_R   0.125662 0.449247 0.075736 0.015858
C30   C     C_R   0.874355 0.550807 0.924265 0.015850
C31   C     C_R   0.179947 0.546452 0.065815 -0.087011
C32   C     C_R   0.820067 0.453612 0.934208 -0.087017
C33   C     C_R   0.925699 0.503150 0.398261 -0.157514
C34   C     C_R   0.128089 0.504027 0.498038 -0.008516
C35   C     C_R   0.074302 0.496850 0.601740 -0.157519
C36   C     C_R   0.108534 0.361146 0.972207 0.039249
C37   C     C_R   0.167772 0.363687 0.868524 -0.099846
C38   C     C_R   0.152901 0.281703 0.773410 -0.121915
C39   C     C_R   0.078198 0.195383 0.778711 -0.107348
C40   C     C_R   0.017631 0.191108 0.879026 -0.118239
C41   C     C_R   0.031801 0.272951 0.974505 -0.096838
C42   C     C_R   0.891492 0.638920 0.027776 0.039242
C43   C     C_R   0.832241 0.636412 0.131452 -0.099844
C44   C     C_R   0.847117 0.718410 0.226549 -0.121906
C45   C     C_R   0.947400 0.491650 0.605166 -0.031120
C46   C     C_R   0.921841 0.804711 0.221237 -0.107351
C47   C     C_R   0.982422 0.808951 0.120929 -0.118243
C48   C     C_R   0.968245 0.727095 0.025467 -0.096838
C49   C     C_R   0.052601 0.508355 0.394836 -0.031122
C50   C     C_R   0.502828 0.814466 0.533932 -0.001388
C51   C     C_R   0.497171 0.185533 0.466068 -0.001388
C52   C     C_R   0.486587 0.014465 0.343888 -0.142447
Cu1   Cu    Cu3+1 0.509250 0.507730 0.615930 0.928223
Cu2   Cu    Cu3+1 0.490750 0.492270 0.384070 0.928231
H1    H     H_    0.446059 0.368331 0.788216 0.111487
H2    H     H_    0.950412 0.635011 0.798038 0.090334
H3    H     H_    0.868654 0.506883 0.319119 0.133161
H4    H     H_    0.131347 0.493118 0.680882 0.133159
H5    H     H_    0.486680 0.812337 0.347489 0.109578
H6    H     H_    0.513318 0.187663 0.652511 0.109580
H7    H     H_    0.519162 0.843063 0.723521 0.119569
H8    H     H_    0.480836 0.156936 0.276479 0.119569
H9    H     H_    0.479141 0.966904 0.257482 0.097105
H10   H     H_    0.520856 0.033096 0.742517 0.097106
H11   H     H_    0.208144 0.563048 0.984109 0.098271
H12   H     H_    0.553944 0.631668 0.211784 0.111479
H13   H     H_    0.791875 0.437033 0.015922 0.098280
H14   H     H_    0.403721 0.298650 0.968976 0.093067
H15   H     H_    0.596267 0.701354 0.031022 0.093062
H16   H     H_    0.227555 0.427566 0.859182 0.097513
H17   H     H_    0.199721 0.285277 0.695306 0.111911
H18   H     H_    0.066571 0.132116 0.704786 0.107188
H19   H     H_    0.958089 0.124677 0.882451 0.099306
H20   H     H_    0.978672 0.266715 0.047592 0.086656
H21   H     H_    0.772444 0.572547 0.140801 0.097505
H22   H     H_    0.800285 0.714863 0.304648 0.111899
H23   H     H_    0.599846 0.673316 0.817508 0.125399
H24   H     H_    0.933473 0.867988 0.295149 0.107188
H25   H     H_    0.041980 0.875366 0.117496 0.099308
H26   H     H_    0.021382 0.733303 0.952383 0.086661
H27   H     H_    0.400146 0.326686 0.182491 0.125394
H28   H     H_    0.238667 0.700758 0.152382 0.096430
H29   H     H_    0.761336 0.299301 0.847672 0.096430
H30   H     H_    0.165511 0.679627 0.342065 0.103152
H31   H     H_    0.834482 0.320397 0.657976 0.103156
H32   H     H_    0.049604 0.365018 0.201943 0.090330
N1    N     N_R   0.523180 0.519350 0.790130 -0.224619
N2    N     N_R   0.476820 0.480650 0.209870 -0.224615
O1    O     O_R   0.506570 0.354460 0.582000 -0.518910
O2    O     O_R   0.493430 0.645540 0.418000 -0.518907
O3    O     O_R   0.490940 0.341410 0.386200 -0.516285
O4    O     O_R   0.509060 0.658590 0.613800 -0.516286
O5    O     O_R   0.327460 0.506540 0.597900 -0.512156
O6    O     O_R   0.672540 0.493460 0.402100 -0.512147
O7    O     O_R   0.311830 0.493480 0.402100 -0.487514
O8    O     O_R   0.688170 0.506520 0.597900 -0.487517

loop_
_geom_bond_atom_site_label_1
_geom_bond_atom_site_label_2
_ccdc_geom_bond_type
C30   C32   A    
C23   C45   A    
C20   H28   S    
C27   C29   A    
C14   C18   A    
C2    C7    A    
C47   H25   S    
C28   H2    S    
C7    C8    A    
Cu1   Cu2   S    
C11   H27   S    
C15   C19   A    
C29   C36   S    
C16   O5    A    
C17   C23   S    
C35   H4    S    
C12   O2    A    
C36   C37   A    
C24   C26   A    
Cu2   O2    S    
C38   C39   A    
C33   C49   A    
C40   H19   S    
C34   C35   A    
C44   H22   S    
C26   C45   S    
C16   C34   S    
C41   H20   S    
C46   C47   A    
C9    C19   A    
C21   H29   S    
C2    H10   S    
C34   C49   A    
C22   C25   A    
C33   H3    S    
C39   H18   S    
C24   H31   S    
C8    C52   A    
C1    O3    A    
C37   H16   S    
Cu1   O8    S    
C36   C41   A    
C44   C46   A    
C43   H21   S    
C21   C32   A    
C13   H23   S    
Cu1   O5    S    
C39   C40   A    
C5    C7    A    
C3    C51   A    
C18   C19   A    
C6    C8    A    
C23   C33   A    
C4    H7    S    
C10   C13   A    
C4    C50   A    
C15   H1    S    
C27   H32   S    
C2    C4    A    
C43   C44   A    
C37   C38   A    
C1    C51   S    
C47   C48   A    
C11   N2    A    
C13   N1    A    
Cu1   O4    S    
C14   H12   S    
Cu1   N1    S    
C17   O8    A    
C42   C48   A    
C6    C50   A    
C9    C11   A    
Cu2   O7    S    
C32   H13   S    
C40   C41   A    
C20   C22   A    
Cu1   O1    S    
C21   C24   A    
C42   C43   A    
C35   C45   A    
C46   H24   S    
C3    H8    S    
C31   H11   S    
C38   H17   S    
C16   O7    A    
C1    O1    A    
C5    H6    S    
C6    H5    S    
C12   O4    A    
C5    C51   A    
C52   H9    S    
C12   C50   S    
C3    C52   A    
C25   C27   A    
C26   C28   A    
C48   H26   S    
C28   C30   A    
C9    H14   S    
C14   N2    A    
Cu2   O3    S    
C29   C31   A    
Cu2   N2    S    
C10   C18   A    
C25   C49   S    
Cu2   O6    S    
C10   H15   S    
C15   N1    A    
C30   C42   S    
C17   O6    A    
C22   H30   S    
C20   C31   A    
