data_mof_unit_26101.cif
_audit_creation_date              2012-12-10T17:49:38-0500
_audit_creation_method            fapswitch 2.2
_symmetry_space_group_name_H-M    P1
_symmetry_Int_Tables_number       1
_space_group_crystal_system       triclinic
_cell_length_a                    14.725794
_cell_length_b                    14.754532
_cell_length_c                    15.867586
_cell_angle_alpha                 76.636816
_cell_angle_beta                  103.106763
_cell_angle_gamma                 115.355018
_cell_volume                      2998.94213856

loop_
_atom_site_label
_atom_site_type_symbol
_atom_type_description
_atom_site_fract_x
_atom_site_fract_y
_atom_site_fract_z
_atom_type_partial_charge
C1    C     C_R   0.880084 0.312109 0.515058 0.801686
C2    C     C_3   0.991119 0.395271 0.069179 0.276174
C3    C     C_3   0.999420 0.500159 0.082613 0.181472
C4    C     C_3   0.096874 0.586147 0.050296 -0.403782
C5    C     C_3   0.097697 0.584074 0.953394 -0.358237
C6    C     C_1   0.999757 0.500622 0.174837 -0.021673
C7    C     C_1   0.999867 0.499323 0.824945 -0.070249
C8    C     C_1   0.000070 0.499597 0.749372 -0.217365
C9    C     C_R   0.813036 0.203710 0.528246 -0.062618
C10   C     C_R   0.188820 0.794799 0.488419 -0.061126
C11   C     C_R   0.787547 0.026664 0.556504 -0.151132
C12   C     C_R   0.000039 0.499997 0.659657 0.821341
C13   C     C_R   0.852365 0.128939 0.545894 -0.200744
C14   C     C_R   0.708820 0.174823 0.524972 -0.239319
C15   C     C_R   0.643208 0.072317 0.543177 0.007233
C16   C     C_R   0.682533 0.997316 0.552859 0.133265
C17   C     C_R   0.538154 0.042894 0.545304 -0.055992
C18   C     C_R   0.470542 0.941669 0.535084 -0.018083
C19   C     C_R   0.511562 0.868150 0.545295 -0.298199
C20   C     C_R   0.616545 0.894760 0.556711 0.388085
C21   C     C_R   0.497883 0.110419 0.557955 0.386776
C22   C     C_R   0.393646 0.084974 0.541091 -0.204577
C23   C     C_R   0.120054 0.687765 0.486519 0.786061
C24   C     C_R   0.326488 0.989853 0.519943 0.062086
C25   C     C_R   0.364028 0.916720 0.517772 0.108629
C26   C     C_R   0.221464 0.965392 0.505035 -0.164683
C27   C     C_R   0.152911 0.867976 0.490447 -0.188648
C28   C     C_R   0.293394 0.821143 0.497618 -0.219594
C29   C     C_R   0.722092 0.676902 0.359976 0.340149
C30   C     C_R   0.801218 0.642971 0.381883 -0.029888
C31   C     C_R   0.713852 0.509324 0.486918 -0.028935
C32   C     C_R   0.632448 0.541545 0.470965 -0.077365
C33   C     C_R   0.638374 0.627426 0.406397 0.074708
C34   C     C_R   0.000121 0.500235 0.340290 0.818845
C35   C     C_R   0.545659 0.491079 0.516019 0.092003
C36   C     C_R   0.464006 0.524876 0.493768 0.118350
C37   C     C_R   0.474943 0.612268 0.430701 -0.267224
C38   C     C_R   0.560190 0.662236 0.388266 -0.139730
C39   C     C_R   0.537844 0.407514 0.582504 -0.228556
C40   C     C_R   0.450052 0.352331 0.619866 -0.107586
C41   C     C_R   0.367390 0.380517 0.595856 0.039566
C42   C     C_R   0.374034 0.469252 0.534934 -0.088647
C43   C     C_R   0.277733 0.319389 0.631756 0.208163
C44   C     C_R   0.199260 0.354227 0.616225 0.534947
C45   C     C_3   0.993357 0.396258 0.971418 -0.544234
C46   C     C_R   0.288369 0.495560 0.515859 -0.098791
C47   C     C_3   0.904997 0.517694 0.927225 0.353077
C48   C     C_3   0.906980 0.519333 0.025418 -0.475640
C49   C     C_1   0.000112 0.500518 0.250522 -0.165088
C50   C     C_3   0.998738 0.499673 0.916835 0.216625
Cu1   Cu    Cu3+1 0.081750 0.475690 0.522550 0.967903
Cu2   Cu    Cu3+1 0.918250 0.524310 0.477450 0.934560
H1    H     H_    0.916544 0.336774 0.086295 0.135026
H2    H     H_    0.059522 0.382130 0.964595 0.201654
H3    H     H_    0.099839 0.661044 0.056475 0.181846
H4    H     H_    0.317671 0.765062 0.489031 0.140076
H5    H     H_    0.072219 0.849191 0.483357 0.157051
H6    H     H_    0.364826 0.138590 0.548814 0.182577
H7    H     H_    0.819915 0.970817 0.566383 0.183609
H8    H     H_    0.932888 0.149324 0.549148 0.181757
H9    H     H_    0.678948 0.233064 0.505686 0.202343
H10   H     H_    0.923960 0.333690 0.945746 0.148197
H11   H     H_    0.463904 0.788516 0.547890 0.134346
H12   H     H_    0.192319 0.020734 0.507495 0.144429
H13   H     H_    0.563888 0.728413 0.339821 0.184828
H14   H     H_    0.285845 0.559806 0.468306 0.155454
H15   H     H_    0.447751 0.286921 0.668886 0.210783
H16   H     H_    0.868458 0.683093 0.350309 0.139749
H17   H     H_    0.715904 0.445067 0.534561 0.150036
H18   H     H_    0.418449 0.644132 0.412170 0.133911
H19   H     H_    0.598590 0.382170 0.607552 0.172107
H20   H     H_    0.834300 0.451791 0.907458 0.035516
H21   H     H_    0.835210 0.460204 0.047667 0.123641
H22   H     H_    0.910250 0.593543 0.034017 0.209341
H23   H     H_    0.164874 0.570416 0.948384 0.155107
H24   H     H_    0.105827 0.659394 0.914032 0.205012
H25   H     H_    0.166186 0.579118 0.091420 0.169448
N1    N     N_R   0.795410 0.560790 0.443550 -0.202155
N2    N     N_R   0.204590 0.439170 0.556520 -0.225816
O1    O     O_R   0.977910 0.338120 0.529720 -0.531085
O2    O     O_R   0.839850 0.379180 0.491640 -0.590425
O3    O     O_R   0.069060 0.479460 0.639610 -0.575609
O4    O     O_R   0.931000 0.520530 0.601530 -0.578334
O5    O     O_R   0.160150 0.620820 0.508360 -0.591673
O6    O     O_R   0.022090 0.661880 0.470280 -0.586588
O7    O     O_R   0.069000 0.479470 0.398470 -0.565770
O8    O     O_R   0.930940 0.520540 0.360390 -0.579138
O9    O     O_3   0.066557 0.366493 0.125147 -0.712361
H26   H     H_    0.132979 0.411196 0.105225 0.331734
O10   O     O_3   0.655725 0.822060 0.567707 -0.759930
H27   H     H_    0.599441 0.753941 0.568156 0.328196
O11   O     O_3   0.556152 0.196662 0.595589 -0.777173
H28   H     H_    0.612205 0.184333 0.637672 0.319057
O12   O     O_3   0.113192 0.297819 0.656159 -0.613070
C51   C     C_3   0.128776 0.322317 0.741173 0.092467
H29   H     H_    0.056960 0.323986 0.750281 0.182225
H30   H     H_    0.189940 0.398624 0.750552 0.122407
C52   C     C_3   0.149443 0.240839 0.812592 -0.404870
H31   H     H_    0.096186 0.164201 0.797092 0.236098
H32   H     H_    0.228563 0.248830 0.816115 0.248538
C53   C     C_3   0.136366 0.250872 0.902274 -0.906309
H33   H     H_    0.187673 0.327522 0.918829 0.250933
H34   H     H_    0.155375 0.193242 0.952904 0.266890
H35   H     H_    0.056444 0.238059 0.902768 0.256215
O13   O     O_3   0.729705 0.762982 0.298795 -0.617723
C54   C     C_3   0.736370 0.749217 0.215197 0.033231
H36   H     H_    0.671505 0.759659 0.168672 0.163824
H37   H     H_    0.730713 0.672094 0.211824 0.123063
C55   C     C_3   0.835342 0.829846 0.184763 -0.323441
H38   H     H_    0.836834 0.906526 0.181563 0.234015
H39   H     H_    0.901150 0.823474 0.232486 0.210726
C56   C     C_3   0.845749 0.818045 0.094771 -0.914398
H40   H     H_    0.847215 0.742836 0.097063 0.253581
H41   H     H_    0.917747 0.878112 0.074336 0.260815
H42   H     H_    0.781391 0.825434 0.045519 0.256506
O14   O     O_3   0.907710 0.612149 0.877640 -0.599207
C57   C     C_3   0.833480 0.598312 0.802122 0.045691
H43   H     H_    0.757526 0.575748 0.820959 0.140403
H44   H     H_    0.830432 0.538923 0.767847 0.143403
C58   C     C_3   0.859676 0.698187 0.738798 -0.324759
H45   H     H_    0.851311 0.755508 0.767730 0.224460
H46   H     H_    0.939939 0.726774 0.727913 0.228230
C59   C     C_3   0.791267 0.684405 0.650744 -0.854492
H47   H     H_    0.802623 0.630817 0.619528 0.257836
H48   H     H_    0.811092 0.758449 0.606796 0.282330
H49   H     H_    0.710240 0.654620 0.659477 0.261667
O15   O     O_3   0.267394 0.224836 0.678596 -0.767119
H50   H     H_    0.194261 0.181378 0.678967 0.345065

loop_
_geom_bond_atom_site_label_1
_geom_bond_atom_site_label_2
_ccdc_geom_bond_type
C10   C27   A    
C53   H33   S    
C41   C42   A    
C3    C48   S    
C36   C42   A    
C51   H29   S    
C9    C14   A    
C3    C6    S    
C56   H41   S    
C28   H4    S    
C51   C52   S    
C7    C8    T    
C13   H8    S    
C25   C28   A    
C26   C27   A    
C37   C38   A    
Cu2   O6    S    
C24   C26   A    
C46   H14   S    
C57   H44   S    
C42   C46   A    
C46   N2    A    
Cu2   N1    S    
C59   H48   S    
C54   H36   S    
C1    O2    A    
C15   C16   A    
C29   C33   A    
C45   H10   S    
O14   C57   S    
C18   C19   A    
C34   O7    A    
C9    C13   A    
Cu1   O1    S    
C26   H12   S    
C35   C36   A    
C19   H11   S    
C40   H15   S    
C47   C48   S    
C2    O9    S    
C58   C59   S    
C8    C12   S    
C53   H34   S    
C21   C22   A    
C41   C43   A    
C29   O13   S    
O12   C51   S    
C18   C25   A    
C11   H7    S    
Cu1   O7    S    
C56   H40   S    
C58   H46   S    
C47   C50   S    
Cu2   O8    S    
C2    C45   S    
C47   O14   S    
C23   O5    A    
Cu1   Cu2   S    
C32   C35   A    
C48   H22   S    
C59   H47   S    
C1    C9    S    
C24   C25   A    
C27   H5    S    
C55   C56   S    
C43   O15   S    
C39   C40   A    
C59   H49   S    
C14   H9    S    
C20   O10   S    
C17   C21   A    
C12   O4    A    
C5    H23   S    
Cu2   O4    S    
C35   C39   A    
C43   C44   A    
C29   C30   A    
C11   C16   A    
C31   C32   A    
C38   H13   S    
C16   C20   A    
C17   C18   A    
C12   O3    A    
Cu1   O3    S    
C40   C41   A    
C45   H2    S    
C53   H35   S    
C52   H32   S    
C4    H3    S    
C22   C24   A    
C5    C50   S    
C57   C58   S    
O15   H50   S    
C58   H45   S    
C31   N1    A    
C10   C28   A    
C15   C17   A    
C36   C37   A    
C34   C49   S    
C48   H21   S    
C44   N2    A    
C7    C50   S    
C4    C5    S    
C2    H1    S    
C22   H6    S    
C51   H30   S    
C10   C23   S    
C52   C53   S    
O13   C54   S    
C33   C38   A    
C32   C33   A    
C19   C20   A    
C55   H39   S    
C2    C3    S    
C4    H25   S    
C57   H43   S    
C11   C13   A    
O10   H27   S    
C54   H37   S    
C45   C50   S    
C5    H24   S    
O11   H28   S    
C34   O8    A    
C6    C49   T    
Cu2   O2    S    
Cu1   N2    S    
C47   H20   S    
C44   O12   S    
C30   N1    A    
C31   H17   S    
O9    H26   S    
C52   H31   S    
C23   O6    A    
C55   H38   S    
C1    O1    A    
C39   H19   S    
C14   C15   A    
C37   H18   S    
Cu1   O5    S    
C21   O11   S    
C56   H42   S    
C30   H16   S    
C3    C4    S    
C54   C55   S    
