data_mof_unit_55199.cif
_audit_creation_date              2012-12-11T16:08:21-0500
_audit_creation_method            fapswitch 2.2
_symmetry_space_group_name_H-M    P1
_symmetry_Int_Tables_number       1
_space_group_crystal_system       triclinic
_cell_length_a                    19.915534
_cell_length_b                    19.868941
_cell_length_c                    19.806218
_cell_angle_alpha                 110.66129
_cell_angle_beta                  107.042017
_cell_angle_gamma                 110.837613
_cell_volume                      6017.43754275

loop_
_atom_site_label
_atom_site_type_symbol
_atom_type_description
_atom_site_fract_x
_atom_site_fract_y
_atom_site_fract_z
_atom_type_partial_charge
C1    C     C_R   0.665680 0.931100 0.948007 -0.135405
C2    C     C_R   0.342608 0.068984 0.073559 -0.116631
C3    C     C_R   0.451576 0.001173 0.229726 -0.074145
C4    C     C_R   0.474680 0.997183 0.754159 -0.099442
C5    C     C_R   0.742418 0.220228 0.244338 0.084120
C6    C     C_R   0.268114 0.725711 0.768504 0.085424
C7    C     C_R   0.517887 0.774701 0.019928 -0.101746
C8    C     C_R   0.545992 0.276837 0.047375 -0.136146
C9    C     C_3   0.637498 0.596318 0.176742 -0.289137
C10   C     C_3   0.547081 0.549103 0.019119 -0.274522
C11   C     C_3   0.667701 0.636879 0.129034 0.220458
C12   C     C_3   0.516582 0.509640 0.066162 0.226064
C13   C     C_1   0.547635 0.733698 0.054839 -0.054116
C14   C     C_1   0.574442 0.362559 0.074538 -0.033896
C15   C     C_3   0.556738 0.596539 0.142146 0.224486
C16   C     C_3   0.627283 0.549243 0.053120 0.217749
C17   C     C_3   0.587368 0.636303 0.095550 -0.032649
C18   C     C_3   0.596569 0.509176 0.099684 -0.023533
C19   C     C_1   0.569994 0.694753 0.079156 -0.053041
C20   C     C_1   0.590823 0.432082 0.091458 -0.055029
C21   C     C_3   0.473849 0.019573 0.521688 0.485933
C22   C     C_3   0.321577 0.970776 0.423015 0.487563
C23   C     C_R   0.497227 0.070195 0.227620 -0.216677
C24   C     C_R   0.458829 0.928453 0.763185 -0.184163
C25   C     C_3   0.420251 0.945472 0.433886 0.471191
C26   C     C_3   0.375644 0.045413 0.512412 0.470854
C27   C     C_1   0.423059 0.004517 0.287714 -0.044248
C28   C     C_1   0.440803 0.990966 0.677010 -0.062472
C29   C     C_3   0.450241 0.076853 0.497790 -0.599230
C30   C     C_3   0.345794 0.913610 0.448070 -0.585372
C31   C     C_3   0.395558 0.001416 0.408202 -0.079906
C32   C     C_3   0.400506 0.989429 0.537620 -0.091217
C33   C     C_1   0.404884 0.004821 0.339922 0.086497
C34   C     C_1   0.417073 0.988078 0.612836 0.097778
C35   C     C_3   0.990569 0.453402 0.473498 -0.212563
C36   C     C_3   0.051385 0.401612 0.572243 -0.220202
C37   C     C_3   0.002598 0.482202 0.560999 0.284031
C38   C     C_3   0.038109 0.371759 0.483117 0.285089
C39   C     C_1   0.209439 0.640486 0.710021 -0.045961
C40   C     C_1   0.815565 0.261743 0.318223 -0.044005
C41   C     C_3   0.075937 0.462770 0.501110 -0.220135
C42   C     C_3   0.964894 0.391622 0.543528 -0.217104
C43   C     C_3   0.087459 0.491910 0.588799 0.099636
C44   C     C_3   0.953652 0.362828 0.456018 0.091804
C45   C     C_R   0.736492 0.198865 0.167746 -0.133677
C46   C     C_R   0.270663 0.771753 0.840841 -0.124592
C47   C     C_1   0.156933 0.570517 0.657692 -0.055714
C48   C     C_1   0.878105 0.302308 0.380811 -0.055928
C49   C     C_3   0.014668 0.935937 0.089718 0.220154
C50   C     C_3   0.026173 0.061305 0.061911 0.219547
C51   C     C_3   0.008359 0.010788 0.142109 -0.282922
C52   C     C_3   0.031278 0.986707 0.009846 -0.280865
C53   C     C_1   0.815809 0.001300 0.015178 -0.051475
C54   C     C_1   0.213840 0.997878 0.075673 -0.030047
C55   C     C_3   0.957693 0.925403 0.009885 0.220739
C56   C     C_3   0.083066 0.072236 0.141887 0.225475
C57   C     C_3   0.952353 0.999958 0.061304 -0.020998
C58   C     C_3   0.088351 0.997691 0.090391 -0.038181
C59   C     C_1   0.877671 0.000996 0.038151 -0.044157
C60   C     C_1   0.159976 0.997311 0.090053 -0.022817
C61   C     C_R   0.469252 0.803624 0.040183 -0.184039
C62   C     C_R   0.573800 0.231798 0.005584 -0.133909
C63   C     C_R   0.665424 0.195655 0.236811 -0.109655
C64   C     C_R   0.340761 0.770599 0.771278 -0.126874
C65   C     C_R   0.532688 0.795656 0.963138 0.535195
C66   C     C_R   0.498649 0.228047 0.069772 0.542701
C67   C     C_R   0.426786 0.930332 0.157793 0.509598
C68   C     C_R   0.529918 0.069298 0.832316 0.546633
C69   C     C_R   0.735184 0.070578 0.018439 -0.117253
C70   C     C_R   0.272454 0.929351 0.002018 -0.094177
C71   C     C_R   0.742159 0.001115 0.990165 0.069359
C72   C     C_R   0.271685 0.998771 0.048482 0.049478
H1    H     H_    0.650334 0.868500 0.909818 0.175026
H2    H     H_    0.366251 0.131659 0.121651 0.163352
H3    H     H_    0.674571 0.613794 0.240770 0.148028
H4    H     H_    0.510311 0.530922 0.954688 0.143840
H5    H     H_    0.304229 0.848222 0.429779 0.169446
H6    H     H_    0.491906 0.142312 0.516313 0.169392
H7    H     H_    0.964811 0.474280 0.432675 0.132661
H8    H     H_    0.078046 0.381833 0.613720 0.133459
H9    H     H_    0.918213 0.361624 0.559546 0.130650
H10   H     H_    0.122390 0.492516 0.484729 0.131708
H11   H     H_    0.996753 0.020602 0.195326 0.146217
H12   H     H_    0.041375 0.976671 0.955687 0.147719
H13   H     H_    0.514242 0.133885 0.267282 0.137508
H14   H     H_    0.419632 0.863375 0.715029 0.133252
H15   H     H_    0.786821 0.213980 0.154632 0.099374
H16   H     H_    0.229184 0.749582 0.863349 0.106931
H17   H     H_    0.446911 0.797419 0.082182 0.166759
H18   H     H_    0.624245 0.258145 0.994510 0.187909
H19   H     H_    0.649058 0.203973 0.285320 0.105066
H20   H     H_    0.363190 0.746635 0.730486 0.107018
H21   H     H_    0.782797 0.134580 0.046107 0.095543
H22   H     H_    0.231789 0.865243 0.983151 0.117213
N1    N     N_R   0.613530 0.956740 0.956480 -0.048340
N2    N     N_R   0.386470 0.043260 0.043520 -0.047452
N3    N     N_R   0.499750 0.043260 0.156770 -0.066510
N4    N     N_R   0.500250 0.956740 0.843230 -0.070112
N5    N     N_R   0.656790 0.157020 0.113500 -0.047218
N6    N     N_R   0.343210 0.842980 0.886500 -0.044680
N7    N     N_R   0.456490 0.842980 0.999750 -0.065118
N8    N     N_R   0.543510 0.157020 0.000250 -0.078235
N9    N     N_R   0.613500 0.157010 0.156770 -0.042963
N10   N     N_R   0.386500 0.842990 0.843230 -0.046156
N11   N     N_R   0.499770 0.842990 0.956480 -0.085556
N12   N     N_R   0.500230 0.157010 0.043520 -0.092935
N13   N     N_R   0.456470 0.956710 0.113500 -0.083528
N14   N     N_R   0.543530 0.043290 0.886500 -0.086381
N15   N     N_R   0.656800 0.043290 0.999750 -0.047264
N16   N     N_R   0.343200 0.956710 0.000250 -0.050311
Ni1   Ni    Ni4+2 0.500010 0.900760 0.900750 0.231190
Ni2   Ni    Ni4+2 0.499990 0.099240 0.099250 0.235049
Ni3   Ni    Ni4+2 0.599260 0.099260 0.000000 0.223012
Ni4   Ni    Ni4+2 0.400740 0.900740 0.000000 0.242549
C73   C     C_3   0.662942 0.515505 0.999937 -0.334791
C74   C     C_3   0.682509 0.562597 0.955535 -0.933513
H23   H     H_    0.626652 0.558689 0.916554 0.258286
H24   H     H_    0.730655 0.629257 0.000125 0.262987
H25   H     H_    0.705169 0.533938 0.915437 0.259722
H26   H     H_    0.718954 0.519547 0.038672 0.190582
H27   H     H_    0.617418 0.448385 0.953361 0.193792
C75   C     C_3   0.521878 0.631563 0.195698 -0.343407
C76   C     C_3   0.499894 0.583838 0.239008 -0.911801
H28   H     H_    0.447975 0.518934 0.193934 0.258682
H29   H     H_    0.553308 0.582226 0.274775 0.258612
H30   H     H_    0.481288 0.615675 0.281946 0.255653
H31   H     H_    0.568673 0.698228 0.242915 0.189664
H32   H     H_    0.467101 0.629752 0.157637 0.189415
O1    O     O_3   0.445789 0.896678 0.389060 -0.653655
C77   C     C_3   0.453341 0.842623 0.417491 0.289727
H33   H     H_    0.392123 0.793953 0.401284 0.098526
H34   H     H_    0.493690 0.877697 0.485196 0.130521
C78   C     C_3   0.491029 0.798772 0.376176 -0.946160
H35   H     H_    0.552568 0.845816 0.391553 0.260538
H36   H     H_    0.497238 0.755776 0.397879 0.217493
H37   H     H_    0.451525 0.761838 0.308421 0.258496
O2    O     O_3   0.350602 0.094389 0.557588 -0.637363
C79   C     C_3   0.342398 0.147754 0.528329 0.277677
H38   H     H_    0.302730 0.112369 0.460458 0.120718
H39   H     H_    0.403531 0.197035 0.545032 0.100593
C80   C     C_3   0.303175 0.190514 0.568055 -0.913489
H40   H     H_    0.341839 0.227669 0.635937 0.261440
H41   H     H_    0.296761 0.233115 0.545828 0.212740
H42   H     H_    0.241568 0.142776 0.551814 0.256816
O3    O     O_3   0.552276 0.041329 0.576161 -0.633410
C81   C     C_3   0.609673 0.077985 0.553250 0.285472
H43   H     H_    0.620348 0.141279 0.566746 0.096493
H44   H     H_    0.589241 0.038503 0.486876 0.122221
C82   C     C_3   0.690379 0.087523 0.602849 -0.905909
H45   H     H_    0.681724 0.025038 0.589906 0.257601
H46   H     H_    0.736404 0.116999 0.585897 0.207650
H47   H     H_    0.713345 0.127696 0.669557 0.264265
O4    O     O_3   0.243648 0.948236 0.366785 -0.632215
C83   C     C_3   0.185977 0.916085 0.391333 0.288620
H48   H     H_    0.202828 0.963173 0.453891 0.127003
H49   H     H_    0.180566 0.858026 0.390419 0.097436
C84   C     C_3   0.102615 0.894057 0.331640 -0.933661
H50   H     H_    0.082649 0.844779 0.268992 0.264775
H51   H     H_    0.056901 0.870094 0.351170 0.214268
H52   H     H_    0.105808 0.950506 0.330290 0.259784
C85   C     C_3   0.983166 0.546577 0.606395 -0.387303
C86   C     C_3   0.892547 0.516939 0.561818 -0.892338
H53   H     H_    0.874531 0.507077 0.498949 0.258207
H54   H     H_    0.854634 0.457436 0.557616 0.256198
H55   H     H_    0.880662 0.565100 0.596288 0.252888
H56   H     H_    0.000251 0.557157 0.669436 0.191289
H57   H     H_    0.020045 0.606802 0.611190 0.192388
C87   C     C_3   0.054833 0.305861 0.435763 -0.390827
C88   C     C_3   0.144817 0.332767 0.478770 -0.896109
H58   H     H_    0.183786 0.391579 0.482500 0.258243
H59   H     H_    0.163335 0.342808 0.541732 0.259506
H60   H     H_    0.154618 0.283030 0.443522 0.253995
H61   H     H_    0.016670 0.245772 0.430480 0.190594
H62   H     H_    0.037437 0.295991 0.372925 0.192675
C89   C     C_3   0.016185 0.869629 0.111285 -0.341100
C90   C     C_3   0.938079 0.820687 0.112498 -0.920801
H63   H     H_    0.928407 0.863782 0.157068 0.261661
H64   H     H_    0.884299 0.784784 0.050614 0.262533
H65   H     H_    0.943349 0.775598 0.131320 0.259031
H66   H     H_    0.025245 0.825929 0.066695 0.190955
H67   H     H_    0.069215 0.901640 0.173054 0.203535
C91   C     C_3   0.027126 0.128424 0.040460 -0.347578
C92   C     C_3   0.107071 0.177318 0.042056 -0.907418
H68   H     H_    0.158906 0.215073 0.105376 0.263270
H69   H     H_    0.119433 0.134065 0.001084 0.258002
H70   H     H_    0.102516 0.220742 0.020334 0.253217
H71   H     H_    0.975737 0.097189 0.977753 0.189040
H72   H     H_    0.017166 0.172152 0.083953 0.187336
C93   C     C_3   0.157468 0.151564 0.219693 -0.348424
C94   C     C_3   0.134801 0.213870 0.262026 -0.915248
H73   H     H_    0.112802 0.237422 0.222479 0.262886
H74   H     H_    0.086605 0.184159 0.276624 0.259474
H75   H     H_    0.189666 0.268153 0.320261 0.254726
H76   H     H_    0.184206 0.133427 0.262948 0.188885
H77   H     H_    0.204644 0.181563 0.204230 0.190356
C95   C     C_3   0.883491 0.845277 0.932438 -0.353546
C96   C     C_3   0.906608 0.783237 0.890604 -0.901495
H78   H     H_    0.955513 0.813298 0.876945 0.256761
H79   H     H_    0.927722 0.759198 0.930003 0.261411
H80   H     H_    0.852120 0.729198 0.831910 0.253673
H81   H     H_    0.836886 0.815312 0.948496 0.190854
H82   H     H_    0.855896 0.862435 0.888611 0.188838
O5    O     O_3   0.554041 0.758591 0.905482 -0.656809
C97   C     C_3   0.602515 0.726199 0.931331 0.252939
H83   H     H_    0.563696 0.666320 0.926055 0.125533
H84   H     H_    0.653901 0.772337 0.995154 0.093398
C98   C     C_3   0.639394 0.706346 0.874897 -0.944863
H85   H     H_    0.680552 0.764078 0.878601 0.244863
H86   H     H_    0.675913 0.678914 0.893682 0.223419
H87   H     H_    0.590041 0.660716 0.810374 0.270236
O6    O     O_3   0.475994 0.253991 0.129720 -0.651087
C99   C     C_3   0.441065 0.302875 0.120023 0.258069
H88   H     H_    0.407017 0.283771 0.054375 0.077475
H89   H     H_    0.490002 0.369980 0.156240 0.126819
C100  C     C_3   0.380936 0.293824 0.153851 -0.949829
H90   H     H_    0.410833 0.307478 0.217817 0.267332
H91   H     H_    0.359794 0.338559 0.153819 0.221403
H92   H     H_    0.326759 0.229334 0.114878 0.247931
O7    O     O_3   0.359941 0.850768 0.121528 -0.654753
C101  C     C_3   0.364619 0.820503 0.176552 0.263874
H93   H     H_    0.336199 0.841082 0.213878 0.155191
H94   H     H_    0.428756 0.841163 0.217827 0.105918
C102  C     C_3   0.315785 0.725115 0.127812 -0.922825
H95   H     H_    0.342568 0.700491 0.090508 0.246768
H96   H     H_    0.316743 0.700975 0.170624 0.221566
H97   H     H_    0.251297 0.702242 0.086343 0.266311
O8    O     O_3   0.573789 0.152744 0.854438 -0.663488
C103  C     C_3   0.534690 0.171624 0.797957 0.288145
H98   H     H_    0.467896 0.142760 0.777856 0.102172
H99   H     H_    0.545710 0.151036 0.744394 0.145955
C104  C     C_3   0.571470 0.266061 0.838496 -0.943770
H100  H     H_    0.638847 0.298118 0.863053 0.264958
H101  H     H_    0.544877 0.281655 0.792676 0.228641
H102  H     H_    0.557579 0.289093 0.889434 0.248441
C105  C     C_3   0.751041 0.715199 0.167594 -0.350780
C106  C     C_3   0.821627 0.701263 0.198890 -0.909595
H103  H     H_    0.816995 0.678165 0.241816 0.258789
H104  H     H_    0.821799 0.655575 0.146936 0.263019
H105  H     H_    0.880523 0.761449 0.232167 0.254848
H106  H     H_    0.754392 0.734626 0.122003 0.186330
H107  H     H_    0.757054 0.766867 0.220025 0.186529
C107  C     C_3   0.430563 0.434193 0.026070 -0.371483
C108  C     C_3   0.363759 0.451120 0.989865 -0.881820
H108  H     H_    0.365870 0.502365 0.038819 0.258970
H109  H     H_    0.370657 0.468103 0.943576 0.256353
H110  H     H_    0.302966 0.393754 0.959203 0.249530
H111  H     H_    0.423986 0.379777 0.976084 0.187516
H112  H     H_    0.422532 0.417714 0.072109 0.178037

loop_
_geom_bond_atom_site_label_1
_geom_bond_atom_site_label_2
_ccdc_geom_bond_type
C25   C31   S    
C79   H39   S    
N5    N9    A    
O5    C97   S    
C98   H87   S    
C26   C32   S    
C94   H73   S    
C73   H27   S    
C15   C75   S    
C88   H59   S    
C88   H58   S    
C75   H31   S    
C36   C42   S    
C102  H95   S    
C66   O6    S    
C92   H68   S    
C26   O2    S    
C25   O1    S    
C101  H94   S    
O3    C81   S    
C53   C59   T    
C102  H97   S    
C101  H93   S    
C76   H28   S    
N12   Ni2   S    
C27   C33   T    
C87   H62   S    
N2    Ni2   S    
C1    C71   A    
C24   N4    A    
C102  H96   S    
C37   C85   S    
C45   H15   S    
C86   H53   S    
C69   H21   S    
C67   O7    S    
C82   H46   S    
C81   H44   S    
C4    C24   A    
C76   H29   S    
C96   H78   S    
C10   C17   S    
C58   C60   S    
C108  H108  S    
C86   H55   S    
C45   N5    A    
N6    N10   A    
N4    N14   A    
C106  H103  S    
C5    C63   A    
C96   H79   S    
C51   C56   S    
C105  H106  S    
C6    C64   A    
C37   C42   S    
C52   H12   S    
C91   C92   S    
C105  H107  S    
C21   C25   S    
C70   N16   A    
C94   H75   S    
C30   H5    S    
C69   N15   A    
C93   H76   S    
C90   H65   S    
C11   C17   S    
C29   H6    S    
C89   C90   S    
C74   H24   S    
C108  H109  S    
C78   H37   S    
C50   C52   S    
C105  C106  S    
C12   C15   S    
N8    N12   A    
C8    C66   A    
C51   C57   S    
C104  H102  S    
C6    C46   A    
N16   Ni4   S    
C86   H54   S    
C85   H56   S    
C2    H2    S    
C52   C55   S    
N15   Ni3   S    
C89   H67   S    
C90   H64   S    
C55   C95   S    
N11   Ni1   S    
C28   C34   T    
C84   H51   S    
N2    N16   A    
N7    N11   A    
N7    Ni4   S    
C41   C43   S    
C10   H4    S    
C50   C91   S    
C42   H9    S    
C42   C44   S    
C66   N12   A    
C2    C72   A    
C10   C12   S    
C103  H99   S    
C103  H98   S    
C4    C28   S    
C61   H17   S    
C85   C86   S    
C46   H16   S    
C56   C58   S    
C11   C105  S    
C87   H61   S    
C21   C32   S    
C68   O8    S    
C69   C71   A    
C22   C31   S    
C13   C19   T    
C98   H85   S    
C14   C20   T    
N6    Ni4   S    
C83   C84   S    
C63   N9    A    
C36   H8    S    
C100  H92   S    
O7    C101  S    
C4    C68   A    
N3    Ni2   S    
C103  C104  S    
C76   H30   S    
C54   C60   T    
C49   C51   S    
C3    C23   A    
C49   C55   S    
C5    C45   A    
C2    N2    A    
C107  H112  S    
C49   C58   S    
C84   H50   S    
N9    Ni2   S    
C80   H41   S    
C32   C34   S    
N14   Ni3   S    
C37   C43   S    
C96   H80   S    
C61   N7    A    
C100  H90   S    
N13   Ni4   S    
C38   C44   S    
C7    C65   A    
C81   C82   S    
C11   C16   S    
C93   H77   S    
O8    C103  S    
C65   O5    S    
C99   C100  S    
C1    N1    A    
C108  H110  S    
C31   C33   S    
C107  C108  S    
C104  H101  S    
C91   H72   S    
C99   H88   S    
C35   C44   S    
C9    C11   S    
C83   H48   S    
C85   H57   S    
C52   C58   S    
C38   C41   S    
C87   C88   S    
C23   N3    A    
C99   H89   S    
C84   H52   S    
C12   C107  S    
C55   C57   S    
N1    N15   A    
C78   H35   S    
C88   H60   S    
C82   H47   S    
C77   C78   S    
C21   O3    S    
C64   H20   S    
C63   H19   S    
C36   C38   S    
C53   C71   S    
C16   C73   S    
C51   H11   S    
C49   C89   S    
C39   C47   T    
C81   H43   S    
C25   C30   S    
C40   C48   T    
C46   N6    A    
C56   C93   S    
C90   H63   S    
C8    C14   S    
N4    Ni1   S    
C22   C30   S    
C35   C37   S    
C9    C15   S    
C50   C57   S    
C83   H49   S    
C94   H74   S    
C3    C67   A    
C97   H84   S    
C95   C96   S    
C79   C80   S    
C21   C29   S    
N5    Ni3   S    
N10   Ni1   S    
C70   C72   A    
C65   N11   A    
C15   C17   S    
C89   H66   S    
C80   H42   S    
C70   H22   S    
C68   N14   A    
O2    C79   S    
C107  H111  S    
C74   H25   S    
C92   H70   S    
C77   H34   S    
C1    H1    S    
C92   H69   S    
C64   N10   A    
O1    C77   S    
C23   H13   S    
C98   H86   S    
C29   C31   S    
N8    Ni3   S    
N1    Ni1   S    
C82   H45   S    
C30   C32   S    
C95   H81   S    
C67   N13   A    
C38   C87   S    
C24   H14   S    
C41   H10   S    
C62   H18   S    
C3    C27   S    
C17   C19   S    
C106  H104  S    
C74   H23   S    
C77   H33   S    
C97   C98   S    
C18   C20   S    
C91   H71   S    
C101  C102  S    
C75   H32   S    
C93   C94   S    
C35   C41   S    
C50   C56   S    
C100  H91   S    
C57   C59   S    
C79   H38   S    
O6    C99   S    
N3    N13   A    
C44   C48   S    
C9    C18   S    
C7    C13   S    
C54   C72   S    
C97   H83   S    
C26   C29   S    
C16   C18   S    
C73   H26   S    
C22   C26   S    
C5    C40   S    
C12   C18   S    
C104  H100  S    
C78   H36   S    
C6    C39   S    
C36   C43   S    
C10   C16   S    
C35   H7    S    
C9    H3    S    
C62   N8    A    
C75   C76   S    
C80   H40   S    
C43   C47   S    
C106  H105  S    
C7    C61   A    
C73   C74   S    
C95   H82   S    
C8    C62   A    
O4    C83   S    
C22   O4    S    
