data_mof_unit_20176.cif
_audit_creation_date              2012-12-10T17:09:52-0500
_audit_creation_method            fapswitch 2.2
_symmetry_space_group_name_H-M    P1
_symmetry_Int_Tables_number       1
_space_group_crystal_system       triclinic
_cell_length_a                    10.759199
_cell_length_b                    12.987857
_cell_length_c                    11.722147
_cell_angle_alpha                 99.566344
_cell_angle_beta                  93.154619
_cell_angle_gamma                 90.999203
_cell_volume                      1612.22586882

loop_
_atom_site_label
_atom_site_type_symbol
_atom_type_description
_atom_site_fract_x
_atom_site_fract_y
_atom_site_fract_z
_atom_type_partial_charge
C1    C     C_R   0.496999 0.299272 0.478910 0.780249
C2    C     C_R   0.066615 0.411805 0.545913 0.100382
C3    C     C_R   0.128836 0.491730 0.501012 -0.082722
C4    C     C_R   0.062744 0.566468 0.451838 -0.188865
C5    C     C_R   0.934508 0.565754 0.450328 -0.211786
C6    C     C_R   0.870765 0.489861 0.497261 -0.089116
C7    C     C_R   0.502355 0.814217 0.533736 -0.059020
C8    C     C_R   0.491671 0.185970 0.467211 -0.052263
C9    C     C_R   0.451595 0.016020 0.349331 -0.186584
C10   C     C_R   0.458794 0.124082 0.359454 -0.185541
C11   C     C_R   0.517680 0.139262 0.564861 -0.286172
C12   C     C_R   0.262628 0.497674 0.500524 0.791205
C13   C     C_R   0.511481 0.031248 0.555285 0.171718
C14   C     C_R   0.478028 0.969159 0.446700 0.163467
C15   C     C_R   0.472473 0.861112 0.436997 -0.206149
C16   C     C_R   0.534434 0.876162 0.641695 -0.179662
C17   C     C_R   0.538696 0.984336 0.652466 -0.195086
C18   C     C_R   0.383230 0.401190 0.023316 -0.325610
C19   C     C_R   0.394574 0.410393 0.144935 0.073218
C20   C     C_R   0.550246 0.544188 0.155705 0.145741
C21   C     C_R   0.541893 0.537126 0.032840 0.035506
C22   C     C_R   0.457187 0.464575 0.966275 0.050452
C23   C     C_R   0.501283 0.700767 0.521236 0.818618
C24   C     C_R   0.449368 0.457145 0.843937 0.040676
C25   C     C_R   0.605715 0.589502 0.853505 0.087392
C26   C     C_R   0.616937 0.599545 0.974364 -0.303866
C27   C     C_R   0.737258 0.496891 0.498961 0.791558
C28   C     C_R   0.131768 0.331297 0.588878 -0.292173
C29   C     C_R   0.068208 0.251708 0.630834 0.057748
C30   C     C_R   0.937976 0.251546 0.629104 -0.106418
C31   C     C_R   0.872157 0.329634 0.585752 -0.227428
C32   C     C_R   0.935248 0.410876 0.544059 0.101971
Cu1   Cu    Cu3+1 0.509250 0.507730 0.615930 0.938097
Cu2   Cu    Cu3+1 0.490750 0.492270 0.384070 0.950864
H1    H     H_    0.111028 0.626874 0.416407 0.153002
H2    H     H_    0.564278 0.031115 0.736210 0.141463
H3    H     H_    0.543479 0.186723 0.648255 0.152907
H4    H     H_    0.684730 0.656008 0.020658 0.168074
H5    H     H_    0.337142 0.360878 0.187441 0.133618
H6    H     H_    0.232175 0.328481 0.588524 0.131538
H7    H     H_    0.886644 0.190301 0.660157 0.174561
H8    H     H_    0.771629 0.324493 0.583587 0.154594
H9    H     H_    0.884918 0.626392 0.415136 0.148899
H10   H     H_    0.445057 0.813747 0.354024 0.190229
H11   H     H_    0.557536 0.841085 0.717505 0.161181
H12   H     H_    0.425895 0.969229 0.265620 0.150879
N1    N     N_R   0.523180 0.519350 0.790130 -0.182114
N2    N     N_R   0.476820 0.480650 0.209890 -0.212833
O1    O     O_R   0.506570 0.354460 0.582000 -0.603924
O2    O     O_R   0.490940 0.341410 0.386200 -0.588527
O3    O     O_R   0.327470 0.506530 0.597920 -0.579370
O4    O     O_R   0.311840 0.493480 0.402120 -0.583617
O5    O     O_R   0.509060 0.658590 0.613800 -0.591158
O6    O     O_R   0.493430 0.645540 0.418000 -0.562851
O7    O     O_R   0.688160 0.506520 0.597880 -0.583194
O8    O     O_R   0.672530 0.493470 0.402080 -0.602681
H13   H     H_    0.437679 0.159132 0.283249 0.157616
H14   H     H_    0.384357 0.401691 0.791614 0.112561
H15   H     H_    0.663499 0.638024 0.810093 0.130802
H16   H     H_    0.317171 0.344552 0.974212 0.146903
C33   C     C_2   0.640770 0.619446 0.224271 0.400875
H17   H     H_    0.727963 0.592785 0.257507 0.065405
O9    O     O_2   0.622175 0.712949 0.236621 -0.575419
C34   C     C_2   0.139586 0.168678 0.674801 0.344148
H18   H     H_    0.240537 0.169952 0.674673 0.065769
O10   O     O_2   0.086920 0.097941 0.711576 -0.539735

loop_
_geom_bond_atom_site_label_1
_geom_bond_atom_site_label_2
_ccdc_geom_bond_type
C16   H11   S    
Cu1   O7    S    
C6    C32   A    
C9    C14   A    
C30   H7    S    
Cu2   O8    S    
C29   C30   A    
C17   H2    S    
Cu1   O3    S    
C1    C8    S    
C9    C10   A    
C25   N1    A    
Cu2   O4    S    
C6    C27   S    
C14   C15   A    
C13   C17   A    
C30   C31   A    
C21   C26   A    
C34   H18   S    
C12   O3    A    
C7    C15   A    
C2    C3    A    
C5    H9    S    
C29   C34   S    
C9    H12   S    
C13   C14   A    
C11   C13   A    
Cu2   O6    S    
C20   N2    A    
C19   H5    S    
C8    C11   A    
C7    C23   S    
C5    C6    A    
C2    C32   A    
C18   H16   S    
C28   C29   A    
C31   H8    S    
Cu1   Cu2   S    
C15   H10   S    
C23   O5    A    
C27   O7    A    
Cu1   O5    S    
C33   H17   S    
Cu1   N1    S    
C22   C24   A    
Cu2   O2    S    
Cu2   N2    S    
C28   H6    S    
Cu1   O1    S    
C3    C4    A    
C21   C22   A    
C10   H13   S    
C20   C21   A    
C23   O6    A    
C24   H14   S    
C18   C19   A    
C1    O2    A    
C20   C33   S    
C11   H3    S    
C4    H1    S    
C27   O8    A    
C26   H4    S    
C2    C28   A    
C3    C12   S    
C25   H15   S    
C12   O4    A    
C25   C26   A    
C18   C22   A    
C24   N1    A    
C1    O1    A    
C8    C10   A    
C7    C16   A    
C31   C32   A    
C16   C17   A    
C19   N2    A    
C4    C5    A    
C33   O9    D    
C34   O10   D    
