data_mof_unit_40419.cif
_audit_creation_date              2012-12-10T17:18:55-0500
_audit_creation_method            fapswitch 2.2
_symmetry_space_group_name_H-M    P1
_symmetry_Int_Tables_number       1
_space_group_crystal_system       triclinic
_cell_length_a                    9.64946
_cell_length_b                    10.839612
_cell_length_c                    13.425244
_cell_angle_alpha                 95.362824
_cell_angle_beta                  72.536559
_cell_angle_gamma                 90.818796
_cell_volume                      1333.50602733

loop_
_atom_site_label
_atom_site_type_symbol
_atom_type_description
_atom_site_fract_x
_atom_site_fract_y
_atom_site_fract_z
_atom_type_partial_charge
C1    C     C_R   0.504002 0.736123 0.491332 0.818893
C2    C     C_R   0.435680 0.473659 0.977209 0.080159
C3    C     C_R   0.473484 0.448802 0.866947 0.028323
C4    C     C_R   0.545013 0.462571 0.027367 0.022851
C5    C     C_R   0.686315 0.416422 0.968525 0.149875
C6    C     C_R   0.715245 0.375861 0.861310 0.134149
C7    C     C_R   0.607262 0.388649 0.813287 -0.198205
C8    C     C_R   0.518124 0.498360 0.134659 -0.236894
C9    C     C_R   0.762694 0.442528 0.126365 -0.172103
C10   C     C_R   0.375153 0.483394 0.813505 -0.091116
C11   C     C_R   0.299029 0.874735 0.403888 0.238153
C12   C     C_R   0.421982 0.493209 0.699321 0.748604
C13   C     C_R   0.163662 0.930093 0.416953 -0.141139
C14   C     C_R   0.125952 0.042999 0.476596 -0.172747
C15   C     C_R   0.228533 0.107638 0.514037 -0.081898
C16   C     C_R   0.370107 0.057826 0.494886 0.000545
C17   C     C_R   0.394088 0.931601 0.457641 0.098790
C18   C     C_R   0.509163 0.868973 0.478851 -0.204824
C19   C     C_R   0.617924 0.937096 0.507134 -0.282592
C20   C     C_R   0.611646 0.064961 0.518500 0.610424
C21   C     C_R   0.488912 0.127681 0.511363 -0.253629
C22   C     C_R   0.921314 0.346692 0.340838 0.642204
C23   C     C_R   0.495683 0.262764 0.506411 0.918692
C24   C     C_R   0.026516 0.288937 0.256604 -0.380198
C25   C     C_R   0.167872 0.285492 0.256568 -0.011860
C26   C     C_R   0.205141 0.343778 0.341534 0.652558
C27   C     C_R   0.105675 0.424105 0.422739 -0.169219
C28   C     C_R   0.955785 0.424571 0.422709 -0.030139
C29   C     C_R   0.899815 0.573469 0.571850 0.125683
C30   C     C_R   0.047041 0.571367 0.571673 0.674752
C31   C     C_R   0.578358 0.498147 0.299968 0.870825
C32   C     C_R   0.794369 0.409524 0.019175 -0.199127
C33   C     C_R   0.622956 0.483332 0.185022 -0.038406
C34   C     C_R   0.232549 0.519753 0.871320 -0.169265
C35   C     C_R   0.189485 0.528470 0.979976 -0.166744
C36   C     C_R   0.289593 0.508157 0.032806 -0.160992
Cu1   Cu    Cu3+1 0.359340 0.500010 0.500010 1.034379
Cu2   Cu    Cu3+1 0.640660 0.499990 0.499990 1.010459
H1    H     H_    0.846389 0.432388 0.163566 0.164815
H2    H     H_    0.088014 0.886324 0.379627 0.145160
H3    H     H_    0.019292 0.083397 0.489760 0.201902
H4    H     H_    0.192552 0.193889 0.561354 0.160591
H5    H     H_    0.994183 0.235916 0.194806 0.206401
H6    H     H_    0.903243 0.376081 0.977247 0.151463
H7    H     H_    0.415060 0.537468 0.181776 0.147463
H8    H     H_    0.154431 0.543959 0.832614 0.189001
H9    H     H_    0.247662 0.517756 0.117101 0.123574
H10   H     H_    0.078758 0.555357 0.023797 0.144189
H11   H     H_    0.628448 0.348050 0.733503 0.201683
H12   H     H_    0.707975 0.891470 0.522006 0.185467
N1    N     N_R   0.852480 0.498790 0.499000 -0.192254
N2    N     N_R   0.148360 0.498710 0.498970 -0.234065
O1    O     O_R   0.381190 0.680360 0.500010 -0.528117
O2    O     O_R   0.618760 0.680340 0.500000 -0.610521
O3    O     O_R   0.323240 0.499990 0.650990 -0.540291
O4    O     O_R   0.560820 0.499960 0.650980 -0.602556
O5    O     O_R   0.381240 0.319660 0.500000 -0.541969
O6    O     O_R   0.618810 0.319640 0.499990 -0.452841
O7    O     O_R   0.439180 0.500040 0.349020 -0.551369
O8    O     O_R   0.676760 0.500010 0.349010 -0.544921
C37   C     C_3   0.345098 0.768311 0.320118 -0.852303
H13   H     H_    0.332238 0.795481 0.245581 0.216424
H14   H     H_    0.461160 0.742849 0.303589 0.208702
H15   H     H_    0.274998 0.687372 0.343256 0.244556
F1    F     F_    0.723390 0.126509 0.541583 -0.681751
C38   C     C_3   0.801267 0.662270 0.655274 -0.701631
H16   H     H_    0.851836 0.755062 0.654443 0.220363
H17   H     H_    0.694660 0.677706 0.645721 0.259868
H18   H     H_    0.785641 0.628420 0.733428 0.226488
F2    F     F_    0.789332 0.310475 0.339064 -0.631710
C39   C     C_3   0.277645 0.207987 0.170320 -0.696385
H19   H     H_    0.231679 0.170431 0.107282 0.205568
H20   H     H_    0.372586 0.265055 0.134440 0.243866
H21   H     H_    0.314860 0.128800 0.203124 0.254783
F3    F     F_    0.335836 0.306713 0.342691 -0.636813
C40   C     C_3   0.860261 0.319696 0.796006 -0.854604
H22   H     H_    0.862840 0.292271 0.713606 0.253151
H23   H     H_    0.947533 0.388189 0.793932 0.228668
H24   H     H_    0.883266 0.235544 0.829908 0.236784
F4    F     F_    0.089273 0.644733 0.644655 -0.666047

loop_
_geom_bond_atom_site_label_1
_geom_bond_atom_site_label_2
_ccdc_geom_bond_type
C23   O6    A    
C38   H17   S    
C16   C21   A    
Cu2   O8    S    
C35   C36   A    
C40   H24   S    
C4    C8    A    
C26   C27   A    
Cu1   Cu2   S    
C40   H23   S    
C34   C35   A    
C3    C7    A    
C5    C6    A    
C28   N1    A    
C38   H18   S    
C15   C16   A    
C9    H1    S    
C36   H9    S    
C18   C19   A    
C31   O7    A    
C37   H14   S    
C1    C18   S    
C8    H7    S    
C13   H2    S    
C1    O1    A    
C9    C32   A    
Cu2   O6    S    
C19   C20   A    
C16   C17   A    
C31   C33   S    
C34   H8    S    
C5    C32   A    
Cu1   O1    S    
C38   H16   S    
C22   C28   A    
C13   C14   A    
C9    C33   A    
C35   H10   S    
C26   F3    S    
C20   F1    S    
C40   H22   S    
C7    H11   S    
C39   H20   S    
Cu1   N2    S    
Cu2   N1    S    
C25   C26   A    
C31   O8    A    
C37   H15   S    
C2    C4    A    
C1    O2    A    
C29   C30   A    
Cu2   O2    S    
C17   C18   A    
C32   H6    S    
C10   C34   A    
C12   O4    A    
C24   C25   A    
Cu1   O7    S    
C10   C12   S    
C14   H3    S    
C25   C39   S    
C21   C23   S    
C22   C24   A    
C27   N2    A    
C29   N1    A    
C2    C36   A    
C23   O5    A    
C30   N2    A    
C11   C17   A    
C15   H4    S    
C4    C5    A    
C11   C37   S    
C39   H21   S    
C6    C40   S    
C6    C7    A    
C2    C3    A    
C30   F4    S    
C39   H19   S    
C3    C10   A    
C11   C13   A    
C19   H12   S    
C8    C33   A    
C37   H13   S    
C12   O3    A    
C29   C38   S    
Cu1   O3    S    
Cu2   O4    S    
C20   C21   A    
C27   C28   A    
C24   H5    S    
C14   C15   A    
C22   F2    S    
Cu1   O5    S    
