data_mof_unit_8669.cif
_audit_creation_date              2012-10-26T18:26:35-0400
_audit_creation_method            fapswitch 2.2
_symmetry_space_group_name_H-M    P1
_symmetry_Int_Tables_number       1
_space_group_crystal_system       triclinic
_cell_length_a                    15.865479
_cell_length_b                    8.673041
_cell_length_c                    7.472512
_cell_angle_alpha                 102.909008
_cell_angle_beta                  94.912898
_cell_angle_gamma                 92.247133
_cell_volume                      996.758972803

loop_
_atom_site_label
_atom_site_type_symbol
_atom_type_description
_atom_site_fract_x
_atom_site_fract_y
_atom_site_fract_z
_atom_type_partial_charge
C1    C     C_R   0.497462 0.199796 0.453317 0.554907
C2    C     C_3   0.980507 0.631950 0.617641 0.000561
C3    C     C_1   0.250726 0.500053 0.501890 0.065866
C4    C     C_1   0.749274 0.499946 0.498110 0.065843
C5    C     C_3   0.036646 0.503172 0.669175 0.010486
C6    C     C_3   0.963353 0.496823 0.330821 0.010516
C7    C     C_3   0.083599 0.499393 0.496266 -0.024275
C8    C     C_3   0.916401 0.500603 0.503732 -0.024299
C9    C     C_1   0.175252 0.499850 0.498922 0.090174
C10   C     C_1   0.824748 0.500148 0.501077 0.090114
C11   C     C_2   0.040011 0.217630 0.254142 0.615720
C12   C     C_R   0.502538 0.800203 0.546683 0.554903
C13   C     C_2   0.959992 0.782368 0.745855 0.615741
C14   C     C_2   0.943363 0.226168 0.615051 0.333414
C15   C     C_2   0.056638 0.773834 0.384959 0.333484
C16   C     C_2   0.918488 0.497204 0.146017 0.610484
C17   C     C_2   0.081505 0.502774 0.853980 0.610418
C18   C     C_R   0.340085 0.499784 0.501030 0.556742
C19   C     C_R   0.659914 0.500216 0.498970 0.556746
C20   C     C_2   0.496246 0.031843 0.427091 -0.128342
C21   C     C_2   0.503754 0.968157 0.572909 -0.128341
C22   C     C_3   0.972175 0.371976 0.555311 -0.042756
C23   C     C_3   0.027825 0.628020 0.444686 -0.042735
C24   C     C_3   0.019493 0.368046 0.382357 0.000591
Cu1   Cu    Cu3+1 0.509330 0.517380 0.684380 1.013082
Cu2   Cu    Cu3+1 0.490670 0.482620 0.315620 1.013075
H1    H     H_    0.489174 0.960274 0.286593 0.141048
H2    H     H_    0.156146 0.387644 0.005708 0.366236
H3    H     H_    0.510826 0.039726 0.713407 0.141049
H4    H     H_    0.434293 0.376787 0.948430 0.247147
H5    H     H_    0.565707 0.623212 0.051570 0.247144
H6    H     H_    0.129721 0.080099 0.140095 0.388408
H7    H     H_    0.870284 0.919913 0.859897 0.388427
H8    H     H_    0.989782 0.146772 0.650769 0.164325
H9    H     H_    0.010221 0.853242 0.349263 0.164362
H10   H     H_    0.843921 0.612395 0.994227 0.366244
N1    N     N_2   0.476600 0.456420 0.038510 -0.251655
N2    N     N_2   0.523400 0.543580 0.961490 -0.251656
O1    O     O_R   0.506070 0.286130 0.619780 -0.507481
O2    O     O_R   0.124284 0.185584 0.228646 -0.684966
O3    O     O_2   0.017409 0.877519 0.825343 -0.449018
O4    O     O_R   0.875720 0.814427 0.771348 -0.684960
O5    O     O_2   0.868251 0.195564 0.622880 -0.453689
O6    O     O_2   0.131750 0.804430 0.377116 -0.453727
O7    O     O_2   0.920674 0.383302 0.017033 -0.455448
O8    O     O_R   0.872882 0.627211 0.123706 -0.679274
O9    O     O_2   0.079215 0.616581 0.983043 -0.455475
O10   O     O_R   0.127210 0.372854 0.876210 -0.679334
O11   O     O_R   0.493930 0.713870 0.380220 -0.507483
O12   O     O_R   0.490300 0.256770 0.308360 -0.495259
O13   O     O_R   0.509700 0.743230 0.691640 -0.495261
O14   O     O_R   0.386960 0.514660 0.655680 -0.500883
O15   O     O_R   0.613040 0.485340 0.344320 -0.500890
O16   O     O_R   0.371190 0.485310 0.344260 -0.485539
O17   O     O_R   0.628810 0.514690 0.655740 -0.485530
O18   O     O_2   0.982597 0.122471 0.174658 -0.448984

loop_
_geom_bond_atom_site_label_1
_geom_bond_atom_site_label_2
_ccdc_geom_bond_type
C16   O7    D    
C14   H8    S    
C8    C22   S    
Cu1   O13   S    
Cu2   N1    S    
H10   O8    S    
N1    N2    D    
C3    C9    T    
C20   H1    S    
Cu1   N2    S    
C1    O12   A    
C1    O1    A    
H5    N2    S    
C17   O10   S    
C6    C24   S    
C12   O13   A    
C19   O15   A    
C15   C23   S    
C12   O11   A    
Cu1   O14   S    
C18   O14   A    
C11   O18   D    
Cu1   O1    S    
C14   C22   S    
C21   H3    S    
C7    C23   S    
C6    C23   S    
Cu2   O16   S    
C13   O3    D    
C13   O4    S    
Cu1   O17   S    
C15   O6    D    
Cu2   O12   S    
C16   O8    S    
C11   O2    S    
C22   C24   S    
C15   H9    S    
C2    C5    S    
C5    C17   S    
H7    O4    S    
C6    C16   S    
C7    C24   S    
Cu2   O15   S    
C7    C9    S    
C11   C24   S    
H6    O2    S    
C20   C21   D    
C3    C18   S    
C8    C10   S    
Cu2   O11   S    
C19   O17   A    
C2    C23   S    
C5    C7    S    
C2    C13   S    
C18   O16   A    
H2    O10   S    
C1    C20   S    
C6    C8    S    
Cu1   Cu2   S    
C4    C19   S    
C4    C10   T    
C12   C21   S    
C2    C8    S    
C5    C22   S    
C17   O9    D    
H4    N1    S    
C14   O5    D    
