data_mof_unit_5346.cif
_audit_creation_date              2012-12-11T15:43:04-0500
_audit_creation_method            fapswitch 2.2
_symmetry_space_group_name_H-M    P1
_symmetry_Int_Tables_number       1
_space_group_crystal_system       triclinic
_cell_length_a                    19.027707
_cell_length_b                    10.929131
_cell_length_c                    18.80423
_cell_angle_alpha                 90.184018
_cell_angle_beta                  89.725832
_cell_angle_gamma                 90.297344
_cell_volume                      3910.34085478

loop_
_atom_site_label
_atom_site_type_symbol
_atom_type_description
_atom_site_fract_x
_atom_site_fract_y
_atom_site_fract_z
_atom_type_partial_charge
C1    C     C_R   0.730044 0.375546 0.145630 0.547338
C2    C     C_R   0.022350 0.002836 0.027910 -0.138986
C3    C     C_R   0.757175 0.454144 0.567362 0.015923
C4    C     C_R   0.730179 0.380984 0.351504 0.543401
C5    C     C_R   0.270089 0.378541 0.647728 0.561086
C6    C     C_R   0.230032 0.880918 0.351512 0.545781
C7    C     C_R   0.772300 0.873322 0.645366 0.554099
C8    C     C_R   0.531018 0.156710 0.352837 0.544767
C9    C     C_R   0.465448 0.156992 0.644853 0.546385
C10   C     C_R   0.030708 0.656737 0.352643 0.544192
C11   C     C_R   0.964231 0.656964 0.644205 0.547022
C12   C     C_R   0.742190 0.969464 0.353604 0.544187
C13   C     C_R   0.532813 0.494426 0.954912 -0.129792
C14   C     C_R   0.260385 0.977322 0.643237 0.548552
C15   C     C_R   0.241037 0.473104 0.355237 0.543825
C16   C     C_R   0.760418 0.477389 0.643192 0.546489
C17   C     C_R   0.496621 0.161962 0.925655 -0.001485
C18   C     C_R   0.502631 0.168947 0.074748 -0.001803
C19   C     C_R   0.996620 0.661962 0.925657 -0.001588
C20   C     C_R   0.002628 0.668948 0.074749 -0.001751
C21   C     C_R   0.511553 0.274367 0.959870 0.011568
C22   C     C_R   0.508505 0.280296 0.035247 0.030533
C23   C     C_R   0.011551 0.774367 0.959872 0.011513
C24   C     C_R   0.522353 0.502836 0.027906 -0.138986
C25   C     C_R   0.008501 0.780295 0.035249 0.030529
C26   C     C_R   0.489088 0.059617 0.039086 -0.169241
C27   C     C_R   0.488794 0.055484 0.966261 -0.155299
C28   C     C_R   0.989085 0.559617 0.039088 -0.169200
C29   C     C_R   0.988792 0.555485 0.966262 -0.155352
C30   C     C_R   0.778735 0.842971 0.938019 0.014388
C31   C     C_R   0.247177 0.906574 0.073164 0.018462
C32   C     C_R   0.278734 0.342974 0.938017 0.014689
C33   C     C_R   0.747179 0.406580 0.073166 0.018340
C34   C     C_R   0.714467 0.817984 0.971341 0.007824
C35   C     C_R   0.277604 0.817167 0.029102 0.039010
C36   C     C_R   0.214465 0.317992 0.971338 0.007879
C37   C     C_R   0.288538 0.329159 0.861279 0.566223
C38   C     C_R   0.777606 0.317173 0.029104 0.038962
C39   C     C_R   0.704146 0.844930 0.042670 0.004361
C40   C     C_R   0.277900 0.829887 0.955993 0.007525
C41   C     C_R   0.204144 0.344941 0.042666 0.004276
C42   C     C_R   0.777903 0.329893 0.955996 0.007486
C43   C     C_R   0.825503 0.904400 0.052935 -0.157489
C44   C     C_R   0.206664 0.010208 0.968662 -0.137520
C45   C     C_R   0.325501 0.404403 0.052932 -0.157615
C46   C     C_R   0.706666 0.510212 0.968664 -0.137492
C47   C     C_R   0.835668 0.877914 0.980814 -0.157388
C48   C     C_R   0.230043 0.875543 0.145629 0.546620
C49   C     C_R   0.209077 0.000762 0.041717 -0.143761
C50   C     C_R   0.335667 0.377913 0.980812 -0.157310
C51   C     C_R   0.709079 0.500768 0.041719 -0.143771
C52   C     C_3   0.642311 0.858577 0.951890 -0.268500
C53   C     C_3   0.350316 0.765842 0.028447 -0.270892
C54   C     C_3   0.142311 0.358590 0.951883 -0.268480
C55   C     C_3   0.850318 0.265846 0.028451 -0.270819
C56   C     C_3   0.631152 0.888311 0.029913 -0.261316
C57   C     C_3   0.349439 0.777238 0.947879 -0.280051
C58   C     C_3   0.131152 0.388327 0.029906 -0.261345
C59   C     C_R   0.788538 0.829159 0.861279 0.566407
C60   C     C_3   0.849442 0.277242 0.947883 -0.280086
C61   C     C_R   0.757764 0.898395 0.083016 0.014879
C62   C     C_R   0.245810 0.930582 0.924856 0.022762
C63   C     C_R   0.257761 0.398402 0.083012 0.014755
C64   C     C_R   0.745812 0.430587 0.924858 0.022752
C65   C     C_R   0.531379 0.156314 0.146740 0.537314
C66   C     C_R   0.468945 0.155330 0.853057 0.531198
C67   C     C_R   0.031377 0.656314 0.146741 0.537403
C68   C     C_R   0.968945 0.655330 0.853057 0.531615
C69   C     C_R   0.482162 0.163313 0.569676 0.018829
C70   C     C_R   0.528122 0.381277 0.921007 -0.096440
C71   C     C_R   0.495089 0.162590 0.421088 0.016996
C72   C     C_R   0.978804 0.663755 0.568559 0.015858
C73   C     C_R   0.993368 0.662539 0.420207 0.015321
C74   C     C_R   0.477096 0.054886 0.531033 0.040610
C75   C     C_R   0.483103 0.053728 0.458511 0.027112
C76   C     C_R   0.974976 0.555109 0.530044 0.040859
C77   C     C_R   0.981231 0.553667 0.457610 0.029945
C78   C     C_R   0.487192 0.274017 0.457602 -0.171114
C79   C     C_R   0.482362 0.274439 0.532104 -0.164767
C80   C     C_R   0.982908 0.774050 0.456174 -0.166777
C81   C     C_R   0.510504 0.397377 0.067869 -0.087416
C82   C     C_R   0.976380 0.774732 0.530650 -0.160038
C83   C     C_3   0.516658 0.938755 0.540282 -0.280753
C84   C     C_3   0.523624 0.936261 0.460308 -0.269898
C85   C     C_3   0.014101 0.438687 0.539742 -0.278447
C86   C     C_3   0.020896 0.435227 0.459685 -0.268555
C87   C     C_R   0.762287 0.892750 0.569929 0.014405
C88   C     C_R   0.250076 0.934474 0.419241 0.017895
C89   C     C_R   0.248371 0.421611 0.578467 0.013473
C90   C     C_R   0.751127 0.434949 0.418985 0.015723
C91   C     C_R   0.818592 0.941587 0.531855 0.040419
C92   C     C_R   0.028121 0.881277 0.921009 -0.096458
C93   C     C_R   0.200231 0.002560 0.457347 0.022312
C94   C     C_R   0.283810 0.518084 0.545352 0.017023
C95   C     C_R   0.702628 0.506742 0.456566 0.028765
C96   C     C_R   0.816619 0.951239 0.459359 0.029880
C97   C     C_R   0.203756 0.011045 0.529829 0.032753
C98   C     C_R   0.283581 0.527208 0.472587 0.047234
C99   C     C_R   0.705750 0.515085 0.529172 0.041487
C100  C     C_R   0.706400 0.841804 0.457342 -0.165017
C101  C     C_R   0.314398 0.906398 0.528923 -0.152561
C102  C     C_R   0.202952 0.357984 0.462951 -0.175434
C103  C     C_R   0.010499 0.897376 0.067872 -0.087389
C104  C     C_R   0.813767 0.402446 0.529391 -0.160190
C105  C     C_R   0.708440 0.833275 0.531743 -0.160449
C106  C     C_R   0.311312 0.898143 0.454507 -0.155627
C107  C     C_R   0.203067 0.347657 0.537076 -0.165171
C108  C     C_R   0.811221 0.394420 0.454951 -0.165066
C109  C     C_3   0.855711 0.060716 0.541819 -0.280504
C110  C     C_3   0.121564 0.993345 0.460089 -0.268504
C111  C     C_3   0.358604 0.560860 0.549584 -0.271502
C112  C     C_3   0.623841 0.502253 0.458812 -0.270175
C113  C     C_R   0.742046 0.967150 0.147997 0.544292
C114  C     C_R   0.032811 0.994426 0.954915 -0.129819
C115  C     C_R   0.258064 0.969996 0.852495 0.541062
C116  C     C_R   0.242045 0.467154 0.147995 0.544515
C117  C     C_R   0.758065 0.469998 0.852496 0.540758
C118  C     C_3   0.853756 0.072623 0.461866 -0.270379
C119  C     C_3   0.126188 0.003439 0.540032 -0.280780
C120  C     C_3   0.358765 0.566033 0.469251 -0.266474
C121  C     C_3   0.628038 0.511502 0.538754 -0.279457
C122  C     C_R   0.757167 0.912709 0.421570 0.016400
C123  C     C_R   0.256845 0.953582 0.567506 0.019545
C124  C     C_R   0.247111 0.443758 0.429913 0.021956
Cr1   Cr    Cr6+3 0.772010 0.169670 0.250090 1.003843
Cr2   Cr    Cr6+3 0.383290 0.010760 0.749160 1.003656
Cr3   Cr    Cr6+3 0.116710 0.510760 0.250840 1.005819
Cr4   Cr    Cr6+3 0.883290 0.510760 0.749160 1.003634
Cr5   Cr    Cr6+3 0.227990 0.169670 0.749910 1.002529
Cr6   Cr    Cr6+3 0.272010 0.669670 0.250090 1.006982
Cr7   Cr    Cr6+3 0.727990 0.669670 0.749910 1.002985
Cr8   Cr    Cr6+3 0.615000 0.323260 0.249260 1.000555
Cr9   Cr    Cr6+3 0.385000 0.323260 0.750740 0.997405
Cr10  Cr    Cr6+3 0.115000 0.823260 0.249260 1.000636
Cr11  Cr    Cr6+3 0.885000 0.823260 0.750740 1.000085
Cr12  Cr    Cr6+3 0.616710 0.010760 0.250840 1.004777
H1    H     H_    0.483761 0.973977 0.067455 0.129787
H2    H     H_    0.076022 0.445206 0.441616 0.174075
H3    H     H_    0.483529 0.863187 0.561487 0.131671
H4    H     H_    0.578737 0.948574 0.442580 0.169668
H5    H     H_    0.567541 0.952729 0.568088 0.137534
H6    H     H_    0.494672 0.859061 0.435047 0.124005
H7    H     H_    0.065036 0.452638 0.567416 0.142752
H8    H     H_    0.991161 0.358541 0.434833 0.124607
H9    H     H_    0.662516 0.802075 0.428917 0.120922
H10   H     H_    0.360330 0.873134 0.556091 0.128438
H11   H     H_    0.170082 0.297315 0.431672 0.122719
H12   H     H_    0.480479 0.967137 0.941802 0.136542
H13   H     H_    0.858150 0.364369 0.557099 0.131366
H14   H     H_    0.667122 0.784229 0.559284 0.130796
H15   H     H_    0.353928 0.856099 0.425370 0.117670
H16   H     H_    0.172635 0.274728 0.561039 0.141202
H17   H     H_    0.852710 0.347162 0.426698 0.121359
H18   H     H_    0.909715 0.049882 0.562946 0.133533
H19   H     H_    0.102627 0.902249 0.442585 0.170863
H20   H     H_    0.395210 0.491751 0.570306 0.160651
H21   H     H_    0.603338 0.412470 0.441110 0.170004
H22   H     H_    0.822885 0.129541 0.570054 0.137514
H23   H     H_    0.983757 0.473978 0.067457 0.129829
H24   H     H_    0.095547 0.073027 0.434951 0.125983
H25   H     H_    0.363172 0.652283 0.575134 0.128081
H26   H     H_    0.599534 0.583504 0.433617 0.126937
H27   H     H_    0.819521 0.148288 0.444462 0.167908
H28   H     H_    0.103497 0.089637 0.561288 0.132551
H29   H     H_    0.365887 0.659283 0.448024 0.138938
H30   H     H_    0.606438 0.598370 0.560129 0.134193
H31   H     H_    0.906657 0.069528 0.436577 0.126097
H32   H     H_    0.109446 0.918768 0.568205 0.139389
H33   H     H_    0.392713 0.495757 0.443972 0.133984
H34   H     H_    0.980479 0.467137 0.941803 0.136529
H35   H     H_    0.609819 0.427458 0.566606 0.136706
H36   H     H_    0.537809 0.378390 0.864322 0.134032
H37   H     H_    0.499131 0.410489 0.123643 0.132366
H38   H     H_    0.037809 0.878391 0.864325 0.134209
H39   H     H_    0.999125 0.910487 0.123646 0.132475
H40   H     H_    0.043633 0.076061 0.924261 0.104801
H41   H     H_    0.023695 0.091457 0.053778 0.100401
H42   H     H_    0.543633 0.576061 0.924257 0.104772
H43   H     H_    0.523699 0.591458 0.053774 0.100366
H44   H     H_    0.868930 0.941836 0.082960 0.130406
H45   H     H_    0.490906 0.359913 0.429488 0.113966
H46   H     H_    0.177579 0.085916 0.947032 0.146480
H47   H     H_    0.368929 0.441836 0.082959 0.130328
H48   H     H_    0.677579 0.585918 0.947033 0.146464
H49   H     H_    0.886616 0.894097 0.957280 0.153402
H50   H     H_    0.179682 0.065844 0.073558 0.138728
H51   H     H_    0.386616 0.394091 0.957279 0.153490
H52   H     H_    0.679684 0.565849 0.073560 0.138733
H53   H     H_    0.108813 0.281710 0.932925 0.123754
H54   H     H_    0.851396 0.169423 0.046819 0.157228
H55   H     H_    0.608814 0.781694 0.932932 0.123729
H56   H     H_    0.481858 0.360547 0.560261 0.117934
H57   H     H_    0.351396 0.669419 0.046815 0.157176
H58   H     H_    0.642514 0.940914 0.917268 0.155970
H59   H     H_    0.389044 0.827402 0.054574 0.123152
H60   H     H_    0.142518 0.440925 0.917261 0.155948
H61   H     H_    0.889046 0.327406 0.054578 0.123239
H62   H     H_    0.625892 0.987950 0.040389 0.167133
H63   H     H_    0.388117 0.843719 0.926601 0.152504
H64   H     H_    0.125893 0.487966 0.040381 0.167082
H65   H     H_    0.888119 0.343722 0.926605 0.152514
H66   H     H_    0.591159 0.828791 0.055970 0.128578
H67   H     H_    0.985747 0.860085 0.427956 0.120720
H68   H     H_    0.348364 0.687198 0.920199 0.152135
H69   H     H_    0.091156 0.328810 0.055962 0.128587
H70   H     H_    0.848366 0.187202 0.920203 0.152099
H71   H     H_    0.972098 0.861171 0.558400 0.131310
H72   H     H_    0.980798 0.363701 0.561314 0.133542
O1    O     O_R   0.787520 0.042810 0.170440 -0.529344
O2    O     O_R   0.454050 0.051210 0.669140 -0.516973
O3    O     O_R   0.045950 0.551210 0.330860 -0.523640
O4    O     O_R   0.954050 0.551210 0.669140 -0.516614
O5    O     O_R   0.681390 0.959480 0.325510 -0.511045
O6    O     O_R   0.318610 0.959480 0.674490 -0.506237
O7    O     O_R   0.181390 0.459480 0.325510 -0.510870
O8    O     O_R   0.818610 0.459480 0.674490 -0.506255
O9    O     O_3   0.667900 0.167900 0.250060 -0.239199
O10   O     O_3   0.332100 0.167900 0.749940 -0.263435
O11   O     O_3   0.167900 0.667900 0.250060 -0.240247
O12   O     O_R   0.212480 0.042810 0.829560 -0.538773
O13   O     O_3   0.832100 0.667900 0.749940 -0.265379
O14   O     O_R   0.765640 0.292100 0.175020 -0.499572
O15   O     O_R   0.234360 0.292100 0.824980 -0.501616
O16   O     O_R   0.265640 0.792100 0.175020 -0.500526
O17   O     O_R   0.734360 0.792100 0.824980 -0.500596
O18   O     O_R   0.670190 0.408840 0.168540 -0.521318
O19   O     O_R   0.329810 0.408840 0.831460 -0.521195
O20   O     O_R   0.170190 0.908840 0.168540 -0.521562
O21   O     O_R   0.829810 0.908840 0.831460 -0.520723
O22   O     O_R   0.556620 0.251410 0.175160 -0.509536
O23   O     O_R   0.287520 0.542810 0.170440 -0.529680
O24   O     O_R   0.443380 0.251410 0.824840 -0.526047
O25   O     O_R   0.056620 0.751410 0.175160 -0.509499
O26   O     O_R   0.943380 0.751410 0.824840 -0.525969
O27   O     O_R   0.545960 0.049620 0.170320 -0.525987
O28   O     O_R   0.454040 0.049620 0.829680 -0.525428
O29   O     O_R   0.045960 0.549620 0.170320 -0.525979
O30   O     O_R   0.954040 0.549620 0.829680 -0.525149
O31   O     O_R   0.681390 0.958010 0.176690 -0.498672
O32   O     O_R   0.318610 0.958010 0.823310 -0.501120
O33   O     O_R   0.181390 0.458010 0.176690 -0.498405
O34   O     O_R   0.712480 0.542810 0.829560 -0.538909
O35   O     O_R   0.818610 0.458010 0.823310 -0.501193
O36   O     O_R   0.787510 0.044390 0.330970 -0.524234
O37   O     O_R   0.212490 0.044390 0.669030 -0.519326
O38   O     O_R   0.287510 0.544390 0.330970 -0.519368
O39   O     O_R   0.712490 0.544390 0.669030 -0.518761
O40   O     O_R   0.765630 0.293570 0.323840 -0.510166
O41   O     O_R   0.234370 0.293570 0.676160 -0.505157
O42   O     O_R   0.265630 0.793570 0.323840 -0.505170
O43   O     O_R   0.734370 0.793570 0.676160 -0.503571
O44   O     O_R   0.670190 0.410420 0.329080 -0.524648
O45   O     O_R   0.556610 0.252880 0.323980 -0.511279
O46   O     O_R   0.329810 0.410420 0.670920 -0.520277
O47   O     O_R   0.170190 0.910420 0.329080 -0.525562
O48   O     O_R   0.829810 0.910420 0.670920 -0.514627
O49   O     O_R   0.443390 0.252880 0.676020 -0.509366
O50   O     O_R   0.056610 0.752880 0.323980 -0.511555
O51   O     O_R   0.943390 0.752880 0.676020 -0.509219
O52   O     O_R   0.545950 0.051210 0.330860 -0.523753

loop_
_geom_bond_atom_site_label_1
_geom_bond_atom_site_label_2
_ccdc_geom_bond_type
C3    C104  A    
C44   C49   A    
C8    O52   A    
C54   H53   S    
C87   C91   A    
C7    O48   A    
C35   C53   S    
C53   H57   S    
C94   C111  S    
C20   C67   S    
C111  H25   S    
C106  H15   S    
C74   C83   S    
C72   C76   A    
C26   H1    S    
Cr2   O32   S    
Cr3   O33   S    
C85   H7    S    
C83   H3    S    
Cr6   O38   S    
C119  H28   S    
C1    C33   S    
C90   C95   A    
Cr5   O37   S    
Cr1   O14   S    
C68   O26   A    
C18   C65   S    
C98   C124  A    
C121  H30   S    
C58   H64   S    
C100  C105  A    
C101  C123  A    
C65   O22   A    
C32   C36   A    
C96   C118  S    
C28   C29   A    
C9    C69   S    
C41   C58   S    
C38   C42   A    
Cr5   O12   S    
C9    O49   A    
C95   C112  S    
C115  O32   A    
C11   O4    A    
C10   C73   S    
C95   C99   A    
C120  H33   S    
C16   O39   A    
C80   H67   S    
C56   H66   S    
C20   C25   A    
C94   C98   A    
Cr4   O30   S    
Cr10  O11   S    
Cr12  O27   S    
C66   O24   A    
C118  H31   S    
C6    C88   S    
C14   O6    A    
Cr1   O36   S    
Cr8   O9    S    
C46   H48   S    
C89   C94   A    
C16   O8    A    
C70   H36   S    
C4    O40   A    
C51   H52   S    
Cr2   O6    S    
C91   C96   A    
C88   C93   A    
C52   C56   S    
Cr1   O9    S    
C73   C80   A    
C7    C87   S    
C38   C55   S    
C83   C84   S    
C27   H12   S    
C12   O36   A    
C18   C26   A    
Cr12  O52   S    
C10   O50   A    
C7    O43   A    
C14   C123  S    
C2    H41   S    
C84   H6    S    
C29   H34   S    
C47   H49   S    
Cr2   O28   S    
C111  H20   S    
C9    O2    A    
C4    C90   S    
C45   H47   S    
Cr5   O15   S    
C93   C110  S    
C99   C121  S    
C14   O37   A    
C117  O34   A    
Cr9   O49   S    
C40   C62   A    
C18   C22   A    
C55   C60   S    
C57   H63   S    
C36   C41   A    
C15   O38   A    
C12   O5    A    
C31   C49   A    
C102  C124  A    
C109  H22   S    
C82   H71   S    
Cr7   O43   S    
C120  H29   S    
C56   H62   S    
Cr6   O42   S    
C5    C89   S    
C39   C61   A    
Cr5   O41   S    
C101  H10   S    
C1    O14   A    
C54   H60   S    
C74   C75   A    
C49   H50   S    
Cr3   O11   S    
C34   C39   A    
C17   C27   A    
C22   C81   A    
C5    O41   A    
C30   C47   A    
C19   C68   S    
C52   H58   S    
C76   C77   A    
C4    O44   A    
C15   O7    A    
Cr2   O2    S    
C42   C60   S    
C83   H5    S    
Cr1   O1    S    
C11   C72   S    
C25   C103  A    
Cr12  O9    S    
C20   C28   A    
C58   H69   S    
C44   C62   A    
C85   C86   S    
C46   C51   A    
C67   O29   A    
C28   H23   S    
C17   C21   A    
C64   C117  S    
C13   C24   A    
C66   O28   A    
C111  C120  S    
C91   C109  S    
C52   H55   S    
C11   O51   A    
C104  H13   S    
C97   C119  S    
C19   C23   A    
C24   C81   A    
C55   H54   S    
C60   H65   S    
Cr5   O10   S    
C108  H17   S    
C6    O42   A    
Cr8   O18   S    
C102  H11   S    
C88   C106  A    
Cr7   O17   S    
Cr11  O21   S    
C39   C56   S    
C87   C105  A    
C1    O18   A    
C113  O31   A    
C100  H9    S    
Cr10  O50   S    
C30   C59   S    
C89   C107  A    
C24   H43   S    
C103  H39   S    
C26   C27   A    
Cr11  O26   S    
C69   C74   A    
Cr7   O13   S    
Cr8   O44   S    
C32   C37   S    
C109  H18   S    
C32   C50   A    
C13   H42   S    
Cr7   O39   S    
Cr8   O45   S    
Cr4   O8    S    
C107  H16   S    
C117  O35   A    
C80   C82   A    
C15   C124  S    
C121  H35   S    
C5    O46   A    
C77   C86   S    
Cr3   O29   S    
C37   O15   A    
C31   C48   S    
C3    C16   S    
C116  O23   A    
C61   C113  S    
Cr11  O48   S    
C31   C35   A    
C115  O12   A    
C69   C79   A    
C102  C107  A    
C105  H14   S    
C41   C63   A    
C43   H44   S    
C59   O21   A    
C93   C97   A    
C50   H51   S    
C104  C108  A    
C110  H24   S    
C43   C61   A    
Cr12  O5    S    
C54   C58   S    
C44   H46   S    
Cr3   O3    S    
C101  C106  A    
C48   O20   A    
C116  O33   A    
C67   O25   A    
Cr11  O13   S    
C53   C57   S    
C40   C57   S    
C112  C121  S    
C78   C79   A    
Cr11  O51   S    
C65   O27   A    
Cr9   O19   S    
Cr1   O40   S    
Cr7   O34   S    
Cr8   O22   S    
C110  C119  S    
Cr10  O47   S    
C42   C64   A    
C98   C120  S    
C109  C118  S    
C33   C51   A    
C48   O16   A    
C59   O17   A    
C34   C52   S    
Cr9   O10   S    
C96   C122  A    
C21   C70   A    
C79   H56   S    
C63   C116  S    
C92   H38   S    
C78   H45   S    
Cr6   O16   S    
C35   C40   A    
Cr4   O13   S    
C113  O1    A    
C62   C115  S    
C97   C123  A    
C68   O30   A    
C112  H26   S    
Cr4   O4    S    
C71   C75   A    
C2    C114  A    
C60   H70   S    
Cr10  O20   S    
C55   H61   S    
Cr9   O46   S    
C43   C47   A    
Cr6   O23   S    
C53   H59   S    
C118  H27   S    
C76   C85   S    
C57   H68   S    
C114  H40   S    
Cr10  O25   S    
C45   C63   A    
C6    O47   A    
C86   H8    S    
C100  C122  A    
C23   C25   A    
C30   C34   A    
C17   C66   S    
Cr6   O11   S    
C75   C84   S    
C2    C103  A    
C110  H19   S    
C36   C54   S    
C86   H2    S    
C90   C108  A    
Cr3   O7    S    
C3    C99   A    
C10   O3    A    
C37   O19   A    
C12   C122  S    
Cr9   O24   S    
C84   H4    S    
C13   C70   A    
Cr12  O31   S    
C46   C64   A    
Cr4   O35   S    
C73   C77   A    
C23   C92   A    
C112  H21   S    
C33   C38   A    
C45   C50   A    
C21   C22   A    
C92   C114  A    
C119  H32   S    
C71   C78   A    
C72   C82   A    
C8    O45   A    
Cr2   O10   S    
C85   H72   S    
C81   H37   S    
C8    C71   S    
C19   C29   A    
