data_mof_unit_33913.cif
_audit_creation_date              2012-10-26T20:08:08-0400
_audit_creation_method            fapswitch 2.2
_symmetry_space_group_name_H-M    P1
_symmetry_Int_Tables_number       1
_space_group_crystal_system       triclinic
_cell_length_a                    10.843606
_cell_length_b                    10.827021
_cell_length_c                    9.505859
_cell_angle_alpha                 90.131983
_cell_angle_beta                  90.29145
_cell_angle_gamma                 90.069453
_cell_volume                      1116.00715814

loop_
_atom_site_label
_atom_site_type_symbol
_atom_type_description
_atom_site_fract_x
_atom_site_fract_y
_atom_site_fract_z
_atom_type_partial_charge
C1    C     C_R   0.499598 0.262044 0.499870 0.553346
C2    C     C_R   0.508515 0.064228 0.627417 -0.137142
C3    C     C_R   0.500761 0.871781 0.500111 0.018591
C4    C     C_R   0.499294 0.128219 0.499893 0.018607
C5    C     C_R   0.426852 0.419820 0.073799 0.055782
C6    C     C_R   0.573147 0.580179 0.926201 0.055743
C7    C     C_R   0.426921 0.419814 0.924886 0.032417
C8    C     C_R   0.573076 0.580185 0.075114 0.032341
C9    C     C_R   0.262212 0.503011 0.499464 0.553085
C10   C     C_R   0.737790 0.496991 0.500536 0.553102
C11   C     C_R   0.232954 0.777737 0.153656 -0.070980
C12   C     C_R   0.500421 0.737956 0.500131 0.553313
C13   C     C_R   0.767152 0.222199 0.846341 -0.071025
C14   C     C_R   0.178207 0.723417 0.271210 -0.102068
C15   C     C_R   0.821937 0.276515 0.728813 -0.102173
C16   C     C_R   0.119227 0.608371 0.258708 0.040225
C17   C     C_R   0.880766 0.391641 0.741282 0.040229
C18   C     C_R   0.116103 0.548294 0.127780 -0.153145
C19   C     C_R   0.883683 0.451811 0.872145 -0.153070
C20   C     C_R   0.171288 0.602657 0.010663 -0.094300
C21   C     C_R   0.828478 0.397447 0.989248 -0.094289
C22   C     C_R   0.229609 0.717358 0.023410 0.267445
C23   C     C_R   0.871691 0.494977 0.501481 0.008518
C24   C     C_R   0.770324 0.282659 0.976540 0.267447
C25   C     C_R   0.932861 0.544043 0.384972 -0.139845
C26   C     C_R   0.067140 0.455961 0.615021 -0.139875
C27   C     C_R   0.128313 0.505034 0.498519 0.008511
C28   C     C_R   0.939393 0.449555 0.617641 -0.018896
C29   C     C_R   0.060606 0.550458 0.382356 -0.018870
C30   C     C_R   0.490217 0.063489 0.372533 -0.103478
C31   C     C_R   0.509848 0.936511 0.627472 -0.103490
C32   C     C_R   0.491568 0.935773 0.372586 -0.137156
Cl1   Cl    Cl    0.297935 0.785461 0.875966 -0.648230
Cl2   Cl    Cl    0.702045 0.214535 0.124016 -0.648243
Cu1   Cu    Cu3+1 0.500000 0.500020 0.640660 0.984671
Cu2   Cu    Cu3+1 0.500000 0.499980 0.359340 0.984642
H1    H     H_    0.368139 0.355834 0.868169 0.104807
H2    H     H_    0.830526 0.444731 0.089613 0.133897
H3    H     H_    0.880906 0.581267 0.296988 0.123960
H4    H     H_    0.119095 0.418725 0.703000 0.123968
H5    H     H_    0.481679 0.111220 0.273000 0.178588
H6    H     H_    0.518377 0.888778 0.727007 0.178560
H7    H     H_    0.485221 0.887418 0.272964 0.140659
H8    H     H_    0.514891 0.112583 0.727036 0.140681
H9    H     H_    0.368064 0.355834 0.129471 0.112907
H10   H     H_    0.631931 0.644165 0.870529 0.112890
H11   H     H_    0.631856 0.644165 0.131831 0.104790
H12   H     H_    0.277400 0.866848 0.163706 0.128479
H13   H     H_    0.722815 0.133026 0.836317 0.128486
H14   H     H_    0.181537 0.770800 0.371651 0.122466
H15   H     H_    0.818761 0.229062 0.628420 0.122478
H16   H     H_    0.072263 0.458872 0.117028 0.117030
H17   H     H_    0.927387 0.541301 0.882857 0.116967
H18   H     H_    0.169104 0.555435 0.910262 0.133927
N1    N     N_R   0.500030 0.500030 0.852070 -0.213215
N2    N     N_R   0.499970 0.499970 0.147930 -0.213226
O1    O     O_R   0.499990 0.319660 0.618740 -0.520968
O2    O     O_R   0.500010 0.680340 0.381260 -0.520988
O3    O     O_R   0.499990 0.319630 0.381170 -0.476103
O4    O     O_R   0.500010 0.680370 0.618830 -0.476097
O5    O     O_R   0.319650 0.500020 0.618780 -0.495351
O6    O     O_R   0.680350 0.499980 0.381220 -0.495369
O7    O     O_R   0.319640 0.500000 0.381210 -0.502983
O8    O     O_R   0.680360 0.500000 0.618790 -0.502978

loop_
_geom_bond_atom_site_label_1
_geom_bond_atom_site_label_2
_ccdc_geom_bond_type
C13   H13   S    
C2    C4    A    
C26   H4    S    
C30   H5    S    
Cu1   O8    S    
Cu2   N2    S    
C31   H6    S    
C15   H15   S    
C10   C23   S    
C27   C29   A    
Cu2   O7    S    
C5    C7    A    
C11   C22   A    
C26   C28   A    
Cu1   Cu2   S    
C7    N1    A    
C6    N1    A    
Cu1   O1    S    
Cu2   O3    S    
C12   O2    A    
C19   H17   S    
C13   C15   A    
C7    H1    S    
C8    H11   S    
C18   H16   S    
Cu1   O5    S    
C14   H14   S    
C23   C28   A    
C25   H3    S    
C3    C31   A    
C1    O1    A    
C8    N2    A    
C11   H12   S    
C10   O6    A    
C16   C29   S    
C9    O5    A    
C16   C18   A    
C17   C19   A    
C32   H7    S    
C20   C22   A    
C5    N2    A    
C18   C20   A    
C1    O3    A    
C26   C27   A    
C3    C32   A    
C11   C14   A    
C4    C30   A    
C1    C4    S    
Cu2   O2    S    
Cu1   N1    S    
C30   C32   A    
C23   C25   A    
C9    C27   S    
C25   C29   A    
C20   H18   S    
C21   C24   A    
C15   C17   A    
C22   Cl1   S    
C24   Cl2   S    
C2    C31   A    
C6    C8    A    
C3    C12   S    
C6    H10   S    
C19   C21   A    
C14   C16   A    
C9    O7    A    
C17   C28   S    
C5    H9    S    
C10   O8    A    
C21   H2    S    
C13   C24   A    
C2    H8    S    
Cu1   O4    S    
Cu2   O6    S    
C12   O4    A    
