data_mof_unit_63790.cif
_audit_creation_date              2012-12-10T18:28:32-0500
_audit_creation_method            fapswitch 2.2
_symmetry_space_group_name_H-M    P1
_symmetry_Int_Tables_number       1
_space_group_crystal_system       triclinic
_cell_length_a                    21.7317
_cell_length_b                    21.737684
_cell_length_c                    21.232581
_cell_angle_alpha                 120.609841
_cell_angle_beta                  120.671184
_cell_angle_gamma                 90.252872
_cell_volume                      6936.0980729

loop_
_atom_site_label
_atom_site_type_symbol
_atom_type_description
_atom_site_fract_x
_atom_site_fract_y
_atom_site_fract_z
_atom_type_partial_charge
C1    C     C_R   0.084802 0.584626 0.669236 0.794129
C2    C     C_R   0.974530 0.243915 0.189694 -0.109501
C3    C     C_R   0.244927 0.441419 0.425956 -0.214902
C4    C     C_R   0.312939 0.504982 0.499824 -0.095053
C5    C     C_R   0.315856 0.568036 0.572385 0.004681
C6    C     C_R   0.250739 0.564175 0.570304 -0.231935
C7    C     C_R   0.183959 0.499572 0.497843 -0.061029
C8    C     C_R   0.180331 0.437907 0.424534 -0.002399
C9    C     C_R   0.416541 0.667935 0.739594 -0.145335
C10   C     C_R   0.480401 0.735651 0.811872 -0.135931
C11   C     C_R   0.512235 0.775691 0.794511 -0.125273
C12   C     C_R   0.117921 0.499463 0.498674 0.800604
C13   C     C_R   0.480151 0.748213 0.704847 -0.117825
C14   C     C_R   0.416289 0.680609 0.632471 -0.093788
C15   C     C_R   0.384248 0.639486 0.649131 0.117315
C16   C     C_1   0.136237 0.635950 0.771770 -0.205395
C17   C     C_1   0.178711 0.678437 0.856728 -0.016283
C18   C     C_1   0.228973 0.728767 0.957497 0.000233
C19   C     C_1   0.271350 0.771222 0.042462 0.005605
C20   C     C_1   0.321641 0.821622 0.143239 0.012335
C21   C     C_1   0.364079 0.864145 0.228201 -0.160535
C22   C     C_R   0.909894 0.392970 0.669071 -0.136763
C23   C     C_R   0.915413 0.415375 0.330749 0.806099
C24   C     C_R   0.853540 0.405940 0.609824 -0.144991
C25   C     C_R   0.870557 0.474622 0.620784 0.123953
C26   C     C_R   0.944304 0.530517 0.692514 -0.117962
C27   C     C_R   0.000368 0.517438 0.751908 -0.114052
C28   C     C_R   0.983266 0.448660 0.740029 -0.109169
C29   C     C_R   0.745583 0.490900 0.557822 -0.253301
C30   C     C_R   0.686792 0.503831 0.500705 -0.084462
C31   C     C_R   0.692190 0.515953 0.444296 -0.005975
C32   C     C_R   0.757209 0.514817 0.446381 -0.233269
C33   C     C_R   0.815941 0.501331 0.503015 -0.075903
C34   C     C_R   0.881994 0.500599 0.501528 0.785545
C35   C     C_R   0.810156 0.488681 0.559061 0.001279
C36   C     C_R   0.594305 0.484876 0.291219 -0.139366
C37   C     C_R   0.541401 0.503400 0.236410 -0.136064
C38   C     C_R   0.527690 0.570939 0.275908 -0.126349
C39   C     C_R   0.566252 0.619686 0.370174 -0.130302
C40   C     C_R   0.618549 0.600961 0.425185 -0.127034
C41   C     C_R   0.633136 0.533499 0.385984 0.117690
C42   C     C_1   0.864101 0.364089 0.228200 -0.178428
C43   C     C_1   0.821666 0.321526 0.143233 -0.013718
C44   C     C_1   0.771432 0.271012 0.042455 -0.018253
C45   C     C_R   0.018577 0.249560 0.269906 -0.124561
C46   C     C_1   0.729017 0.228487 0.957491 -0.023137
C47   C     C_1   0.678611 0.178137 0.856727 -0.031659
C48   C     C_1   0.636037 0.135704 0.771767 -0.178373
C49   C     C_R   0.496744 0.619921 0.499822 0.825248
C50   C     C_R   0.379937 0.502741 0.500012 0.823462
C51   C     C_R   0.502219 0.380096 0.500008 0.833401
C52   C     C_R   0.619939 0.502625 0.500097 0.823749
C53   C     C_R   0.500672 0.119331 0.501190 0.787883
C54   C     C_R   0.415368 0.915462 0.330750 0.817587
C55   C     C_R   0.499501 0.881052 0.499327 0.840656
C56   C     C_R   0.085917 0.312807 0.346774 -0.080233
C57   C     C_R   0.584653 0.084513 0.669245 0.806795
C58   C     C_R   0.281922 0.490066 0.206447 -0.135489
C59   C     C_R   0.347172 0.556547 0.272251 -0.069605
C60   C     C_R   0.359509 0.613806 0.354331 0.151839
C61   C     C_R   0.305143 0.604486 0.368967 -0.138225
C62   C     C_R   0.240163 0.537794 0.303252 -0.118357
C63   C     C_R   0.228651 0.480525 0.222130 -0.107701
C64   C     C_R   0.432970 0.746515 0.425462 0.086195
C65   C     C_R   0.498210 0.813935 0.498200 -0.113700
C66   C     C_R   0.560485 0.817936 0.571731 -0.032938
C67   C     C_R   0.109065 0.371132 0.343884 0.078545
C68   C     C_R   0.557896 0.754027 0.571384 -0.261031
C69   C     C_R   0.494254 0.686386 0.499042 -0.133888
C70   C     C_R   0.430363 0.682600 0.426383 -0.050200
C71   C     C_R   0.686937 0.910096 0.649304 -0.101179
C72   C     C_R   0.750576 0.977196 0.725780 -0.131629
C73   C     C_R   0.755549 0.023092 0.805298 -0.104602
C74   C     C_R   0.696894 0.001934 0.808466 -0.135905
C75   C     C_R   0.632949 0.935160 0.731955 -0.169636
C76   C     C_R   0.627526 0.889122 0.651853 0.100658
C77   C     C_R   0.484654 0.195336 0.225446 -0.139975
C78   C     C_R   0.064902 0.364978 0.263043 -0.169558
C79   C     C_R   0.472094 0.196389 0.284300 -0.133738
C80   C     C_R   0.525628 0.250568 0.378946 0.116540
C81   C     C_R   0.592355 0.302879 0.413951 -0.137359
C82   C     C_R   0.605021 0.301109 0.354822 -0.122939
C83   C     C_R   0.551045 0.247689 0.260688 -0.110351
C84   C     C_R   0.512041 0.187985 0.443286 -0.228862
C85   C     C_R   0.501630 0.186688 0.502456 -0.060539
C86   C     C_R   0.491929 0.249196 0.561053 0.032240
C87   C     C_R   0.494157 0.312738 0.560264 -0.195673
C88   C     C_R   0.503559 0.313624 0.500311 -0.085547
C89   C     C_R   0.997791 0.301489 0.186206 -0.132409
C90   C     C_R   0.512693 0.250938 0.441132 -0.001560
C91   C     C_R   0.411093 0.244359 0.612222 0.195799
C92   C     C_R   0.404226 0.247624 0.675845 -0.152368
C93   C     C_R   0.467525 0.258005 0.753077 -0.144379
C94   C     C_R   0.538071 0.264978 0.767085 -0.119419
C95   C     C_R   0.545449 0.261171 0.703675 -0.187268
C96   C     C_R   0.482249 0.251058 0.626009 0.070767
Cu1   Cu    Cu3+1 0.000010 0.438210 0.500020 0.960806
Cu2   Cu    Cu3+1 0.999990 0.561790 0.499980 0.954746
Cu3   Cu    Cu3+1 0.457530 0.457560 0.415050 0.975606
Cu4   Cu    Cu3+1 0.542470 0.542480 0.584950 0.958526
Cu5   Cu    Cu3+1 0.561810 1.000000 0.500000 0.948138
Cu6   Cu    Cu3+1 0.438190 1.000000 0.500000 1.009545
H1    H     H_    0.922394 0.194966 0.130256 0.126554
H2    H     H_    0.561683 0.828050 0.850524 0.124967
H3    H     H_    0.504718 0.779284 0.691388 0.130683
H4    H     H_    0.392149 0.660056 0.563548 0.087497
H5    H     H_    0.026776 0.438657 0.786037 0.127530
H6    H     H_    0.896613 0.339843 0.660142 0.129662
H7    H     H_    0.796781 0.362452 0.555238 0.122007
H8    H     H_    0.958088 0.584252 0.702767 0.106069
H9    H     H_    0.057006 0.560704 0.807426 0.137542
H10   H     H_    0.740641 0.481596 0.600898 0.147781
H11   H     H_    0.762111 0.524581 0.403580 0.153404
H12   H     H_    0.000629 0.204852 0.272452 0.130852
H13   H     H_    0.605179 0.432840 0.259985 0.119182
H14   H     H_    0.511533 0.465732 0.163392 0.127084
H15   H     H_    0.487329 0.585614 0.233491 0.129457
H16   H     H_    0.556065 0.672294 0.400591 0.144604
H17   H     H_    0.648646 0.639601 0.498262 0.110749
H18   H     H_    0.178353 0.428892 0.171328 0.120972
H19   H     H_    0.272838 0.445791 0.143490 0.121659
H20   H     H_    0.388350 0.563120 0.259828 0.124083
H21   H     H_    0.312979 0.648871 0.430964 0.119112
H22   H     H_    0.198756 0.530521 0.315212 0.128696
H23   H     H_    0.119942 0.316404 0.408401 0.146678
H24   H     H_    0.606363 0.756891 0.627517 0.166371
H25   H     H_    0.683812 0.874607 0.588200 0.128502
H26   H     H_    0.796121 0.993510 0.723491 0.124571
H27   H     H_    0.804827 0.075008 0.864456 0.125697
H28   H     H_    0.700860 0.037449 0.870104 0.134961
H29   H     H_    0.587733 0.919294 0.735011 0.128349
H30   H     H_    0.560850 0.246629 0.215083 0.120927
H31   H     H_    0.443033 0.153770 0.152520 0.128531
H32   H     H_    0.420555 0.155390 0.256241 0.130407
H33   H     H_    0.082398 0.409350 0.259713 0.126722
H34   H     H_    0.634679 0.344359 0.486805 0.100013
H35   H     H_    0.656767 0.340861 0.381790 0.139632
H36   H     H_    0.519449 0.139614 0.398408 0.148492
H37   H     H_    0.487225 0.361274 0.605597 0.158145
H38   H     H_    0.349730 0.242170 0.665483 0.151133
H39   H     H_    0.461909 0.260748 0.802167 0.134692
H40   H     H_    0.587111 0.273565 0.827286 0.142627
H41   H     H_    0.600511 0.266645 0.715351 0.125512
H42   H     H_    0.963663 0.297029 0.124053 0.134089
H43   H     H_    0.242412 0.393592 0.369779 0.164712
H44   H     H_    0.251717 0.612048 0.625055 0.139746
H45   H     H_    0.392625 0.637403 0.754081 0.128526
H46   H     H_    0.505230 0.757076 0.881378 0.131499
O1    O     O_R   0.061970 0.509790 0.623960 -0.558177
O2    O     O_R   0.535870 0.626050 0.571740 -0.594110
O3    O     O_R   0.373960 0.464160 0.428260 -0.588411
O4    O     O_R   0.445680 0.535880 0.571730 -0.575798
O5    O     O_R   0.464130 0.373990 0.428260 -0.571589
O6    O     O_R   0.535860 0.445700 0.571730 -0.593151
O7    O     O_R   0.554320 0.464170 0.428270 -0.572345
O8    O     O_R   0.626040 0.535880 0.571740 -0.592995
O9    O     O_R   0.552180 0.090160 0.499970 -0.590962
O10   O     O_R   0.447790 0.090160 0.499970 -0.558619
O11   O     O_R   0.490230 0.938030 0.376060 -0.572997
O12   O     O_R   0.061960 0.614160 0.623930 -0.564482
O13   O     O_R   0.385840 0.938030 0.376050 -0.541760
O14   O     O_R   0.552210 0.909840 0.500030 -0.586937
O15   O     O_R   0.447820 0.909840 0.500030 -0.557268
O16   O     O_R   0.614160 0.061970 0.623950 -0.566068
O17   O     O_R   0.509770 0.061970 0.623940 -0.561753
O18   O     O_R   0.090190 0.447820 0.500020 -0.582650
O19   O     O_R   0.090170 0.552190 0.499990 -0.578771
O20   O     O_R   0.938040 0.385840 0.376070 -0.562812
O21   O     O_R   0.938030 0.490210 0.376040 -0.566967
O22   O     O_R   0.909830 0.447810 0.500010 -0.571300
O23   O     O_R   0.909810 0.552180 0.499980 -0.581658
O24   O     O_R   0.464140 0.554340 0.428270 -0.577547
I1    I     I_    0.338791 0.739643 0.312292 -0.387653
I2    I     I_    0.311987 0.227308 0.496015 -0.417561

loop_
_geom_bond_atom_site_label_1
_geom_bond_atom_site_label_2
_ccdc_geom_bond_type
C66   C68   A    
C87   C88   A    
C51   O6    A    
C95   H41   S    
Cu5   Cu6   S    
C73   C74   A    
C29   H10   S    
C19   C20   S    
C43   C44   S    
Cu6   O10   S    
C12   O19   A    
C62   H22   S    
Cu1   Cu2   S    
C48   C57   S    
C37   H14   S    
C85   C86   A    
Cu4   O4    S    
C52   O7    A    
C83   H30   S    
C53   O10   A    
C93   C94   A    
C23   C42   S    
C77   H31   S    
C49   O2    A    
C72   H26   S    
C36   C37   A    
C82   H35   S    
Cu5   O16   S    
C12   O18   A    
C21   C54   S    
C6    H44   S    
C57   O17   A    
C77   C83   A    
C28   H5    S    
Cu1   O18   S    
C17   C18   S    
C18   C19   T    
C54   O11   A    
Cu2   O21   S    
C50   O3    A    
C51   O5    A    
C95   C96   A    
C45   C56   A    
C75   H29   S    
C16   C17   T    
Cu3   O7    S    
C1    O1    A    
C11   H2    S    
C64   C70   A    
C32   H11   S    
C29   C30   A    
C9    C10   A    
C26   H8    S    
Cu2   O19   S    
C34   O22   A    
C72   C73   A    
Cu4   O8    S    
C59   H20   S    
C91   C96   A    
C27   H9    S    
C59   C60   A    
C2    C45   A    
C49   C69   S    
C13   C14   A    
C80   C90   S    
C38   H15   S    
C71   H25   S    
C36   C41   A    
C94   C95   A    
C67   C78   A    
C84   C90   A    
C45   H12   S    
C55   C65   S    
C44   C46   T    
C81   C82   A    
C77   C79   A    
C78   C89   A    
C38   C39   A    
C73   H27   S    
C74   C75   A    
Cu6   O15   S    
C94   H40   S    
C47   C48   T    
C7    C8    A    
C84   C85   A    
C13   H3    S    
C3    C8    A    
C87   H37   S    
C39   C40   A    
C86   C87   A    
C68   C69   A    
Cu3   O24   S    
Cu4   O2    S    
C25   C26   A    
Cu3   O3    S    
C9    H45   S    
Cu1   O22   S    
C79   C80   A    
C91   I2    S    
C4    C50   S    
C60   C61   A    
Cu1   O20   S    
C2    C89   A    
C75   C76   A    
C37   C38   A    
C31   C32   A    
C23   O21   A    
C60   C70   S    
C30   C31   A    
C66   C76   S    
C62   C63   A    
C33   C34   S    
C26   C27   A    
C1    C16   S    
C56   H23   S    
C24   C25   A    
C86   C96   S    
C25   C35   S    
Cu2   O23   S    
C56   C67   A    
C40   C41   A    
C88   C90   A    
C3    H43   S    
Cu6   O17   S    
C74   H28   S    
C22   C24   A    
C7    C12   S    
C42   C43   T    
C3    C4    A    
C39   H16   S    
C68   H24   S    
C71   C76   A    
C91   C92   A    
C93   H39   S    
C81   H34   S    
C78   H33   S    
Cu4   O6    S    
C58   C63   A    
C79   H32   S    
C30   C52   S    
C46   C47   S    
Cu5   O14   S    
C58   H19   S    
C31   C41   S    
C1    O12   A    
C24   H7    S    
C55   O14   A    
Cu2   O12   S    
C80   C81   A    
C51   C88   S    
C49   O24   A    
C53   C85   S    
C6    C7    A    
C52   O8    A    
C89   H42   S    
C29   C35   A    
C53   O9    A    
Cu3   Cu4   S    
C61   H21   S    
C64   C65   A    
C61   C62   A    
C58   C59   A    
C55   O15   A    
C71   C72   A    
C32   C33   A    
C63   H18   S    
C11   C13   A    
C5    C6    A    
C57   O16   A    
C2    H1    S    
Cu6   O13   S    
C22   H6    S    
C4    C5    A    
Cu3   O5    S    
C92   C93   A    
C33   C35   A    
C65   C66   A    
C54   O13   A    
C9    C15   A    
C69   C70   A    
C5    C15   S    
C10   C11   A    
C84   H36   S    
C23   O20   A    
C50   O4    A    
C14   H4    S    
C40   H17   S    
C20   C21   T    
Cu5   O11   S    
C8    C67   S    
C82   C83   A    
C27   C28   A    
Cu1   O1    S    
C14   C15   A    
C22   C28   A    
C64   I1    S    
C36   H13   S    
Cu5   O9    S    
C34   O23   A    
C10   H46   S    
C92   H38   S    
