data_mof_unit_37265.cif
_audit_creation_date              2012-10-26T19:11:12-0400
_audit_creation_method            fapswitch 2.2
_symmetry_space_group_name_H-M    P1
_symmetry_Int_Tables_number       1
_space_group_crystal_system       triclinic
_cell_length_a                    15.879082
_cell_length_b                    15.882675
_cell_length_c                    14.656263
_cell_angle_alpha                 90.29354
_cell_angle_beta                  90.594626
_cell_angle_gamma                 90.281732
_cell_volume                      3696.04999276

loop_
_atom_site_label
_atom_site_type_symbol
_atom_type_description
_atom_site_fract_x
_atom_site_fract_y
_atom_site_fract_z
_atom_type_partial_charge
C1    C     C_R   0.500303 0.339803 0.499763 0.549786
C2    C     C_3   0.583884 0.049652 0.430815 0.080175
C3    C     C_3   0.589469 0.950105 0.443731 0.208066
C4    C     C_R   0.339383 0.499112 0.499517 0.547686
C5    C     C_1   0.502869 0.749719 0.500333 -0.050556
C6    C     C_3   0.508918 0.082842 0.494300 0.059911
C7    C     C_3   0.514381 0.951697 0.594534 -0.269499
C8    C     C_3   0.509748 0.917214 0.495802 0.074457
C9    C     C_3   0.427934 0.950467 0.449595 -0.218115
C10   C     C_3   0.423526 0.047634 0.456607 -0.245594
C11   C     C_1   0.506065 0.825144 0.498859 -0.058289
C12   C     C_3   0.082610 0.498607 0.499005 0.046922
C13   C     C_1   0.505382 0.174952 0.497249 -0.081368
C14   C     C_1   0.502698 0.250335 0.498900 -0.047863
C15   C     C_3   0.509320 0.588276 0.054116 -0.216693
C16   C     C_R   0.500252 0.660210 0.500183 0.544379
C17   C     C_3   0.411611 0.463657 0.052002 0.183113
C18   C     C_3   0.411605 0.467052 0.944206 0.198071
C19   C     C_3   0.497733 0.497483 0.091963 0.038022
C20   C     C_3   0.513506 0.588573 0.947933 -0.276276
C21   C     C_3   0.498714 0.499038 0.907955 0.011741
C22   C     C_3   0.569913 0.441918 0.946143 -0.201674
C23   C     C_3   0.974396 0.560044 0.557814 0.021436
C24   C     C_3   0.567278 0.437311 0.052814 -0.108399
C25   C     C_1   0.500828 0.500838 0.804882 0.112934
C26   C     C_1   0.498050 0.498116 0.195126 0.109385
C27   C     C_R   0.660539 0.500342 0.500467 0.546630
C28   C     C_3   0.970450 0.424206 0.527945 -0.120203
C29   C     C_3   0.024485 0.440391 0.442952 0.302916
C30   C     C_1   0.249742 0.497636 0.498589 -0.041739
C31   C     C_1   0.750024 0.500945 0.501370 -0.045972
C32   C     C_3   0.029097 0.483419 0.584777 -0.143407
C33   C     C_3   0.991373 0.324872 0.350620 0.000896
C34   C     C_3   0.916950 0.501192 0.500637 -0.004103
C35   C     C_3   0.004713 0.235476 0.385922 -0.255610
C36   C     C_3   0.938386 0.174845 0.347165 -0.497982
C37   C     C_3   0.671859 0.093039 0.452091 -0.256075
C38   C     C_3   0.705126 0.096242 0.550937 -0.313453
C39   C     C_3   0.798755 0.118909 0.554307 -0.464504
C40   C     C_3   0.652702 0.837894 0.362192 0.006916
C41   C     C_3   0.738984 0.861711 0.324505 -0.278379
C42   C     C_3   0.800190 0.788162 0.330734 -0.491864
C43   C     C_3   0.301678 0.473335 0.158699 0.006625
C44   C     C_3   0.228210 0.418888 0.124054 -0.294469
C45   C     C_3   0.028743 0.575729 0.472344 0.013284
C46   C     C_3   0.186925 0.371937 0.202482 -0.467902
C47   C     C_3   0.334832 0.387212 0.835198 0.006245
C48   C     C_3   0.244274 0.382304 0.869768 -0.280192
C49   C     C_3   0.181041 0.383077 0.790626 -0.487220
C50   C     C_3   0.656019 0.440328 0.098892 -0.250092
C51   C     C_3   0.708801 0.521134 0.085467 -0.284041
C52   C     C_3   0.718814 0.572135 0.173758 -0.441910
C53   C     C_3   0.930592 0.531537 0.320782 -0.250693
C54   C     C_3   0.996441 0.540575 0.245789 -0.296588
C55   C     C_3   0.954713 0.549445 0.152213 -0.468783
C56   C     C_3   0.970846 0.516584 0.414875 0.024332
C57   C     C_3   0.071543 0.658049 0.443356 -0.249921
C58   C     C_3   0.008362 0.727088 0.419037 -0.302883
C59   C     C_3   0.053415 0.808826 0.394592 -0.462242
C60   C     C_3   0.938642 0.622598 0.626982 -0.243436
C61   C     C_3   0.008127 0.670022 0.679555 -0.300625
C62   C     C_3   0.971004 0.725880 0.753803 -0.459905
C63   C     C_3   0.560959 0.072282 0.327731 -0.197621
C64   C     C_3   0.633380 0.072233 0.258043 -0.293502
C65   C     C_3   0.599648 0.078999 0.160434 -0.459916
C66   C     C_1   0.174264 0.497075 0.498475 -0.049150
C67   C     C_1   0.825407 0.501294 0.501469 -0.085257
C68   C     C_3   0.513673 0.048729 0.594019 -0.237123
Cu1   Cu    Cu3+1 0.499890 0.499910 0.589920 0.960701
Cu2   Cu    Cu3+1 0.500110 0.500090 0.410080 0.949169
H1    H     H_    0.645477 0.937636 0.488013 0.087509
H2    H     H_    0.455593 0.628045 0.075877 0.159549
H3    H     H_    0.404890 0.395947 0.071356 0.123881
H4    H     H_    0.363090 0.514184 0.923263 0.132209
H5    H     H_    0.545455 0.372180 0.068495 0.098252
H6    H     H_    0.631876 0.465757 0.922571 0.111817
H7    H     H_    0.565725 0.619550 0.083587 0.115349
H8    H     H_    0.575836 0.613115 0.926176 0.115570
H9    H     H_    0.562965 0.377358 0.917050 0.141264
H10   H     H_    0.054492 0.470145 0.654004 0.102087
H11   H     H_    0.572554 0.929181 0.629508 0.098533
H12   H     H_    0.371262 0.065326 0.502941 0.119660
H13   H     H_    0.566707 0.073676 0.634885 0.109828
H14   H     H_    0.994740 0.324119 0.274957 0.136412
H15   H     H_    0.926496 0.345699 0.368220 0.115222
H16   H     H_    0.068285 0.213274 0.366154 0.171574
H17   H     H_    0.001114 0.235594 0.461601 0.157109
H18   H     H_    0.874178 0.195915 0.365736 0.139833
H19   H     H_    0.948693 0.110974 0.375510 0.139519
H20   H     H_    0.943000 0.171352 0.271670 0.141299
H21   H     H_    0.836252 0.070325 0.518363 0.145169
H22   H     H_    0.809631 0.181164 0.522173 0.150923
H23   H     H_    0.405789 0.075203 0.389673 0.098836
H24   H     H_    0.820621 0.122312 0.626448 0.140287
H25   H     H_    0.671814 0.146580 0.588749 0.166070
H26   H     H_    0.696896 0.034801 0.585353 0.146746
H27   H     H_    0.720184 0.059898 0.411234 0.135959
H28   H     H_    0.670241 0.159255 0.427677 0.141014
H29   H     H_    0.625332 0.786866 0.318863 0.161811
H30   H     H_    0.660424 0.810857 0.431748 0.115814
H31   H     H_    0.732058 0.880100 0.251787 0.157210
H32   H     H_    0.765406 0.915918 0.363732 0.146201
H33   H     H_    0.811524 0.770922 0.403179 0.142265
H34   H     H_    0.371575 0.922859 0.482974 0.106618
H35   H     H_    0.861047 0.806600 0.299873 0.141981
H36   H     H_    0.774731 0.732567 0.293189 0.143066
H37   H     H_    0.276313 0.523775 0.203291 0.161895
H38   H     H_    0.344463 0.435194 0.202514 0.133785
H39   H     H_    0.180756 0.459554 0.089905 0.160982
H40   H     H_    0.251204 0.372045 0.073794 0.166480
H41   H     H_    0.231076 0.324717 0.231243 0.153856
H42   H     H_    0.129470 0.338796 0.177254 0.142111
H43   H     H_    0.169285 0.416700 0.257327 0.190115
H44   H     H_    0.346706 0.331322 0.791391 0.162115
H45   H     H_    0.457464 0.070383 0.632317 0.120657
H46   H     H_    0.342857 0.443284 0.790764 0.134941
H47   H     H_    0.235820 0.323495 0.909469 0.163416
H48   H     H_    0.231485 0.436869 0.915155 0.164397
H49   H     H_    0.187795 0.441984 0.750741 0.148124
H50   H     H_    0.116024 0.379815 0.817590 0.138450
H51   H     H_    0.191117 0.328100 0.744941 0.150254
H52   H     H_    0.656734 0.588693 0.202540 0.167159
H53   H     H_    0.754529 0.535290 0.225260 0.151635
H54   H     H_    0.754058 0.631112 0.159780 0.122939
H55   H     H_    0.772891 0.503067 0.063004 0.135874
H56   H     H_    0.459846 0.928083 0.634346 0.125351
H57   H     H_    0.683062 0.561353 0.030620 0.160740
H58   H     H_    0.650156 0.425664 0.172680 0.154061
H59   H     H_    0.692522 0.386883 0.070263 0.111543
H60   H     H_    0.916003 0.492761 0.136135 0.145750
H61   H     H_    0.914222 0.606242 0.150528 0.152226
H62   H     H_    0.003896 0.555917 0.099362 0.139212
H63   H     H_    0.036357 0.596880 0.258757 0.158049
H64   H     H_    0.037379 0.484313 0.244676 0.187804
H65   H     H_    0.888319 0.477583 0.304230 0.129484
H66   H     H_    0.890909 0.588800 0.323785 0.133067
H67   H     H_    0.425496 0.930458 0.376799 0.143246
H68   H     H_    0.092094 0.831707 0.453334 0.148020
H69   H     H_    0.094662 0.798858 0.334776 0.150812
H70   H     H_    0.006223 0.857704 0.377180 0.136632
H71   H     H_    0.969331 0.706905 0.359755 0.161114
H72   H     H_    0.966317 0.739593 0.477379 0.160271
H73   H     H_    0.113576 0.679993 0.499671 0.135481
H74   H     H_    0.112237 0.644999 0.383857 0.135573
H75   H     H_    0.927569 0.772803 0.723202 0.147460
H76   H     H_    0.936150 0.687079 0.803867 0.147879
H77   H     H_    0.022536 0.759994 0.790307 0.139562
H78   H     H_    0.465208 0.632451 0.920392 0.110781
H79   H     H_    0.052136 0.624520 0.711788 0.158446
H80   H     H_    0.044186 0.710480 0.632359 0.160291
H81   H     H_    0.896838 0.667749 0.591152 0.131619
H82   H     H_    0.899534 0.586666 0.675917 0.146366
H83   H     H_    0.559432 0.023621 0.143207 0.159047
H84   H     H_    0.562264 0.137473 0.152262 0.146162
H85   H     H_    0.653108 0.080916 0.112228 0.135027
H86   H     H_    0.675933 0.126875 0.270667 0.133186
H87   H     H_    0.671015 0.014169 0.263423 0.196891
H88   H     H_    0.511649 0.028531 0.301368 0.175025
H89   H     H_    0.944980 0.362537 0.550262 0.096452
H90   H     H_    0.533205 0.136341 0.324948 0.121800
N1    N     N_1   0.501700 0.501390 0.724970 -0.203463
N2    N     N_1   0.498280 0.498620 0.275030 -0.211510
O1    O     O_R   0.499910 0.379360 0.575970 -0.488914
O2    O     O_3   0.597045 0.907644 0.358194 -0.591907
O3    O     O_3   0.343241 0.512570 0.084907 -0.607598
O4    O     O_3   0.393284 0.385193 0.908963 -0.607864
O5    O     O_R   0.500090 0.379510 0.424100 -0.494577
O6    O     O_R   0.378990 0.499920 0.575920 -0.498917
O7    O     O_R   0.379170 0.500070 0.424050 -0.492839
O8    O     O_R   0.499910 0.620490 0.575900 -0.490614
O9    O     O_R   0.500090 0.620640 0.424030 -0.489806
O10   O     O_R   0.620830 0.499930 0.575950 -0.488005
O11   O     O_R   0.621010 0.500080 0.424080 -0.497839
O12   O     O_3   0.056665 0.377971 0.384183 -0.588918

loop_
_geom_bond_atom_site_label_1
_geom_bond_atom_site_label_2
_ccdc_geom_bond_type
C36   H19   S    
C47   H44   S    
C34   C56   S    
C23   C45   S    
C46   H42   S    
C12   C29   S    
C18   C21   S    
C41   C42   S    
C3    H1    S    
C35   C36   S    
C53   H65   S    
C22   H6    S    
C29   O12   S    
C43   C44   S    
C42   H33   S    
C27   O11   A    
C40   H29   S    
C37   H27   S    
C18   O4    S    
C7    C8    S    
C2    C37   S    
C53   C54   S    
C36   H18   S    
C15   C19   S    
C15   H2    S    
C45   C57   S    
C37   C38   S    
C28   C29   S    
Cu2   O7    S    
Cu1   N1    S    
C22   H9    S    
C40   O2    S    
C8    C11   S    
C38   C39   S    
C35   H16   S    
C49   H50   S    
C1    O5    A    
C54   H64   S    
C41   H32   S    
C60   H82   S    
C19   C26   S    
C33   H15   S    
C5    C16   S    
C65   H83   S    
C17   C19   S    
C7    C68   S    
C9    H67   S    
C45   C56   S    
C25   N1    T    
C8    C9    S    
C62   H75   S    
C64   H87   S    
C20   H78   S    
C13   C14   T    
C9    C10   S    
C61   C62   S    
C46   H43   S    
C43   H38   S    
C44   H39   S    
C23   C34   S    
C6    C68   S    
C15   H7    S    
C28   C34   S    
C18   H4    S    
C46   H41   S    
C12   C32   S    
C17   H3    S    
C23   C60   S    
C2    C6    S    
C53   H66   S    
C35   H17   S    
C63   H90   S    
Cu2   N2    S    
C39   H21   S    
C37   H28   S    
C42   H35   S    
C44   C46   S    
C50   C51   S    
C43   O3    S    
C24   C50   S    
C15   C20   S    
C4    O7    A    
C57   H73   S    
C27   C31   S    
C51   C52   S    
C51   H55   S    
C28   C32   S    
C3    C8    S    
C47   O4    S    
C48   H48   S    
C10   H23   S    
C58   C59   S    
C54   H63   S    
C12   C66   S    
C10   H12   S    
C28   H89   S    
C4    O6    A    
C33   H14   S    
C60   C61   S    
C60   H81   S    
C38   H25   S    
C31   C67   T    
Cu2   O9    S    
C39   H24   S    
C6    C10   S    
C65   H84   S    
C50   H59   S    
C32   H10   S    
C58   H72   S    
C47   C48   S    
C59   H69   S    
C55   H60   S    
C49   H51   S    
C17   C18   S    
C52   H53   S    
C43   H37   S    
C33   O12   S    
C42   H36   S    
C30   C66   T    
C3    O2    S    
C48   C49   S    
C7    H11   S    
C55   H61   S    
C62   H77   S    
C22   C24   S    
C50   H58   S    
C39   H22   S    
C2    C63   S    
C61   H80   S    
C53   C56   S    
C36   H20   S    
C41   H31   S    
C21   C25   S    
C54   C55   S    
C40   C41   S    
C57   H74   S    
C68   H13   S    
Cu1   O1    S    
C12   C45   S    
C34   C67   S    
C40   H30   S    
C52   H52   S    
C24   H5    S    
C5    C11   T    
C48   H47   S    
C29   C56   S    
C64   H86   S    
C59   H68   S    
C20   H8    S    
C51   H57   S    
C64   C65   S    
C2    C3    S    
Cu1   O6    S    
C65   H85   S    
C17   O3    S    
Cu2   O5    S    
C23   C32   S    
C6    C13   S    
C52   H54   S    
C16   O9    A    
C57   C58   S    
C49   H49   S    
C59   H70   S    
C9    H34   S    
C47   H46   S    
C33   C35   S    
C26   N2    T    
C19   C24   S    
Cu1   O8    S    
C7    H56   S    
Cu1   Cu2   S    
Cu2   O11   S    
C4    C30   S    
C68   H45   S    
C63   C64   S    
C16   O8    A    
C20   C21   S    
C1    O1    A    
C55   H62   S    
C62   H76   S    
C38   H26   S    
C1    C14   S    
C63   H88   S    
C21   C22   S    
C61   H79   S    
C27   O10   A    
Cu1   O10   S    
C58   H71   S    
C44   H40   S    
