data_mof_unit_8361.cif
_audit_creation_date              2012-12-10T18:04:36-0500
_audit_creation_method            fapswitch 2.2
_symmetry_space_group_name_H-M    P1
_symmetry_Int_Tables_number       1
_space_group_crystal_system       triclinic
_cell_length_a                    18.242769
_cell_length_b                    19.216063
_cell_length_c                    12.893318
_cell_angle_alpha                 90.272422
_cell_angle_beta                  98.362435
_cell_angle_gamma                 91.906326
_cell_volume                      4469.06650391

loop_
_atom_site_label
_atom_site_type_symbol
_atom_type_description
_atom_site_fract_x
_atom_site_fract_y
_atom_site_fract_z
_atom_type_partial_charge
C1    C     C_R   0.414827 0.104281 0.448755 0.868813
C2    C     C_R   0.421190 0.891872 0.452875 0.895692
C3    C     C_R   0.914826 0.604281 0.448755 0.868811
C4    C     C_R   0.921190 0.391872 0.452875 0.895687
C5    C     C_R   0.760560 0.215773 0.561591 -0.041301
C6    C     C_R   0.711525 0.745955 0.525489 -0.059929
C7    C     C_R   0.260560 0.715774 0.561590 -0.041285
C8    C     C_R   0.211530 0.245958 0.525493 -0.059931
C9    C     C_R   0.770946 0.239344 0.667250 -0.156541
C10   C     C_R   0.715453 0.716808 0.625965 -0.199689
C11   C     C_R   0.270946 0.739345 0.667250 -0.156551
C12   C     C_R   0.215458 0.216811 0.625969 -0.199687
C13   C     C_R   0.337357 0.776449 0.706406 0.517268
C14   C     C_R   0.279947 0.183181 0.667540 0.606397
C15   C     C_R   0.837357 0.276449 0.706406 0.517268
C16   C     C_R   0.779942 0.683179 0.667538 0.606406
C17   C     C_R   0.381090 0.803961 0.633539 -0.267673
C18   C     C_R   0.335159 0.175634 0.604210 -0.191943
C19   C     C_R   0.881091 0.303960 0.633538 -0.267667
C20   C     C_R   0.835155 0.675631 0.604208 -0.191935
C21   C     C_R   0.692974 0.183287 0.517346 -0.059941
C22   C     C_R   0.676811 0.809585 0.508392 -0.051468
C23   C     C_R   0.192972 0.683290 0.517344 -0.059940
C24   C     C_R   0.176814 0.309588 0.508396 -0.051469
C25   C     C_R   0.648177 0.191850 0.684820 0.363251
C26   C     C_R   0.620718 0.793168 0.668178 0.415706
C27   C     C_R   0.148176 0.691851 0.684818 0.363252
C28   C     C_R   0.120721 0.293169 0.668180 0.415714
C29   C     C_R   0.399267 0.816583 0.445265 -0.185273
C30   C     C_R   0.368701 0.165119 0.424575 -0.234067
C31   C     C_R   0.899266 0.316583 0.445264 -0.185281
C32   C     C_R   0.868698 0.665117 0.424573 -0.234068
C33   C     C_R   0.649232 0.981197 0.138079 0.544133
C34   C     C_R   0.149232 0.481197 0.138079 0.544136
C35   C     C_R   0.374110 0.003182 0.764042 0.532118
C36   C     C_R   0.874110 0.503181 0.764041 0.532131
C37   C     C_R   0.346828 0.995167 0.859354 0.251963
C38   C     C_R   0.846827 0.495167 0.859352 0.251932
C39   C     C_R   0.587885 0.897364 0.553440 0.955550
C40   C     C_R   0.588495 0.103507 0.553104 0.881532
C41   C     C_R   0.087885 0.397365 0.553441 0.955550
C42   C     C_R   0.088494 0.603507 0.553103 0.881536
C43   C     C_R   0.395367 0.968642 0.944551 0.431291
C44   C     C_R   0.895365 0.468643 0.944550 0.431306
C45   C     C_R   0.472046 0.985236 0.950628 -0.097972
C46   C     C_R   0.972045 0.485236 0.950628 -0.097971
C47   C     C_R   0.499736 0.996054 0.853690 -0.084791
C48   C     C_R   0.999736 0.496055 0.853690 -0.084789
C49   C     C_R   0.521924 0.986501 0.048381 -0.135059
C50   C     C_R   0.021924 0.486501 0.048381 -0.135059
C51   C     C_R   0.599093 0.987087 0.045999 -0.202735
C52   C     C_R   0.099092 0.487087 0.045998 -0.202736
C53   C     C_R   0.627623 0.001483 0.954314 0.433827
C54   C     C_R   0.127622 0.501483 0.954315 0.433827
C55   C     C_R   0.579987 0.002416 0.858721 -0.079135
C56   C     C_R   0.079987 0.502416 0.858721 -0.079137
C57   C     C_R   0.499188 0.996836 0.148765 0.603466
C58   C     C_R   0.999188 0.496836 0.148765 0.603462
C59   C     C_R   0.625920 0.993028 0.233531 -0.173641
C60   C     C_R   0.125920 0.493029 0.233530 -0.173641
C61   C     C_R   0.714239 0.226484 0.729300 0.437885
C62   C     C_R   0.661564 0.732525 0.688644 0.441905
C63   C     C_R   0.214238 0.726485 0.729299 0.437882
C64   C     C_R   0.161569 0.232527 0.688647 0.441893
C65   C     C_R   0.642307 0.161589 0.583894 -0.328387
C66   C     C_R   0.629391 0.833016 0.577779 -0.274200
C67   C     C_R   0.142306 0.661590 0.583892 -0.328409
C68   C     C_R   0.129393 0.333017 0.577781 -0.274197
C69   C     C_R   0.411741 0.773880 0.359491 0.363631
C70   C     C_R   0.362855 0.194656 0.323916 0.445245
C71   C     C_R   0.911740 0.273880 0.359490 0.363631
C72   C     C_R   0.862851 0.694654 0.323915 0.445253
C73   C     C_R   0.382173 0.704214 0.352694 -0.190358
C74   C     C_R   0.293734 0.220489 0.279577 -0.122939
C75   C     C_R   0.882173 0.204214 0.352693 -0.190357
C76   C     C_R   0.793730 0.720486 0.279575 -0.122940
C77   C     C_R   0.332964 0.682732 0.421965 0.471076
C78   C     C_R   0.237723 0.226144 0.343406 0.359882
C79   C     C_R   0.832964 0.182731 0.421964 0.471033
C80   C     C_R   0.737719 0.726139 0.343403 0.359882
C81   C     C_R   0.317234 0.728827 0.500266 -0.010275
C82   C     C_R   0.255561 0.219164 0.453768 0.041992
C83   C     C_R   0.817234 0.228827 0.500265 -0.010305
C84   C     C_R   0.755556 0.719160 0.453765 0.041995
C85   C     C_R   0.365269 0.785431 0.526276 -0.105008
C86   C     C_R   0.320323 0.185800 0.494479 -0.095030
C87   C     C_R   0.865268 0.285431 0.526275 -0.104996
C88   C     C_R   0.820318 0.685797 0.494476 -0.095036
H1    H     H_    0.429097 0.836469 0.662077 0.224559
H2    H     H_    0.389273 0.162829 0.642953 0.183006
H3    H     H_    0.929097 0.336468 0.662076 0.224556
H4    H     H_    0.889269 0.662828 0.642952 0.183012
N1    N     N_R   0.552340 0.000000 0.237260 -0.226027
N2    N     N_R   0.052340 0.500000 0.237260 -0.226030
N3    N     N_R   0.448170 0.000000 0.762060 -0.195073
N4    N     N_R   0.948170 0.500000 0.762060 -0.195072
O1    O     O_R   0.448200 0.076800 0.373930 -0.609211
O2    O     O_R   0.448200 0.923200 0.373930 -0.597291
O3    O     O_R   0.948200 0.576800 0.373930 -0.609214
O4    O     O_R   0.948200 0.423200 0.373930 -0.597292
O5    O     O_R   0.414750 0.076790 0.542400 -0.569145
O6    O     O_R   0.414750 0.923210 0.542400 -0.618737
O7    O     O_R   0.914750 0.576790 0.542400 -0.569144
O8    O     O_R   0.914750 0.423210 0.542400 -0.618737
O9    O     O_R   0.585240 0.923200 0.457600 -0.683493
O10   O     O_R   0.585240 0.076800 0.457600 -0.678293
O11   O     O_R   0.085240 0.423200 0.457600 -0.683490
O12   O     O_R   0.085240 0.576800 0.457600 -0.678301
O13   O     O_R   0.551780 0.923190 0.626070 -0.539922
O14   O     O_R   0.551780 0.076810 0.626070 -0.597356
O15   O     O_R   0.051780 0.423190 0.626070 -0.539923
O16   O     O_R   0.051780 0.576810 0.626070 -0.597350
Zn1   Zn    Zn3+2 0.522330 0.000000 0.387520 0.933447
Zn2   Zn    Zn3+2 0.022330 0.500000 0.387520 0.933443
Zn3   Zn    Zn3+2 0.477660 0.000000 0.612480 0.999509
Zn4   Zn    Zn3+2 0.977660 0.500000 0.612480 0.999512
O17   O     O_3   0.589619 0.187467 0.741891 -0.604768
C89   C     C_3   0.540306 0.240332 0.707377 -0.232070
H5    H     H_    0.513337 0.230430 0.625290 0.155850
H6    H     H_    0.568576 0.292793 0.714453 0.170024
H7    H     H_    0.496185 0.240671 0.757910 0.161876
O18   O     O_3   0.572440 0.813911 0.735436 -0.615705
C90   C     C_3   0.609791 0.822411 0.839287 -0.198362
H8    H     H_    0.669880 0.836679 0.843729 0.164915
H9    H     H_    0.602148 0.774825 0.885409 0.182919
H10   H     H_    0.584107 0.864526 0.878297 0.148023
O19   O     O_3   0.089617 0.687467 0.741889 -0.604768
C91   C     C_3   0.040310 0.740336 0.707383 -0.232077
H11   H     H_    0.013334 0.730436 0.625299 0.155851
H12   H     H_    0.068585 0.792795 0.714457 0.170022
H13   H     H_    0.996193 0.740680 0.757925 0.161882
O20   O     O_3   0.072441 0.313911 0.735437 -0.615705
C92   C     C_3   0.109790 0.322412 0.839288 -0.198356
H14   H     H_    0.169880 0.336680 0.843732 0.164916
H15   H     H_    0.102148 0.274826 0.885411 0.182918
H16   H     H_    0.084106 0.364527 0.878297 0.148021
O21   O     O_3   0.697549 0.035709 0.963568 -0.615597
C93   C     C_3   0.753246 0.993466 0.933298 -0.165279
H17   H     H_    0.736151 0.937611 0.920936 0.149651
H18   H     H_    0.802599 0.996910 0.994710 0.217919
H19   H     H_    0.771893 0.014744 0.861300 0.151902
O22   O     O_3   0.197548 0.535710 0.963568 -0.615598
C94   C     C_3   0.253245 0.493468 0.933298 -0.165276
H20   H     H_    0.236151 0.437613 0.920937 0.149653
H21   H     H_    0.302598 0.496913 0.994711 0.217920
H22   H     H_    0.271892 0.514746 0.861300 0.151900
O23   O     O_3   0.722836 0.968540 0.134397 -0.519735
C95   C     C_3   0.731054 0.896123 0.131562 -0.202974
H23   H     H_    0.694602 0.870917 0.064059 0.094217
H24   H     H_    0.720298 0.871997 0.206040 0.178552
H25   H     H_    0.789301 0.886687 0.122194 0.234017
O24   O     O_3   0.222836 0.468540 0.134397 -0.519737
C96   C     C_3   0.231053 0.396123 0.131562 -0.202980
H26   H     H_    0.194602 0.370918 0.064058 0.094220
H27   H     H_    0.220297 0.371997 0.206040 0.178552
H28   H     H_    0.289301 0.386687 0.122195 0.234020
O25   O     O_3   0.431948 0.028323 0.151426 -0.669450
C97   C     C_3   0.379011 0.986086 0.193547 -0.135591
H29   H     H_    0.367616 0.005723 0.269424 0.169761
H30   H     H_    0.392101 0.930610 0.198828 0.200142
H31   H     H_    0.325067 0.990354 0.143055 0.143650
O26   O     O_3   0.931947 0.528321 0.151427 -0.669443
C98   C     C_3   0.879012 0.486084 0.193550 -0.135562
H32   H     H_    0.867618 0.505720 0.269428 0.169758
H33   H     H_    0.892103 0.430607 0.198829 0.200139
H34   H     H_    0.825067 0.490350 0.143062 0.143643
O27   O     O_3   0.328318 0.017795 0.671848 -0.560586
C99   C     C_3   0.271655 0.965843 0.647673 -0.167005
H35   H     H_    0.219910 0.982718 0.674609 0.191305
H36   H     H_    0.286573 0.913874 0.680541 0.138887
H37   H     H_    0.259935 0.959592 0.561211 0.161723
O28   O     O_3   0.828319 0.517794 0.671846 -0.560589
C100  C     C_3   0.771655 0.465842 0.647670 -0.167002
H38   H     H_    0.719911 0.482718 0.674605 0.191308
H39   H     H_    0.786573 0.413874 0.680540 0.138887
H40   H     H_    0.759936 0.459591 0.561208 0.161722
O29   O     O_3   0.374494 0.917440 0.011791 -0.665149
C101  C     C_3   0.304258 0.884268 0.980584 -0.171223
H41   H     H_    0.288644 0.878577 0.894622 0.250779
H42   H     H_    0.260721 0.911454 0.014703 0.156578
H43   H     H_    0.305662 0.830998 0.012600 0.177063
O30   O     O_3   0.874492 0.417442 0.011791 -0.665147
C102  C     C_3   0.804256 0.384269 0.980583 -0.171229
H44   H     H_    0.788643 0.378577 0.894621 0.250781
H45   H     H_    0.760718 0.411457 0.014698 0.156579
H46   H     H_    0.805659 0.331000 0.012603 0.177060
O31   O     O_3   0.272458 0.005627 0.863865 -0.617279
C103  C     C_3   0.264183 0.054114 0.944074 -0.181368
H47   H     H_    0.316494 0.081432 0.981000 0.148337
H48   H     H_    0.225929 0.094480 0.910606 0.240328
H49   H     H_    0.237361 0.027885 0.005694 0.122828
O32   O     O_3   0.772457 0.505628 0.863861 -0.617298
C104  C     C_3   0.764184 0.554123 0.944059 -0.181219
H50   H     H_    0.816491 0.581474 0.980929 0.148343
H51   H     H_    0.725894 0.594462 0.910598 0.240280
H52   H     H_    0.737408 0.527893 0.005720 0.122788
C105  C     C_2   0.624136 0.014390 0.774689 0.580425
H53   H     H_    0.642839 0.067106 0.763278 0.081957
O33   O     O_2   0.659034 0.967864 0.742603 -0.644093
C106  C     C_2   0.124136 0.514390 0.774689 0.580424
H54   H     H_    0.142839 0.567106 0.763278 0.081958
O34   O     O_2   0.159034 0.467865 0.742604 -0.644092
O35   O     O_3   0.352989 0.791130 0.813038 -0.609117
C107  C     C_3   0.429036 0.788030 0.851558 -0.316647
H55   H     H_    0.456648 0.839172 0.840958 0.200824
H56   H     H_    0.456180 0.744903 0.815277 0.179902
H57   H     H_    0.435206 0.778342 0.937066 0.186484
O36   O     O_3   0.290324 0.162596 0.771508 -0.554188
C108  C     C_3   0.352236 0.198259 0.828908 -0.340353
H58   H     H_    0.359689 0.252904 0.802560 0.146966
H59   H     H_    0.403062 0.168612 0.825603 0.165086
H60   H     H_    0.343833 0.200942 0.912278 0.220129
O37   O     O_3   0.852989 0.291130 0.813038 -0.609117
C109  C     C_3   0.929036 0.288031 0.851558 -0.316648
H61   H     H_    0.956648 0.339174 0.840957 0.200822
H62   H     H_    0.956180 0.244904 0.815277 0.179905
H63   H     H_    0.935207 0.278344 0.937066 0.186484
O38   O     O_3   0.790323 0.662601 0.771509 -0.554188
C110  C     C_3   0.852225 0.698279 0.828903 -0.340404
H64   H     H_    0.859668 0.752921 0.802544 0.146974
H65   H     H_    0.903058 0.668641 0.825606 0.165092
H66   H     H_    0.843820 0.700967 0.912271 0.220143
O39   O     O_3   0.720137 0.252910 0.830351 -0.591217
C111  C     C_3   0.733407 0.197654 0.901667 -0.142007
H67   H     H_    0.747338 0.219569 0.982028 0.168932
H68   H     H_    0.781097 0.166475 0.885898 0.149351
H69   H     H_    0.682979 0.163678 0.901044 0.209444
O40   O     O_3   0.651814 0.691516 0.773651 -0.581226
C112  C     C_3   0.600874 0.636747 0.738310 -0.300161
H70   H     H_    0.623318 0.602266 0.681696 0.173679
H71   H     H_    0.546418 0.656881 0.702762 0.147392
H72   H     H_    0.591142 0.604663 0.806597 0.181492
O41   O     O_3   0.220136 0.752910 0.830350 -0.591220
C113  C     C_3   0.233405 0.697654 0.901666 -0.142008
H73   H     H_    0.247334 0.719570 0.982028 0.168934
H74   H     H_    0.281098 0.666476 0.885899 0.149353
H75   H     H_    0.182978 0.663677 0.901040 0.209444
O42   O     O_3   0.151820 0.191519 0.773656 -0.581231
C114  C     C_3   0.100889 0.136743 0.738315 -0.300126
H76   H     H_    0.123340 0.102264 0.681706 0.173684
H77   H     H_    0.046431 0.156869 0.702761 0.147379
H78   H     H_    0.091159 0.104660 0.806603 0.181498
C115  C     C_2   0.669068 0.187941 0.401977 0.527984
H79   H     H_    0.653619 0.142341 0.353391 0.097247
O43   O     O_2   0.668631 0.244580 0.359409 -0.586595
C116  C     C_2   0.707036 0.858542 0.436341 0.513887
H80   H     H_    0.674135 0.870052 0.362263 0.103345
O44   O     O_2   0.770017 0.883124 0.458054 -0.575804
C117  C     C_2   0.169067 0.687947 0.401974 0.527971
H81   H     H_    0.153589 0.642352 0.353388 0.097245
O45   O     O_2   0.168662 0.744584 0.359403 -0.586609
C118  C     C_2   0.207040 0.358546 0.436347 0.513891
H82   H     H_    0.174140 0.370055 0.362268 0.103345
O46   O     O_2   0.270020 0.383129 0.458063 -0.575809
O47   O     O_3   0.462433 0.796811 0.295432 -0.588768
C119  C     C_3   0.429038 0.798334 0.189534 -0.278869
H83   H     H_    0.369102 0.810188 0.180264 0.153279
H84   H     H_    0.436572 0.749047 0.148240 0.137971
H85   H     H_    0.458371 0.839133 0.149205 0.210578
O48   O     O_3   0.427810 0.216428 0.287532 -0.573035
C120  C     C_3   0.441233 0.176906 0.200353 -0.042120
H86   H     H_    0.458937 0.212859 0.140932 0.181371
H87   H     H_    0.392113 0.145795 0.161881 0.162688
H88   H     H_    0.488677 0.143154 0.224432 0.188588
O49   O     O_3   0.962432 0.296812 0.295430 -0.588767
C121  C     C_3   0.929038 0.298333 0.189532 -0.278883
H89   H     H_    0.869101 0.310186 0.180262 0.153277
H90   H     H_    0.936572 0.249046 0.148240 0.137973
H91   H     H_    0.958370 0.339132 0.149202 0.210578
O50   O     O_3   0.927807 0.716427 0.287531 -0.573045
C122  C     C_3   0.941230 0.676905 0.200352 -0.042147
H92   H     H_    0.958933 0.712857 0.140930 0.181372
H93   H     H_    0.892110 0.645793 0.161880 0.162699
H94   H     H_    0.988674 0.643153 0.224431 0.188583
O51   O     O_3   0.808700 0.113902 0.423245 -0.560278
C123  C     C_3   0.855428 0.078995 0.501971 -0.192026
H95   H     H_    0.837446 0.023307 0.501314 0.243416
H96   H     H_    0.851509 0.099990 0.581453 0.111856
H97   H     H_    0.914099 0.081516 0.487254 0.136698
O52   O     O_3   0.667824 0.745234 0.298882 -0.642831
C124  C     C_3   0.622523 0.684554 0.279074 -0.328605
H98   H     H_    0.605364 0.664604 0.353038 0.180869
H99   H     H_    0.649640 0.643064 0.239016 0.131911
H100  H     H_    0.572313 0.698371 0.225213 0.205594
O53   O     O_3   0.308699 0.613903 0.423245 -0.560269
C125  C     C_3   0.355425 0.578995 0.501972 -0.192037
H101  H     H_    0.337444 0.523307 0.501312 0.243424
H102  H     H_    0.351504 0.599989 0.581454 0.111855
H103  H     H_    0.414097 0.581517 0.487257 0.136695
O54   O     O_3   0.167829 0.245239 0.298885 -0.642837
C126  C     C_3   0.122525 0.184560 0.279087 -0.328605
H104  H     H_    0.105367 0.164615 0.353054 0.180868
H105  H     H_    0.149639 0.143066 0.239032 0.131913
H106  H     H_    0.072314 0.198377 0.225227 0.205599
C127  C     C_2   0.405388 0.652851 0.278746 0.460683
H107  H     H_    0.460006 0.657231 0.256061 0.031034
O55   O     O_2   0.363672 0.605008 0.242232 -0.463169
C128  C     C_2   0.276978 0.240191 0.167486 0.340068
H108  H     H_    0.219919 0.239955 0.129224 0.101238
O56   O     O_2   0.325394 0.259106 0.116924 -0.607406
C129  C     C_2   0.905389 0.152851 0.278746 0.460686
H109  H     H_    0.960007 0.157230 0.256063 0.031030
O57   O     O_2   0.863673 0.105008 0.242231 -0.463174
C130  C     C_2   0.776975 0.740190 0.167484 0.340071
H110  H     H_    0.719916 0.739956 0.129222 0.101238
O58   O     O_2   0.825391 0.759104 0.116922 -0.607415
C131  C     C_2   0.682262 0.001504 0.328610 0.485894
H111  H     H_    0.667693 0.006157 0.405261 0.122566
O59   O     O_2   0.748421 0.001847 0.323072 -0.432628
C132  C     C_2   0.182262 0.501505 0.328609 0.485909
H112  H     H_    0.167693 0.506158 0.405260 0.122566
O60   O     O_2   0.248421 0.501849 0.323070 -0.432627

loop_
_geom_bond_atom_site_label_1
_geom_bond_atom_site_label_2
_ccdc_geom_bond_type
C25   C65   A    
C94   H22   S    
C83   C87   A    
O35   C107  S    
C111  H69   S    
C116  O44   D    
O25   C97   S    
C44   O30   S    
C122  H94   S    
C14   C18   A    
C26   C66   A    
C98   H32   S    
C34   C60   A    
C95   H25   S    
C76   C130  S    
C101  H43   S    
C72   C76   A    
C91   H11   S    
C47   N3    A    
O3    Zn2   S    
C59   C131  S    
C101  H41   S    
N2    Zn2   S    
O38   C110  S    
C90   H8    S    
C127  O55   D    
C71   C75   A    
C55   C105  S    
C129  H109  S    
C124  H100  S    
C15   C19   A    
C20   H4    S    
C117  H81   S    
C18   C86   A    
C113  H74   S    
C103  H49   S    
C53   O21   S    
C40   O10   A    
C14   O36   S    
C28   C68   A    
C114  H76   S    
C95   H24   S    
C120  H87   S    
C112  H72   S    
C19   C87   A    
C102  H45   S    
C60   C132  S    
C125  H101  S    
C12   C64   A    
C109  H62   S    
C99   H36   S    
C90   H9    S    
C110  H65   S    
C2    O6    A    
C23   C67   A    
C94   H20   S    
C6    C22   A    
C119  H85   S    
C94   H21   S    
C108  H60   S    
C49   C57   A    
O53   C125  S    
C103  H48   S    
O54   C126  S    
O22   C94   S    
O12   Zn2   S    
C105  O33   D    
C42   O16   A    
C89   H5    S    
C22   C66   A    
O6    Zn3   S    
C33   O23   S    
O23   C95   S    
C8    C24   A    
C7    C81   A    
O8    Zn4   S    
C27   O19   S    
C99   H37   S    
C96   H26   S    
O39   C111  S    
N3    Zn3   S    
O20   C92   S    
C49   C51   A    
C119  H84   S    
C115  H79   S    
C70   C74   A    
C92   H16   S    
C50   C52   A    
C123  H97   S    
C16   O38   S    
O15   Zn4   S    
C45   C49   A    
C8    C12   A    
C30   C86   A    
C41   O11   A    
O41   C113  S    
C64   O42   S    
C97   H31   S    
C80   C84   A    
C21   C115  S    
C21   C65   A    
C132  H112  S    
C126  H104  S    
C53   C55   A    
C71   O49   S    
C57   N1    A    
C121  H89   S    
C111  H67   S    
C97   H30   S    
C107  H55   S    
C107  H56   S    
C10   C62   A    
C128  O56   D    
O40   C112  S    
C30   C70   A    
C52   C54   A    
C78   O54   S    
C41   C68   S    
C29   C69   A    
C45   C47   A    
C132  O60   D    
C117  O45   D    
C6    C84   A    
O10   Zn1   S    
C17   H1    S    
C131  H111  S    
C50   C58   A    
C99   H35   S    
C24   C118  S    
C126  H106  S    
C31   C87   A    
O52   C124  S    
C32   C72   A    
O42   C114  S    
C102  H46   S    
C1    O1    A    
O27   C99   S    
C22   C116  S    
C120  H86   S    
C109  H61   S    
C106  H54   S    
C90   H10   S    
N1    Zn1   S    
C44   C46   A    
C115  O43   D    
C124  H98   S    
O37   C109  S    
C24   C68   A    
C93   H19   S    
C33   C51   A    
C13   O35   S    
C111  H68   S    
C103  H47   S    
C126  H105  S    
C89   H7    S    
C18   H2    S    
C97   H29   S    
C37   C43   A    
C7    C11   A    
C102  H44   S    
C61   O39   S    
O11   Zn2   S    
C38   C44   A    
C112  H70   S    
C9    C61   A    
C63   O41   S    
C92   H14   S    
C113  H73   S    
C78   C82   A    
C118  O46   D    
C35   O27   S    
C107  H57   S    
C77   C81   A    
C16   C20   A    
C104  H52   S    
C119  H83   S    
C98   H34   S    
C104  H51   S    
C108  H58   S    
C36   O28   S    
O4    Zn2   S    
C3    C32   S    
C114  H77   S    
C25   C61   A    
C127  H107  S    
C95   H23   S    
C96   H28   S    
C69   C73   A    
O30   C102  S    
C43   C45   A    
O36   C108  S    
C129  O57   D    
C121  H90   S    
C60   N2    A    
C28   C64   A    
C106  O34   D    
C130  H110  S    
C54   O22   S    
O51   C123  S    
C123  H96   S    
C104  H50   S    
C38   O32   S    
C40   C65   S    
C2    C29   S    
C41   O15   A    
C42   C67   S    
O5    Zn3   S    
C39   C66   S    
C17   C85   A    
C74   C128  S    
C96   H27   S    
C128  H108  S    
C122  H93   S    
O1    Zn1   S    
O47   C119  S    
C58   O26   S    
C91   H13   S    
C1    O5    A    
O16   Zn4   S    
C8    C82   A    
C23   C117  S    
O28   C100  S    
C69   O47   S    
C47   C55   A    
O26   C98   S    
O49   C121  S    
C100  H40   S    
C3    O7    A    
C48   C56   A    
C57   O25   S    
C116  H80   S    
C43   O29   S    
C34   O24   S    
C48   N4    A    
C125  H103  S    
C35   C37   A    
C9    C15   A    
C29   C85   A    
C19   H3    S    
N4    Zn4   S    
C39   O9    A    
C76   C80   A    
C7    C23   A    
C77   O53   S    
O48   C120  S    
O2    Zn1   S    
C109  H63   S    
C91   H12   S    
C6    C10   A    
C120  H88   S    
C101  H42   S    
C15   O37   S    
C72   O50   S    
C54   C56   A    
O19   C91   S    
C93   H18   S    
O9    Zn1   S    
C35   N3    A    
C124  H99   S    
C59   N1    A    
O21   C93   S    
C46   C50   A    
C34   C52   A    
C4    O4    A    
C13   C17   A    
C79   O51   S    
C73   C127  S    
O32   C104  S    
C118  H82   S    
C110  H64   S    
O7    Zn4   S    
C26   C62   A    
C131  O59   D    
O31   C103  S    
C112  H71   S    
C82   C86   A    
O17   C89   S    
C36   C38   A    
C125  H102  S    
C123  H95   S    
C11   C13   A    
C100  H39   S    
C37   O31   S    
C84   C88   A    
C42   O12   A    
C121  H91   S    
C5    C83   A    
C20   C88   A    
C70   O48   S    
C1    C30   S    
C108  H59   S    
C4    O8    A    
C114  H78   S    
C62   O40   S    
C58   N2    A    
C105  H53   S    
C89   H6    S    
C40   O14   A    
C4    C31   S    
C27   C67   A    
C93   H17   S    
O13   Zn3   S    
C51   C53   A    
C100  H38   S    
C79   C83   A    
C46   C48   A    
C3    O3    A    
C12   C14   A    
C39   O13   A    
C5    C21   A    
O24   C96   S    
C2    O2    A    
C33   C59   A    
O29   C101  S    
C74   C78   A    
C25   O17   S    
C130  O58   D    
C80   O52   S    
C92   H15   S    
C73   C77   A    
O50   C122  S    
C27   C63   A    
C98   H33   S    
C10   C16   A    
C5    C9    A    
C26   O18   S    
C28   O20   S    
O18   C90   S    
C36   N4    A    
C11   C63   A    
C75   C79   A    
O14   Zn3   S    
C113  H75   S    
C75   C129  S    
C81   C85   A    
C122  H92   S    
C56   C106  S    
C31   C71   A    
C110  H66   S    
C32   C88   A    
