data_mof_unit_32709.cif
_audit_creation_date              2012-12-10T17:32:57-0500
_audit_creation_method            fapswitch 2.2
_symmetry_space_group_name_H-M    P1
_symmetry_Int_Tables_number       1
_space_group_crystal_system       triclinic
_cell_length_a                    12.263808
_cell_length_b                    13.409284
_cell_length_c                    14.407327
_cell_angle_alpha                 93.283932
_cell_angle_beta                  107.859423
_cell_angle_gamma                 116.573437
_cell_volume                      1963.5354614

loop_
_atom_site_label
_atom_site_type_symbol
_atom_type_description
_atom_site_fract_x
_atom_site_fract_y
_atom_site_fract_z
_atom_type_partial_charge
C1    C     C_R   0.644254 0.711378 0.498165 0.833106
C2    C     C_R   0.803587 0.440103 0.908403 -0.082308
C3    C     C_R   0.761117 0.463280 0.983232 -0.160962
C4    C     C_R   0.916346 0.424434 0.937535 0.048528
C5    C     C_R   0.978071 0.426900 0.039137 0.025005
C6    C     C_R   0.911341 0.421372 0.104115 -0.213980
C7    C     C_R   0.795821 0.427693 0.072216 0.501409
C8    C     C_R   0.971008 0.409514 0.869220 -0.170684
C9    C     C_R   0.068674 0.377932 0.894494 0.413767
C10   C     C_R   0.139140 0.391100 0.997417 -0.020609
C11   C     C_R   0.097862 0.423680 0.070568 0.055301
C12   C     C_R   0.608856 0.504167 0.685035 0.884263
C13   C     C_R   0.250656 0.376581 0.030963 -0.009666
C14   C     C_R   0.324384 0.401023 0.132905 -0.121920
C15   C     C_R   0.178415 0.454417 0.173223 -0.163860
C16   C     C_R   0.142554 0.984571 0.342971 0.411257
C17   C     C_R   0.248811 0.165743 0.459769 -0.050438
C18   C     C_R   0.677988 0.912833 0.495462 0.424784
C19   C     C_R   0.766671 0.028394 0.511428 -0.109823
C20   C     C_R   0.887026 0.063176 0.503372 -0.215821
C21   C     C_R   0.918549 0.982554 0.469719 0.094322
C22   C     C_R   0.828542 0.863808 0.450868 -0.030381
C23   C     C_R   0.345749 0.286357 0.485915 0.865938
C24   C     C_R   0.033675 0.018409 0.447683 0.003705
C25   C     C_R   0.043618 0.940630 0.384358 -0.075119
C26   C     C_R   0.962234 0.822821 0.371976 0.442220
C27   C     C_R   0.853557 0.785772 0.401730 -0.223284
C28   C     C_R   0.140376 0.130091 0.487755 -0.207927
C29   C     C_R   0.250205 0.092260 0.388650 -0.255660
C30   C     C_R   0.716423 0.829118 0.480285 -0.213047
C31   C     C_R   0.254214 0.686307 0.658520 -0.168213
C32   C     C_R   0.652833 0.329249 0.381137 0.218207
C33   C     C_R   0.729045 0.281048 0.369665 -0.191776
C34   C     C_R   0.375644 0.476296 0.312760 0.800070
C35   C     C_R   0.865417 0.342829 0.416669 -0.214327
C36   C     C_R   0.926464 0.450463 0.482231 0.082396
C37   C     C_R   0.842946 0.491082 0.499487 0.361860
C38   C     C_R   0.066472 0.518397 0.532807 0.011421
C39   C     C_R   0.118319 0.617150 0.608595 0.161422
C40   C     C_R   0.034607 0.648926 0.631556 -0.201262
C41   C     C_R   0.900521 0.588700 0.577071 -0.145292
C42   C     C_R   0.158428 0.495666 0.509210 0.055565
C43   C     C_R   0.338837 0.660202 0.630671 0.250818
C44   C     C_R   0.652034 0.484664 0.788261 -0.326885
C45   C     C_R   0.293235 0.445724 0.204746 -0.080192
C46   C     C_R   0.678872 0.513097 0.965311 0.376089
C47   C     C_R   0.615676 0.516111 0.866363 0.199094
C48   C     C_R   0.727583 0.428102 0.808075 0.317940
Cu1   Cu    Cu3+1 0.416420 0.526630 0.522910 1.044569
Cu2   Cu    Cu3+1 0.583580 0.473370 0.477090 0.997939
H1    H     H_    0.286370 0.350212 0.980764 0.250646
H2    H     H_    0.142671 0.189968 0.542794 0.169915
H3    H     H_    0.740850 0.093117 0.527266 0.203372
H4    H     H_    0.787830 0.695010 0.381805 0.229535
H5    H     H_    0.443527 0.714942 0.666408 0.183646
H6    H     H_    0.154546 0.488567 0.229243 0.175566
H7    H     H_    0.126856 0.423670 0.450820 0.112691
H8    H     H_    0.547342 0.280917 0.343027 0.120329
H9    H     H_    0.845978 0.621202 0.600189 0.194758
H10   H     H_    0.933477 0.416388 0.793261 0.225393
N1    N     N_R   0.290690 0.566960 0.557640 -0.199334
N2    N     N_R   0.709100 0.433710 0.442970 -0.211642
O1    O     O_R   0.545970 0.684450 0.528810 -0.526879
O2    O     O_R   0.687130 0.639470 0.490120 -0.630092
O3    O     O_R   0.519670 0.535100 0.660030 -0.538373
O4    O     O_R   0.660830 0.490120 0.621340 -0.562980
O5    O     O_R   0.312870 0.360530 0.509880 -0.596892
O6    O     O_R   0.454030 0.315550 0.471190 -0.586627
O7    O     O_R   0.339170 0.509880 0.378660 -0.574957
O8    O     O_R   0.480330 0.464900 0.339970 -0.584066
S1    S     S_3+6 0.674952 0.350847 0.121551 0.054281
O9    O     O_2   0.701521 0.423488 0.217274 -0.241616
O10   O     O_2   0.540515 0.318469 0.048354 -0.242435
O11   O     O_3   0.676302 0.229122 0.142417 -0.503329
H11   H     H_    0.765493 0.253038 0.190719 0.325988
H12   H     H_    0.326637 0.124616 0.357930 0.160424
S2    S     S_3+6 0.025152 0.727593 0.362744 0.042168
O12   O     O_2   0.924990 0.608194 0.356323 -0.290316
O13   O     O_2   0.064371 0.725973 0.274161 -0.183193
O14   O     O_3   0.159314 0.771516 0.466655 -0.548702
H13   H     H_    0.203755 0.730150 0.451741 0.394173
S3    S     S_3+6 0.111012 0.941395 0.214688 0.075402
O15   O     O_2   0.202288 0.899083 0.204047 -0.223468
O16   O     O_2   0.971280 0.850197 0.159323 -0.177915
O17   O     O_3   0.137588 0.055258 0.162580 -0.512004
H14   H     H_    0.231865 0.093309 0.172300 0.352951
S4    S     S_3+6 0.516148 0.880933 0.481128 0.026438
O18   O     O_2   0.416222 0.768040 0.408522 -0.277207
O19   O     O_2   0.503837 0.878758 0.581527 -0.292183
O20   O     O_3   0.487377 0.983981 0.437333 -0.532250
H15   H     H_    0.397578 0.962427 0.434132 0.399744
H16   H     H_    0.947611 0.154204 0.513331 0.166648
H17   H     H_    0.073625 0.723820 0.690190 0.167237
H18   H     H_    0.294773 0.762132 0.716506 0.177693
H19   H     H_    0.920481 0.302884 0.403936 0.127971
H20   H     H_    0.682080 0.195755 0.323517 0.190517
H21   H     H_    0.408017 0.386815 0.155502 0.222634
S5    S     S_3+6 0.085530 0.318404 0.789516 0.039958
O21   O     O_2   0.952549 0.220099 0.725880 -0.276197
O22   O     O_2   0.122572 0.407892 0.729852 -0.267428
O23   O     O_3   0.193170 0.269169 0.814815 -0.499470
H22   H     H_    0.184260 0.234330 0.748512 0.386364
S6    S     S_3+6 0.688571 0.601084 0.068876 0.112142
O24   O     O_2   0.574218 0.538601 0.099954 -0.247686
O25   O     O_2   0.811517 0.633680 0.156111 -0.205199
O26   O     O_3   0.691635 0.721447 0.038913 -0.454958
H23   H     H_    0.688732 0.761163 0.097505 0.386385
S7    S     S_3+6 0.480826 0.544693 0.841183 0.113956
O27   O     O_2   0.368554 0.462222 0.748106 -0.212423
O28   O     O_2   0.428257 0.531422 0.923476 -0.183551
O29   O     O_3   0.531617 0.680129 0.827891 -0.495547
H24   H     H_    0.621310 0.708927 0.827742 0.343822
S8    S     S_3+6 0.669861 0.299656 0.719242 0.047910
O30   O     O_2   0.698567 0.215364 0.771603 -0.216226
O31   O     O_2   0.523761 0.246073 0.665859 -0.279584
O32   O     O_3   0.741589 0.327906 0.634417 -0.542733
H25   H     H_    0.698300 0.253827 0.585715 0.379001
H26   H     H_    0.941067 0.400929 0.175852 0.130247

loop_
_geom_bond_atom_site_label_1
_geom_bond_atom_site_label_2
_ccdc_geom_bond_type
S4    O18   D    
C1    O2    A    
C9    S5    S    
Cu1   O1    S    
Cu2   O2    S    
C35   C36   A    
C32   H8    S    
C40   H17   S    
C4    C8    A    
C37   N2    A    
C27   H4    S    
C29   H12   S    
S2    O12   D    
S7    O27   D    
C20   H16   S    
C26   C27   A    
C17   C23   S    
C31   C43   A    
C36   C37   A    
C38   C42   A    
C3    C7    A    
C7    S1    S    
C5    C6    A    
O26   H23   S    
C17   C29   A    
O32   H25   S    
C18   C19   A    
C23   O5    A    
C13   H1    S    
C11   C15   A    
C19   C20   A    
C31   C39   A    
C8    C9    A    
C18   C30   A    
Cu1   O5    S    
C9    C10   A    
C34   O8    A    
C44   C47   A    
S8    O32   S    
C19   H3    S    
Cu1   O7    S    
C21   C22   A    
C37   C41   A    
C1    O1    A    
C42   H7    S    
C14   C45   A    
S2    O13   D    
C26   S2    S    
Cu1   N1    S    
O11   H11   S    
O23   H22   S    
C24   C25   A    
C41   H9    S    
C39   C40   A    
S1    O10   D    
O14   H13   S    
C2    C48   A    
C16   C29   A    
O17   H14   S    
C12   O4    A    
S3    O15   D    
C23   O6    A    
C2    C4    A    
C34   O7    A    
C16   S3    S    
S6    O25   D    
C34   C45   S    
Cu2   O4    S    
C42   N1    A    
Cu1   O3    S    
C43   H5    S    
C40   C41   A    
Cu1   Cu2   S    
S3    O16   D    
C22   C27   A    
S4    O19   D    
C31   H18   S    
Cu2   N2    S    
S4    O20   S    
C15   C45   A    
S3    O17   S    
C33   H20   S    
C43   N1    A    
C14   H21   S    
S8    O30   D    
C12   O3    A    
S2    O14   S    
C16   C25   A    
C47   S7    S    
C46   C47   A    
C22   C30   A    
O29   H24   S    
C17   C28   A    
C24   C28   A    
C4    C5    A    
C10   C13   A    
S1    O11   S    
C5    C11   A    
C6    C7    A    
C35   H19   S    
S5    O23   S    
C46   S6    S    
C3    C46   A    
S5    O22   D    
C18   S4    S    
S7    O29   S    
C15   H6    S    
C36   C38   A    
C2    C3    A    
C25   C26   A    
C32   N2    A    
S1    O9    D    
C12   C44   S    
C32   C33   A    
C28   H2    S    
O20   H15   S    
C38   C39   A    
C1    C30   S    
C33   C35   A    
S7    O28   D    
S6    O26   S    
Cu2   O8    S    
C10   C11   A    
C20   C21   A    
S5    O21   D    
C21   C24   A    
S6    O24   D    
C13   C14   A    
Cu2   O6    S    
C6    H26   S    
C8    H10   S    
C44   C48   A    
C48   S8    S    
S8    O31   D    
