data_mof_unit_29609.cif
_audit_creation_date              2012-12-10T19:01:53-0500
_audit_creation_method            fapswitch 2.2
_symmetry_space_group_name_H-M    P1
_symmetry_Int_Tables_number       1
_space_group_crystal_system       triclinic
_cell_length_a                    11.691332
_cell_length_b                    10.904166
_cell_length_c                    9.586213
_cell_angle_alpha                 90.982166
_cell_angle_beta                  90.914183
_cell_angle_gamma                 91.121959
_cell_volume                      1221.51489522

loop_
_atom_site_label
_atom_site_type_symbol
_atom_type_description
_atom_site_fract_x
_atom_site_fract_y
_atom_site_fract_z
_atom_type_partial_charge
C1    C     C_R   0.497519 0.263193 0.498963 0.838800
C2    C     C_R   0.490482 0.131345 0.497503 -0.112894
C3    C     C_R   0.456863 0.063485 0.377281 -0.291915
C4    C     C_R   0.451209 0.933894 0.379334 0.521171
C5    C     C_R   0.488289 0.870884 0.500479 -0.192059
C6    C     C_R   0.514787 0.942886 0.618784 -0.234928
C7    C     C_3   0.563376 0.945971 0.767127 0.895690
C8    C     C_3   0.558585 0.087823 0.762167 0.179324
C9    C     C_R   0.598584 0.522654 0.075708 0.164653
C10   C     C_R   0.407438 0.457205 0.069943 0.423875
C11   C     C_R   0.406503 0.462165 0.922239 -0.084843
C12   C     C_R   0.284085 0.498976 0.499162 0.789781
C13   C     C_R   0.598970 0.520443 0.928630 0.083057
C14   C     C_3   0.676294 0.629661 0.921791 -0.528874
C15   C     C_3   0.674699 0.634742 0.080949 0.712720
C16   C     C_R   0.496951 0.737576 0.500689 0.807725
C17   C     C_R   0.715854 0.498479 0.500839 0.830981
C18   C     C_1   0.162324 0.497255 0.498020 -0.158694
C19   C     C_1   0.059804 0.495965 0.499208 0.000628
C20   C     C_1   0.940021 0.495349 0.501305 0.005193
C21   C     C_1   0.837526 0.496305 0.502184 -0.134568
C22   C     C_R   0.514679 0.067202 0.616779 -0.093856
Cu1   Cu    Cu3+1 0.499990 0.499980 0.640670 0.930855
Cu2   Cu    Cu3+1 0.500010 0.500020 0.359330 0.997528
H1    H     H_    0.433454 0.109950 0.282282 0.165930
H2    H     H_    0.631740 0.705187 0.870742 0.258458
H3    H     H_    0.494574 0.130046 0.832276 0.093820
H4    H     H_    0.330920 0.430819 0.864735 0.172537
H5    H     H_    0.760736 0.606499 0.877839 0.191964
N1    N     N_R   0.500710 0.500930 0.147930 -0.256602
N2    N     N_R   0.500710 0.500890 0.852020 -0.211850
O1    O     O_R   0.500000 0.319640 0.618810 -0.586123
O2    O     O_R   0.500010 0.319680 0.381230 -0.610348
O3    O     O_R   0.337190 0.499990 0.618790 -0.594007
O4    O     O_R   0.337200 0.500030 0.381210 -0.566159
O5    O     O_R   0.499990 0.680320 0.618770 -0.598928
O6    O     O_R   0.500000 0.680360 0.381190 -0.500500
O7    O     O_R   0.662800 0.499970 0.618790 -0.581307
O8    O     O_R   0.662810 0.500010 0.381210 -0.525273
O9    O     O_3   0.781333 0.611813 0.143018 -0.705961
H6    H     H_    0.829357 0.686527 0.129097 0.337108
O10   O     O_3   0.623718 0.739905 0.137758 -0.657240
H7    H     H_    0.548025 0.749222 0.091145 0.353046
O11   O     O_3   0.414024 0.869884 0.260811 -0.578085
C23   C     C_3   0.294401 0.882493 0.241538 -0.001799
H8    H     H_    0.278106 0.903958 0.130687 0.180304
H9    H     H_    0.256105 0.958159 0.304320 0.124055
C24   C     C_3   0.233274 0.761515 0.274036 -0.304778
H10   H     H_    0.272601 0.685675 0.213830 0.260988
H11   H     H_    0.243311 0.743512 0.387230 0.194184
C25   C     C_3   0.106132 0.765312 0.236449 -0.908521
H12   H     H_    0.065664 0.843172 0.291539 0.260478
H13   H     H_    0.063287 0.678455 0.267390 0.275772
H14   H     H_    0.093951 0.775648 0.122282 0.253243
O12   O     O_3   0.492681 0.902538 0.877277 -0.624834
C26   C     C_3   0.379040 0.864409 0.840515 0.016363
H15   H     H_    0.350161 0.800774 0.922650 0.181232
H16   H     H_    0.372385 0.809894 0.742644 0.164891
C27   C     C_3   0.296754 0.972403 0.836250 -0.410255
H17   H     H_    0.305660 0.028014 0.934100 0.229318
H18   H     H_    0.316678 0.032556 0.747612 0.213279
C28   C     C_3   0.172921 0.927361 0.817586 -0.893366
H19   H     H_    0.162117 0.874545 0.717920 0.253120
H20   H     H_    0.115350 0.007111 0.815046 0.262901
H21   H     H_    0.147942 0.868079 0.905350 0.252090
O13   O     O_3   0.676282 0.899322 0.784178 -0.600227
C29   C     C_3   0.756532 0.927229 0.678716 0.107468
H22   H     H_    0.723700 0.983883 0.592388 0.170766
H23   H     H_    0.828795 0.980156 0.728709 0.198104
C30   C     C_3   0.803191 0.808825 0.617050 -0.384145
H24   H     H_    0.843107 0.754436 0.701147 0.227355
H25   H     H_    0.731822 0.753887 0.568757 0.225399
C31   C     C_3   0.892017 0.835961 0.506284 -0.901331
H26   H     H_    0.853338 0.888643 0.419931 0.273392
H27   H     H_    0.923969 0.748730 0.462420 0.270559
H28   H     H_    0.965574 0.889205 0.552715 0.250632
O14   O     O_3   0.666007 0.147566 0.766951 -0.734907
H29   H     H_    0.652461 0.234090 0.794500 0.348643
O15   O     O_3   0.314702 0.402431 0.130728 -0.730211
H30   H     H_    0.345509 0.348698 0.203749 0.350007

loop_
_geom_bond_atom_site_label_1
_geom_bond_atom_site_label_2
_ccdc_geom_bond_type
O12   C26   S    
C31   H26   S    
C19   C20   S    
C7    O12   S    
C1    O2    A    
C7    C8    S    
C23   H8    S    
C1    C2    S    
C5    C6    A    
C6    C22   A    
Cu2   O8    S    
C26   H15   S    
C18   C19   T    
C17   O8    A    
C9    C13   A    
C5    C16   S    
C28   H20   S    
C24   C25   S    
C2    C22   A    
C8    C22   S    
Cu1   Cu2   S    
C30   H24   S    
C16   O6    A    
C24   H11   S    
O13   C29   S    
C11   N2    A    
C27   H17   S    
C13   C14   S    
C31   H27   S    
C23   H9    S    
C27   H18   S    
Cu2   O4    S    
C29   H22   S    
C3    H1    S    
C4    O11   S    
O14   H29   S    
C1    O1    A    
C17   C21   S    
C25   H12   S    
C25   H13   S    
Cu1   N2    S    
C28   H19   S    
C10   N1    A    
Cu1   O3    S    
C30   C31   S    
Cu2   O6    S    
C14   H2    S    
C12   O4    A    
C9    N1    A    
O9    H6    S    
C8    O14   S    
C31   H28   S    
O10   H7    S    
C14   H5    S    
C12   O3    A    
C3    C4    A    
O11   C23   S    
C23   C24   S    
C24   H10   S    
C27   C28   S    
C28   H21   S    
C13   N2    A    
C15   O10   S    
C4    C5    A    
C10   O15   S    
C6    C7    S    
Cu1   O7    S    
Cu2   O2    S    
C26   C27   S    
C29   C30   S    
Cu1   O1    S    
C25   H14   S    
C2    C3    A    
C9    C15   S    
C16   O5    A    
C7    O13   S    
C11   H4    S    
C26   H16   S    
C17   O7    A    
Cu2   N1    S    
C15   O9    S    
C10   C11   A    
O15   H30   S    
C20   C21   T    
Cu1   O5    S    
C12   C18   S    
C8    H3    S    
C14   C15   S    
C30   H25   S    
C29   H23   S    
