data_mof_unit_65485.cif
_audit_creation_date              2012-12-10T21:31:15-0500
_audit_creation_method            fapswitch 2.2
_symmetry_space_group_name_H-M    P1
_symmetry_Int_Tables_number       1
_space_group_crystal_system       triclinic
_cell_length_a                    15.001116
_cell_length_b                    16.131342
_cell_length_c                    16.766257
_cell_angle_alpha                 86.852237
_cell_angle_beta                  90.555021
_cell_angle_gamma                 90.496301
_cell_volume                      4050.78946702

loop_
_atom_site_label
_atom_site_type_symbol
_atom_type_description
_atom_site_fract_x
_atom_site_fract_y
_atom_site_fract_z
_atom_type_partial_charge
C1    C     C_R   0.501365 0.487970 0.653500 0.973201
C2    C     C_R   0.498635 0.512030 0.346500 0.973200
C3    C     C_R   0.954280 0.490566 0.646204 0.065390
C4    C     C_R   0.045720 0.509433 0.353796 0.065390
C5    C     C_R   0.509957 0.477319 0.740626 -0.227358
C6    C     C_R   0.490042 0.522681 0.259373 -0.227358
C7    C     C_R   0.566641 0.531413 0.781952 0.159599
C8    C     C_R   0.433358 0.468587 0.218049 0.159600
C9    C     C_R   0.574734 0.521865 0.864732 0.057671
C10   C     C_R   0.425265 0.478135 0.135269 0.057671
C11   C     C_R   0.522397 0.461901 0.907165 0.155690
C12   C     C_R   0.477601 0.538099 0.092835 0.155690
C13   C     C_R   0.474929 0.401886 0.866585 0.117128
C14   C     C_R   0.525069 0.598114 0.133415 0.117127
C15   C     C_R   0.466641 0.409905 0.783055 0.119466
C16   C     C_R   0.533358 0.590095 0.216944 0.119466
C17   C     C_R   0.444057 0.764913 0.476872 0.237880
C18   C     C_R   0.555943 0.235087 0.523127 0.237880
C19   C     C_R   0.448370 0.851989 0.478340 -0.325250
C20   C     C_R   0.551630 0.148011 0.521659 -0.325249
C21   C     C_R   0.522801 0.890884 0.512553 0.269731
C22   C     C_R   0.477199 0.109116 0.487447 0.269731
C23   C     C_R   0.672919 0.498153 0.500379 0.970504
C24   C     C_R   0.327081 0.501847 0.499621 0.970504
C25   C     C_R   0.591513 0.839912 0.544237 0.078002
C26   C     C_R   0.408487 0.160088 0.455763 0.078002
C27   C     C_R   0.584499 0.753226 0.541569 -0.033090
C28   C     C_R   0.415500 0.246774 0.458431 -0.033090
C29   C     C_R   0.186375 0.519815 0.428045 0.112753
C30   C     C_R   0.813625 0.480185 0.571955 0.112753
C31   C     C_R   0.231882 0.506961 0.500360 -0.194654
C32   C     C_R   0.768118 0.493039 0.499640 -0.194654
C33   C     C_R   0.188272 0.505150 0.573525 0.111892
C34   C     C_R   0.811728 0.494850 0.426475 0.111892
C35   C     C_R   0.094635 0.497915 0.574436 0.069724
C36   C     C_R   0.905365 0.502085 0.425563 0.069724
C37   C     C_R   0.046980 0.502013 0.500277 -0.059485
C38   C     C_R   0.953019 0.497987 0.499723 -0.059485
C39   C     C_R   0.093343 0.510462 0.426611 0.073076
C40   C     C_R   0.906656 0.489537 0.573389 0.073077
C41   C     C_R   0.047331 0.487021 0.646731 0.062920
C42   C     C_R   0.952669 0.512979 0.353269 0.062920
H1    H     H_    0.605870 0.111729 0.548016 0.192311
H2    H     H_    0.394130 0.888271 0.451982 0.192311
H3    H     H_    0.638837 0.714943 0.563845 0.188578
H4    H     H_    0.361162 0.285057 0.436156 0.188579
N1    N     N_2   0.511871 0.464935 0.990391 -0.155343
N2    N     N_2   0.488127 0.535065 0.009609 -0.155342
N3    N     N_R   0.511030 0.716920 0.509720 -0.098411
N4    N     N_R   0.488970 0.283080 0.490280 -0.098411
N5    N     N_2   0.531656 0.979421 0.515256 -0.131968
N6    N     N_2   0.468343 0.020578 0.484743 -0.131968
O1    O     O_R   0.496050 0.422540 0.612660 -0.583495
O2    O     O_R   0.503950 0.577460 0.387340 -0.583495
O3    O     O_R   0.503140 0.561840 0.618900 -0.590610
O4    O     O_R   0.496860 0.438160 0.381100 -0.590609
O5    O     O_R   0.628610 0.430340 0.496900 -0.585415
O6    O     O_R   0.371390 0.569660 0.503100 -0.585414
O7    O     O_R   0.635690 0.569650 0.503140 -0.614661
O8    O     O_R   0.364310 0.430350 0.496860 -0.614662
Zn1   Zn    Zn3+2 0.495270 0.406980 0.495830 1.032952
Zn2   Zn    Zn3+2 0.504730 0.593020 0.504170 1.032953
I1    I     I_    0.259182 0.580425 0.330534 -0.332351
I2    I     I_    0.740818 0.419574 0.669465 -0.332350
I3    I     I_    0.707597 0.891273 0.595424 -0.251025
I4    I     I_    0.292402 0.108727 0.404577 -0.251024
I5    I     I_    0.267622 0.538768 0.675393 -0.295270
I6    I     I_    0.732377 0.461232 0.324606 -0.295271
N7    N     N_3   0.092543 0.465925 0.720751 -0.406573
H5    H     H_    0.079020 0.510545 0.761803 0.206529
H6    H     H_    0.069453 0.408036 0.743308 0.209564
N8    N     N_3   0.907457 0.534075 0.279249 -0.406573
H7    H     H_    0.920980 0.489454 0.238197 0.206529
H8    H     H_    0.930547 0.591964 0.256692 0.209564
N9    N     N_3   0.909006 0.502396 0.719717 -0.402221
H9    H     H_    0.931976 0.557500 0.743112 0.210129
H10   H     H_    0.922843 0.452821 0.760608 0.208571
N10   N     N_3   0.090993 0.497603 0.280283 -0.402221
H11   H     H_    0.068024 0.442499 0.256888 0.210129
H12   H     H_    0.077157 0.547178 0.239392 0.208571
I7    I     I_    0.353609 0.371833 0.275064 -0.263391
I8    I     I_    0.646391 0.628166 0.724936 -0.263391
N11   N     N_3   0.362095 0.427185 0.095109 -0.388640
H13   H     H_    0.346063 0.452912 0.038272 0.228636
H14   H     H_    0.391301 0.369325 0.089636 0.243470
N12   N     N_3   0.637904 0.572814 0.904891 -0.388640
H15   H     H_    0.653935 0.547087 0.961729 0.228636
H16   H     H_    0.608698 0.630675 0.910365 0.243470
I9    I     I_    0.416619 0.299508 0.934009 -0.243965
I10   I     I_    0.583377 0.700493 0.065990 -0.243965
I11   I     I_    0.382273 0.322291 0.724888 -0.206343
I12   I     I_    0.617726 0.677709 0.275112 -0.206344
N13   N     N_3   0.629693 0.273315 0.561394 -0.366717
H17   H     H_    0.688022 0.255819 0.533344 0.196146
H18   H     H_    0.632385 0.249743 0.620711 0.204720
N14   N     N_3   0.370308 0.726684 0.438604 -0.366717
H19   H     H_    0.311979 0.744182 0.466652 0.196146
H20   H     H_    0.367618 0.750256 0.379286 0.204721

loop_
_geom_bond_atom_site_label_1
_geom_bond_atom_site_label_2
_ccdc_geom_bond_type
O6    Zn2   S    
C38   C40   A    
C29   I1    S    
N13   H17   S    
C30   I2    S    
C36   C42   A    
C12   N2    S    
C23   O7    A    
C28   H4    S    
C1    C5    S    
C22   N6    S    
C35   C37   A    
N10   H12   S    
O3    Zn2   S    
C10   N11   S    
C7    C9    A    
N7    H6    S    
C1    O1    A    
C14   I10   S    
C33   C35   A    
C11   N1    S    
C17   N3    A    
N11   H13   S    
N14   H20   S    
C31   C33   A    
C3    N9    S    
C18   C20   A    
C27   H3    S    
N13   H18   S    
C2    C6    S    
C28   N4    A    
C37   C39   A    
N12   H16   S    
C8    I7    S    
C26   I4    S    
C25   I3    S    
N8    H8    S    
C2    O2    A    
C34   I6    S    
C5    C7    A    
N12   H15   S    
C6    C8    A    
O2    Zn2   S    
C6    C16   A    
N5    N6    D    
O8    Zn1   S    
C32   C34   A    
N9    H9    S    
C4    N10   S    
C37   C38   A    
C9    N12   S    
C9    C11   A    
N1    N2    D    
C4    C39   A    
C24   O8    A    
N14   H19   S    
C29   C39   A    
C42   N8    S    
C30   C40   A    
C17   N14   S    
N9    H10   S    
C10   C12   A    
C24   O6    A    
N11   H14   S    
C12   C14   A    
C3    C40   A    
C16   I12   S    
C13   C15   A    
C14   C16   A    
O1    Zn1   S    
C21   N5    S    
C20   H1    S    
C19   H2    S    
C18   N4    A    
C41   N7    S    
C23   O5    A    
C21   C25   A    
C3    C41   A    
O7    Zn2   S    
N3    Zn2   S    
C13   I9    S    
N10   H11   S    
C20   C22   A    
N8    H7    S    
O5    Zn1   S    
C25   C27   A    
C26   C28   A    
C23   C32   S    
C36   C38   A    
C1    O3    A    
C24   C31   S    
C29   C31   A    
C33   I5    S    
C2    O4    A    
C30   C32   A    
C11   C13   A    
C4    C42   A    
C17   C19   A    
C34   C36   A    
N7    H5    S    
C35   C41   A    
C5    C15   A    
C15   I11   S    
N4    Zn1   S    
C7    I8    S    
C8    C10   A    
C22   C26   A    
C18   N13   S    
O4    Zn1   S    
C27   N3    A    
C19   C21   A    
