data_mof_unit_43335.cif
_audit_creation_date              2013-03-05T16:48:47-0500
_audit_creation_method            fapswitch 2.2
_symmetry_space_group_name_H-M    P1
_symmetry_Int_Tables_number       1
_space_group_crystal_system       triclinic
_cell_length_a                    10.89423
_cell_length_b                    10.884639
_cell_length_c                    13.124337
_cell_angle_alpha                 90.204427
_cell_angle_beta                  90.110016
_cell_angle_gamma                 89.927224
_cell_volume                      1556.26672459

loop_
_atom_site_label
_atom_site_type_symbol
_atom_site_description
_atom_site_fract_x
_atom_site_fract_y
_atom_site_fract_z
_atom_type_partial_charge
O1    O     O_R   0.499980 0.319630 0.578260 -0.585121
O2    O     O_R   0.500020 0.680370 0.421740 -0.585168
O3    O     O_R   0.500000 0.319650 0.421740 -0.566868
O4    O     O_R   0.500000 0.680350 0.578260 -0.566870
C1    C     C_R   0.491217 0.259752 0.499656 0.822542
C2    C     C_R   0.508778 0.740249 0.500344 0.822527
O5    O     O_R   0.319630 0.500000 0.578260 -0.581603
O6    O     O_R   0.680370 0.500000 0.421740 -0.581641
O7    O     O_R   0.319650 0.500020 0.421740 -0.570781
O8    O     O_R   0.680350 0.499980 0.578260 -0.570742
C3    C     C_R   0.259680 0.507417 0.499725 0.825663
C4    C     C_R   0.740321 0.492602 0.500275 0.825755
Cu1   Cu    Cu3+1 0.499990 0.499990 0.592680 0.989805
Cu2   Cu    Cu3+1 0.500010 0.500010 0.407320 0.989739
C5    C     C_R   0.228673 0.773510 0.245235 -0.207487
C6    C     C_R   0.771479 0.226185 0.754503 -0.207504
H1    H     H_    0.273371 0.861625 0.253445 0.168985
H2    H     H_    0.726952 0.138004 0.746208 0.169027
C7    C     C_R   0.179544 0.717235 0.331626 -0.185443
C8    C     C_R   0.820661 0.282578 0.668194 -0.185742
H3    H     H_    0.188332 0.762108 0.405102 0.131783
H4    H     H_    0.812075 0.237729 0.594696 0.131846
C9    C     C_R   0.117264 0.604932 0.322824 0.136598
C10   C     C_R   0.882729 0.394974 0.677102 0.136602
C11   C     C_R   0.104383 0.550097 0.226519 -0.220050
C12   C     C_R   0.895354 0.449787 0.773434 -0.219755
H5    H     H_    0.053939 0.465036 0.218036 0.148568
H6    H     H_    0.945633 0.534925 0.781999 0.148531
C13   C     C_R   0.156111 0.604780 0.140527 -0.220532
C14   C     C_R   0.843562 0.394985 0.859343 -0.220590
H7    H     H_    0.145829 0.559747 0.067324 0.173180
H8    H     H_    0.853627 0.440005 0.932568 0.173152
C15   C     C_R   0.218704 0.717305 0.148920 0.415437
C16   C     C_R   0.781172 0.282368 0.850841 0.415524
C17   C     C_R   0.932932 0.538032 0.415050 -0.233952
C18   C     C_R   0.067063 0.462032 0.584960 -0.233860
H9    H     H_    0.880513 0.570492 0.350096 0.165300
H10   H     H_    0.119478 0.429560 0.649912 0.165328
C19   C     C_R   0.872928 0.492023 0.500900 -0.103244
C20   C     C_R   0.127072 0.508029 0.499104 -0.103253
C21   C     C_R   0.940248 0.452139 0.586661 0.013057
C22   C     C_R   0.059750 0.547902 0.413335 0.013089
H11   H     H_    0.282248 0.264221 0.069120 0.137268
H12   H     H_    0.717966 0.735691 0.930746 0.137185
C23   C     C_R   0.253383 0.231201 0.228946 -0.108711
C24   C     C_R   0.746811 0.768924 0.770948 -0.108612
H13   H     H_    0.165734 0.277693 0.230874 0.131400
H14   H     H_    0.834530 0.722568 0.768993 0.131365
C25   C     C_R   0.300611 0.178568 0.317718 -0.115757
C26   C     C_R   0.699518 0.821578 0.682209 -0.116042
H15   H     H_    0.248853 0.185422 0.387916 0.111596
H16   H     H_    0.751292 0.814867 0.612008 0.111650
C27   C     C_R   0.414037 0.117036 0.315698 0.087248
C28   C     C_R   0.586011 0.882957 0.684266 0.087200
C29   C     C_R   0.478674 0.107714 0.223465 -0.102852
C30   C     C_R   0.521343 0.892089 0.776497 -0.102341
H17   H     H_    0.565834 0.059879 0.220366 0.149919
H18   H     H_    0.434116 0.939799 0.779620 0.149930
C31   C     C_R   0.431331 0.161229 0.134959 -0.039539
C32   C     C_R   0.568743 0.838535 0.864967 -0.039540
H19   H     H_    0.481578 0.154525 0.064153 0.197159
H20   H     H_    0.518475 0.845087 0.935773 0.197028
C33   C     C_R   0.318836 0.223009 0.137710 -0.117633
C34   C     C_R   0.681329 0.776922 0.862182 -0.117550
C35   C     C_R   0.476230 0.933211 0.411286 -0.243619
C36   C     C_R   0.523744 0.066787 0.588716 -0.243565
H21   H     H_    0.456168 0.881058 0.342874 0.161719
H22   H     H_    0.543815 0.118936 0.657130 0.161843
C37   C     C_R   0.509981 0.873023 0.500997 -0.092222
C38   C     C_R   0.489996 0.126977 0.499003 -0.092265
C39   C     C_R   0.536900 0.940268 0.590389 0.007144
C40   C     C_R   0.463084 0.059731 0.409606 0.007224
N1    N     N_1   0.500030 0.500030 0.268070 -0.132960
N2    N     N_1   0.499970 0.499970 0.731930 -0.132961
C41   C     C_1   0.499964 0.500053 0.173579 0.170569
C42   C     C_1   0.500034 0.499947 0.826421 0.170650
C43   C     C_1   0.499969 0.500031 0.050683 -0.020789
C44   C     C_1   0.500029 0.499968 0.949317 -0.020720
N3    N     N_R   0.270531 0.774770 0.060260 0.105657
O9    O     O_R   0.324205 0.881228 0.067427 -0.402278
O10   O     O_R   0.264276 0.721413 0.971479 -0.399492
N4    N     N_R   0.729260 0.224795 0.939413 0.105655
O11   O     O_R   0.735326 0.278089 0.028222 -0.399550
O12   O     O_R   0.675662 0.118316 0.932131 -0.402249

loop_
_geom_bond_atom_site_label_1
_geom_bond_atom_site_label_2
_geom_bond_distance
_ccdc_geom_bond_type
C2    C37   1.445269 S    
C36   H22   1.082651 S    
C29   C31   1.398699 A    
C17   C19   1.398325 A    
H11   C33   1.082363 S    
C19   C21   1.411641 A    
C43   C44   1.330357 T    
H12   C34   1.082357 S    
C5    C7    1.398336 A    
C26   C28   1.405019 A    
C9    C22   1.482607 S    
N2    C42   1.240130 T    
O1    C1    1.221942 A    
C7    H3    1.083539 S    
C10   C12   1.402658 A    
C25   C27   1.405028 A    
C13   C15   1.406449 A    
C32   H20   1.081638 S    
O4    Cu1   1.972927 S    
C37   C39   1.411119 A    
C17   C22   1.386121 A    
C6    C16   1.406372 A    
C28   C39   1.481733 S    
C8    C10   1.402986 A    
C35   H21   1.082633 S    
C26   H16   1.083392 S    
C6    C8    1.398254 A    
C23   H13   1.080395 S    
Cu1   Cu2   2.432728 S    
C10   C21   1.482510 S    
N1    C41   1.240130 T    
C18   C21   1.386106 A    
O2    C2    1.221938 A    
O5    C3    1.222022 A    
C24   H14   1.080398 S    
C27   C29   1.404872 A    
C11   C13   1.397727 A    
C28   C30   1.404874 A    
C31   H19   1.081628 S    
C14   C16   1.406361 A    
Cu2   N1    1.827566 S    
C18   C20   1.398368 A    
O4    C2    1.218693 A    
N3    O10   1.301760 A    
C15   N3    1.439662 S    
C25   H15   1.083377 S    
C23   C33   1.397342 A    
C30   C32   1.398707 A    
C24   C34   1.397361 A    
C7    C9    1.403104 A    
O7    Cu2   1.974338 S    
C1    C38   1.445274 S    
O7    C3    1.217668 A    
C36   C39   1.384618 A    
C23   C25   1.397158 A    
O6    C4    1.222017 A    
C41   C43   1.612930 S    
O3    Cu2   1.972927 S    
O8    C4    1.217658 A    
C8    H4    1.083487 S    
C12   C14   1.397693 A    
N4    O12   1.301547 A    
C29   H17   1.083104 S    
O1    Cu1   1.971584 S    
C5    H1    1.081130 S    
O6    Cu2   1.973613 S    
C17   H9    1.085095 S    
C12   H6    1.082468 S    
C42   C44   1.612930 S    
O3    C1    1.218692 A    
O8    Cu1   1.974338 S    
C11   H5    1.082556 S    
C35   C40   1.384624 A    
C24   C26   1.397141 A    
C31   C33   1.397626 A    
C32   C34   1.397635 A    
C4    C19   1.444668 S    
C18   H10   1.085092 S    
C13   H7    1.082686 S    
C14   H8    1.082632 S    
C36   C38   1.397838 A    
C35   C37   1.397804 A    
C20   C22   1.411685 A    
C30   H18   1.083108 S    
C9    C11   1.402731 A    
C3    C20   1.444680 S    
O2    Cu2   1.971581 S    
N3    O9    1.301617 A    
O5    Cu1   1.973616 S    
Cu1   N2    1.827565 S    
C6    H2    1.081047 S    
N4    O11   1.301680 A    
C38   C40   1.411160 A    
C16   N4    1.439605 S    
C27   C40   1.481785 S    
C5    C15   1.406438 A    
