data_mof_unit_37556.cif
_audit_creation_date              2012-12-10T17:22:57-0500
_audit_creation_method            fapswitch 2.2
_symmetry_space_group_name_H-M    P1
_symmetry_Int_Tables_number       1
_space_group_crystal_system       triclinic
_cell_length_a                    10.226666
_cell_length_b                    10.522774
_cell_length_c                    10.75704
_cell_angle_alpha                 90.020235
_cell_angle_beta                  94.798211
_cell_angle_gamma                 80.962297
_cell_volume                      1139.12225173

loop_
_atom_site_label
_atom_site_type_symbol
_atom_type_description
_atom_site_fract_x
_atom_site_fract_y
_atom_site_fract_z
_atom_type_partial_charge
C1    C     C_R   0.444466 0.512767 0.267437 0.968249
C2    C     C_3   0.500136 0.122816 0.502924 -0.045424
C3    C     C_3   0.624223 0.939648 0.485799 -0.203769
C4    C     C_3   0.375772 0.060382 0.515260 -0.213303
C5    C     C_2   0.412682 0.533478 0.135303 -0.326847
C6    C     C_2   0.585415 0.511626 0.865021 -0.348641
C7    C     C_2   0.507855 0.558692 0.066331 -0.141092
C8    C     C_2   0.485637 0.556510 0.933319 -0.159577
C9    C     C_2   0.079367 0.471922 0.510955 -0.106358
C10   C     C_2   0.929488 0.490651 0.526402 -0.099997
C11   C     C_2   0.323212 0.946890 0.297624 0.877569
C12   C     C_R   0.555324 0.496483 0.732747 0.976082
C13   C     C_2   0.676060 0.053674 0.703767 0.878011
C14   C     C_3   0.897719 0.354851 0.356934 -0.229364
C15   C     C_3   0.797019 0.317382 0.255891 -0.315751
C16   C     C_3   0.863023 0.213911 0.171545 -0.913648
C17   C     C_3   0.099155 0.653305 0.634140 -0.232321
C18   C     C_3   0.184334 0.757112 0.668739 -0.324898
C19   C     C_3   0.120664 0.849057 0.764474 -0.919235
C20   C     C_R   0.500232 0.257661 0.501497 0.934042
C21   C     C_R   0.499822 0.742348 0.498872 0.925637
C22   C     C_3   0.540191 0.038144 0.392185 -0.254767
C23   C     C_3   0.459780 0.961834 0.608810 -0.261818
C24   C     C_3   0.417030 0.973590 0.405633 0.031646
C25   C     C_3   0.582900 0.026481 0.595406 0.039494
C26   C     C_3   0.499851 0.877203 0.498030 -0.046535
H1    H     H_    0.572353 0.073082 0.304005 0.155858
H2    H     H_    0.124585 0.390541 0.459466 0.149761
H3    H     H_    0.240923 0.815454 0.194323 0.341423
H4    H     H_    0.757069 0.185670 0.807475 0.338145
H5    H     H_    0.944485 0.248821 0.125923 0.277518
H6    H     H_    0.903943 0.125069 0.226495 0.279318
H7    H     H_    0.788349 0.190073 0.097816 0.262136
H8    H     H_    0.716296 0.278159 0.296937 0.261234
H9    H     H_    0.756875 0.402660 0.196390 0.227113
H10   H     H_    0.970547 0.396880 0.304688 0.165477
H11   H     H_    0.948584 0.265704 0.407005 0.176933
H12   H     H_    0.427766 0.926787 0.696997 0.157259
H13   H     H_    0.020442 0.896580 0.726811 0.293929
H14   H     H_    0.111990 0.796234 0.852065 0.271822
H15   H     H_    0.183459 0.924524 0.786421 0.260182
H16   H     H_    0.283587 0.713638 0.710546 0.252091
H17   H     H_    0.191658 0.815376 0.584298 0.248073
H18   H     H_    0.005009 0.706565 0.587690 0.168515
H19   H     H_    0.077866 0.607308 0.721904 0.169406
H20   H     H_    0.725637 0.887632 0.474317 0.161586
H21   H     H_    0.274359 0.112331 0.526876 0.160438
H22   H     H_    0.383664 0.580498 0.892738 0.183364
H23   H     H_    0.606300 0.569321 0.107144 0.176665
H24   H     H_    0.686818 0.486004 0.906592 0.153907
H25   H     H_    0.313750 0.524870 0.093970 0.147042
H26   H     H_    0.890094 0.547255 0.602826 0.149593
N1    N     N_2   0.157310 0.552180 0.551120 -0.072776
N2    N     N_2   0.842690 0.447820 0.448880 -0.076319
O1    O     O_R   0.568940 0.489500 0.307530 -0.646489
O2    O     O_R   0.306561 0.820582 0.269486 -0.807918
O3    O     O_2   0.737294 0.964258 0.767665 -0.644179
O4    O     O_R   0.691963 0.180195 0.731968 -0.806890
O5    O     O_R   0.431060 0.510500 0.692470 -0.632135
O6    O     O_R   0.348880 0.522990 0.340350 -0.586673
O7    O     O_R   0.651120 0.477010 0.659650 -0.593964
O8    O     O_R   0.610000 0.297210 0.483560 -0.608001
O9    O     O_R   0.390000 0.702790 0.516440 -0.623410
O10   O     O_R   0.389940 0.330700 0.516390 -0.630675
O11   O     O_R   0.610060 0.669300 0.483610 -0.626574
O12   O     O_2   0.261766 0.036567 0.234188 -0.638686
Zn1   Zn    Zn3+2 0.646930 0.477640 0.478080 0.958436
Zn2   Zn    Zn3+2 0.353070 0.522360 0.521920 0.960079

loop_
_geom_bond_atom_site_label_1
_geom_bond_atom_site_label_2
_ccdc_geom_bond_type
C20   O10   A    
O1    Zn1   S    
C21   C26   S    
C8    H22   S    
C2    C22   S    
C1    O6    A    
N2    Zn1   S    
H3    O2    S    
O5    Zn2   S    
C16   H6    S    
C23   H12   S    
C9    C10   S    
O7    Zn1   S    
C15   H8    S    
C2    C4    S    
C11   O12   D    
N1    Zn2   S    
C10   H26   S    
C18   H16   S    
C17   C18   S    
C1    O1    A    
C17   H18   S    
C7    C8    S    
C18   H17   S    
C6    H24   S    
C16   H5    S    
C20   O8    A    
C12   O7    A    
C13   C25   S    
C19   H13   S    
O8    Zn1   S    
C4    C24   S    
C1    C5    S    
H4    O4    S    
C15   H9    S    
C14   N2    S    
C24   C26   S    
C18   C19   S    
C2    C25   S    
C22   H1    S    
C23   C25   S    
C6    C12   S    
C16   H7    S    
C22   C24   S    
C21   O9    A    
C9    N1    D    
C19   H14   S    
C10   N2    D    
C2    C20   S    
C15   C16   S    
O10   Zn2   S    
C17   N1    S    
C11   C24   S    
C3    C25   S    
C13   O3    D    
O6    Zn2   S    
C14   H11   S    
C7    H23   S    
C23   C26   S    
C5    C7    D    
C4    C23   S    
C14   C15   S    
C5    H25   S    
C14   H10   S    
C6    C8    D    
C13   O4    S    
C3    H20   S    
C3    C22   S    
C21   O11   A    
O9    Zn2   S    
C12   O5    A    
C3    C26   S    
C11   O2    S    
C19   H15   S    
C9    H2    S    
C17   H19   S    
O11   Zn1   S    
C4    H21   S    
