data_mof_unit_14977.cif
_audit_creation_date              2013-03-05T16:31:21-0500
_audit_creation_method            fapswitch 2.2
_symmetry_space_group_name_H-M    P1
_symmetry_Int_Tables_number       1
_space_group_crystal_system       triclinic
_cell_length_a                    9.60786
_cell_length_b                    10.853326
_cell_length_c                    13.558353
_cell_angle_alpha                 92.63872
_cell_angle_beta                  74.871376
_cell_angle_gamma                 92.565543
_cell_volume                      1362.59418041

loop_
_atom_site_label
_atom_site_type_symbol
_atom_site_description
_atom_site_fract_x
_atom_site_fract_y
_atom_site_fract_z
_atom_type_partial_charge
O1    O     O_R   0.381190 0.680360 0.500000 -0.539006
O2    O     O_R   0.618780 0.680320 0.499990 -0.549549
C1    C     C_R   0.503456 0.737292 0.499893 0.868349
O3    O     O_R   0.323230 0.500000 0.650990 -0.524349
O4    O     O_R   0.560820 0.499960 0.650980 -0.535477
C2    C     C_R   0.424260 0.504347 0.699763 0.839734
Cu1   Cu    Cu3+1 0.359330 0.500020 0.500010 0.996381
Cu2   Cu    Cu3+1 0.640670 0.499980 0.499990 1.000844
O5    O     O_R   0.381220 0.319680 0.500010 -0.611744
O6    O     O_R   0.618810 0.319640 0.500000 -0.579664
O7    O     O_R   0.439180 0.500040 0.349020 -0.600589
O8    O     O_R   0.676770 0.500000 0.349010 -0.562093
C3    C     C_R   0.499167 0.262192 0.496551 0.800550
C4    C     C_R   0.574682 0.492021 0.301800 0.879226
C5    C     C_R   0.745431 0.367845 0.034065 0.312397
H1    H     H_    0.832136 0.451505 0.841423 0.193516
C6    C     C_R   0.609254 0.468984 0.191594 -0.212752
C7    C     C_R   0.232026 0.514589 0.865385 0.409767
C8    C     C_R   0.188154 0.544127 0.969839 0.433072
C9    C     C_R   0.287185 0.537603 0.028897 -0.315273
C10   C     C_R   0.433627 0.516508 0.981413 0.022102
C11   C     C_R   0.482204 0.520134 0.873795 -0.099087
C12   C     C_R   0.534187 0.486548 0.036018 0.044710
C13   C     C_R   0.665643 0.434607 0.981842 -0.072134
C14   C     C_R   0.719284 0.462221 0.879008 -0.180649
C15   C     C_R   0.633340 0.525326 0.831469 0.513383
C16   C     C_R   0.510419 0.507251 0.140702 -0.262964
C17   C     C_R   0.723415 0.392981 0.140460 0.360127
C18   C     C_R   0.380701 0.515703 0.813739 -0.303412
H2    H     H_    0.418543 0.558369 0.182993 0.222806
H3    H     H_    0.245303 0.540409 0.110968 0.163424
C19   C     C_R   0.454519 0.927216 0.426186 -0.046612
C20   C     C_R   0.516201 0.870002 0.492779 -0.188598
C21   C     C_R   0.601624 0.944130 0.544098 0.497877
C22   C     C_R   0.585389 0.073122 0.549663 -0.278744
H4    H     H_    0.635747 0.129908 0.599298 0.163386
C23   C     C_R   0.502033 0.128147 0.493347 -0.168315
C24   C     C_R   0.454646 0.052855 0.421096 -0.034742
C25   C     C_3   0.322623 0.043537 0.380231 0.249643
C26   C     C_3   0.322884 0.903160 0.389582 0.181551
H5    H     H_    0.225776 0.081391 0.433273 0.050111
H6    H     H_    0.230152 0.864582 0.448777 0.079389
C27   C     C_R   0.942531 0.414315 0.443359 0.244657
N1    N     N_R   0.852320 0.499070 0.499340 -0.210524
C28   C     C_R   0.912292 0.591520 0.548621 -0.137559
H7    H     H_    0.845877 0.666160 0.586053 0.212467
C29   C     C_R   0.060170 0.589799 0.552300 0.563572
N2    N     N_R   0.148230 0.499110 0.499340 -0.214174
C30   C     C_R   0.090314 0.416317 0.440734 0.144420
C31   C     C_3   0.084760 0.280083 0.448229 -0.539149
C32   C     C_3   0.925602 0.278965 0.455860 -0.456067
H8    H     H_    0.143600 0.237067 0.374611 0.222813
H9    H     H_    0.109688 0.249976 0.518848 0.216641
H10   H     H_    0.895154 0.228669 0.390939 0.223444
H11   H     H_    0.859216 0.254123 0.532965 0.207716
O9    O     O_3   0.794764 0.329131 0.197617 -0.568008
C33   C     C_3   0.933683 0.383422 0.187321 -0.143378
H12   H     H_    0.986998 0.336408 0.237494 0.150901
H13   H     H_    0.929229 0.483095 0.210728 0.162133
H14   H     H_    0.002826 0.369460 0.108654 0.208671
O10   O     O_3   0.345035 0.074865 0.276335 -0.511968
C34   C     C_3   0.423506 0.187714 0.254774 -0.212695
H15   H     H_    0.540183 0.174395 0.245685 0.206754
H16   H     H_    0.384149 0.260763 0.313932 0.144039
H17   H     H_    0.411109 0.220063 0.181201 0.183349
N3    N     N_R   0.350434 0.833745 0.291477 0.193212
O11   O     O_R   0.244678 0.809121 0.249511 -0.372398
O12   O     O_R   0.477657 0.792540 0.247215 -0.363773
O13   O     O_3   0.120146 0.683376 0.602614 -0.581645
C35   C     C_3   0.040326 0.700684 0.705088 -0.243375
H18   H     H_    0.116892 0.724771 0.752222 0.198275
H19   H     H_    0.976255 0.617438 0.737728 0.215665
H20   H     H_    0.969810 0.779953 0.711773 0.144030
N4    N     N_R   0.826248 0.263091 0.983168 0.108898
O14   O     O_R   0.890556 0.193438 0.031957 -0.336677
O15   O     O_R   0.809565 0.220899 0.895379 -0.407650
O16   O     O_3   0.126890 0.482447 0.815354 -0.581850
C36   C     C_3   0.118856 0.352320 0.804997 -0.207972
H21   H     H_    0.090910 0.309571 0.880829 0.203741
H22   H     H_    0.221324 0.313888 0.757800 0.135158
H23   H     H_    0.034389 0.325300 0.765210 0.194692
O17   O     O_3   0.043151 0.560288 0.014580 -0.609063
C37   C     C_3   0.023683 0.681846 0.055699 -0.282915
H24   H     H_    0.070261 0.751055 0.996752 0.177813
H25   H     H_    0.070020 0.696608 0.122544 0.199456
H26   H     H_    0.906177 0.696907 0.083074 0.204492
O18   O     O_3   0.700662 0.610298 0.759854 -0.606707
C38   C     C_3   0.651841 0.729710 0.794510 -0.262641
H27   H     H_    0.648222 0.748614 0.876674 0.168447
H28   H     H_    0.544620 0.743512 0.780788 0.182404
H29   H     H_    0.727947 0.799145 0.751073 0.213841
O19   O     O_3   0.690632 0.889772 0.593944 -0.594317
C39   C     C_3   0.830765 0.945521 0.565967 -0.342055
H30   H     H_    0.866680 0.966542 0.483207 0.182148
H31   H     H_    0.836907 0.030176 0.614086 0.174290
H32   H     H_    0.908743 0.880864 0.579923 0.181832

loop_
_geom_bond_atom_site_label_1
_geom_bond_atom_site_label_2
_geom_bond_distance
_ccdc_geom_bond_type
N3    O12   1.302151 A    
O18   C38   1.415550 S    
C39   H30   1.115630 S    
C11   C18   1.422344 A    
C8    C9    1.400154 A    
C17   O9    1.385633 S    
Cu1   Cu2   2.703024 S    
C25   H5    1.099785 S    
O16   C36   1.413488 S    
Cu1   O7    1.989909 S    
C23   C24   1.400162 A    
N4    O15   1.301905 A    
C22   C23   1.408931 A    
C21   C22   1.411983 A    
C24   C25   1.508781 S    
O7    C4    1.297040 A    
C36   H22   1.111780 S    
C33   H13   1.112770 S    
C1    C20   1.445585 S    
O9    C33   1.409983 S    
C7    C8    1.394576 A    
O5    C3    1.307110 A    
C29   O13   1.384892 S    
C34   H16   1.106740 S    
C29   N2    1.375713 A    
C15   O18   1.383077 S    
C31   H8    1.104547 S    
C12   C13   1.412057 A    
C35   H18   1.109360 S    
C12   C16   1.386804 A    
C8    O17   1.382247 S    
C3    C23   1.454762 S    
C26   H6    1.112459 S    
N3    O11   1.300405 A    
C39   H31   1.110556 S    
C26   N3    1.465858 S    
C10   C11   1.413014 A    
C16   H2    1.079881 S    
C4    C6    1.455840 S    
O10   C34   1.410410 S    
O3    Cu1   1.984968 S    
C31   C32   1.505015 S    
C33   H12   1.105786 S    
C28   C29   1.435594 A    
C25   O10   1.423199 S    
C31   H9    1.111940 S    
N4    O14   1.300784 A    
C6    C16   1.397875 A    
C13   C14   1.396051 A    
O3    C2    1.307601 A    
C25   C26   1.534800 S    
C36   H21   1.110463 S    
C27   C30   1.410224 A    
C33   H14   1.107340 S    
C14   C15   1.391207 A    
C28   H7    1.077206 S    
O1    C1    1.302291 A    
C22   H4    1.082533 S    
C5    N4    1.448738 S    
C27   N1    1.355432 A    
C34   H15   1.110637 S    
C37   H24   1.114341 S    
C38   H29   1.102806 S    
Cu2   O8    1.984969 S    
C37   H26   1.109633 S    
C35   H20   1.104689 S    
C20   C21   1.411531 A    
C7    C18   1.417065 A    
C38   H27   1.115221 S    
N2    C30   1.367026 A    
C37   H25   1.111806 S    
O8    C4    1.301645 A    
O17   C37   1.409369 S    
C39   H32   1.105825 S    
C19   C24   1.368445 A    
C10   C12   1.418090 A    
N1    C28   1.368476 A    
H1    C14   1.079945 S    
Cu1   O5    1.977894 S    
C5    C13   1.412208 A    
C34   H17   1.109286 S    
O1    Cu1   1.959158 S    
C6    C17   1.412646 A    
O2    Cu2   1.977894 S    
Cu2   N1    2.031685 S    
C38   H28   1.111178 S    
O6    C3    1.293649 A    
O4    Cu2   1.989909 S    
C32   H10   1.110965 S    
C19   C20   1.384159 A    
O2    C1    1.293146 A    
Cu1   N2    2.030190 S    
C36   H23   1.108264 S    
C27   C32   1.483336 S    
C5    C17   1.417657 A    
O4    C2    1.308023 A    
C7    O16   1.380772 S    
O19   C39   1.415746 S    
C32   H11   1.111263 S    
C19   C26   1.483295 S    
O13   C35   1.409435 S    
C21   O19   1.385532 S    
C2    C18   1.492614 S    
C9    C10   1.410316 A    
Cu2   O6    1.959158 S    
C30   C31   1.484367 S    
C11   C15   1.414838 A    
C35   H19   1.111722 S    
C9    H3    1.079489 S    
