data_mof_unit_25899.cif
_audit_creation_date              2012-12-10T18:03:31-0500
_audit_creation_method            fapswitch 2.2
_symmetry_space_group_name_H-M    P1
_symmetry_Int_Tables_number       1
_space_group_crystal_system       triclinic
_cell_length_a                    10.879652
_cell_length_b                    9.493936
_cell_length_c                    19.41819
_cell_angle_alpha                 89.938065
_cell_angle_beta                  90.531714
_cell_angle_gamma                 88.976827
_cell_volume                      2005.31110776

loop_
_atom_site_label
_atom_site_type_symbol
_atom_type_description
_atom_site_fract_x
_atom_site_fract_y
_atom_site_fract_z
_atom_type_partial_charge
C1    C     C_R   0.872051 0.494841 0.496167 -0.184912
C2    C     C_R   0.127980 0.505220 0.504024 -0.185116
C3    C     C_R   0.609640 0.541213 0.964979 -0.153019
C4    C     C_R   0.397611 0.463714 0.035073 -0.162193
C5    C     C_R   0.608675 0.542627 0.036658 -0.164720
C6    C     C_R   0.397955 0.464544 0.963383 -0.183856
C7    C     C_R   0.502890 0.503085 0.071856 0.166551
C8    C     C_R   0.504197 0.502550 0.928192 0.130912
C9    C     C_R   0.262094 0.501641 0.501478 0.874359
C10   C     C_R   0.737918 0.498364 0.498590 0.875175
C11   C     C_R   0.500281 0.500119 0.367544 0.807146
C12   C     C_R   0.499901 0.499923 0.632460 0.807588
C13   C     C_R   0.067141 0.389908 0.533136 0.156900
C14   C     C_R   0.932904 0.610217 0.467124 0.157257
C15   C     C_R   0.939178 0.381460 0.526424 0.148002
C16   C     C_R   0.060849 0.618660 0.473836 0.148063
C17   C     C_R   0.500991 0.372295 0.744567 -0.208023
C18   C     C_R   0.512857 0.627823 0.255949 -0.272572
C19   C     C_R   0.490736 0.374234 0.255282 -0.269209
C20   C     C_R   0.500976 0.627426 0.744251 -0.264227
C21   C     C_R   0.502050 0.370909 0.816601 0.237653
C22   C     C_R   0.512282 0.629914 0.183983 0.229771
C23   C     C_R   0.492571 0.373716 0.183309 0.230639
C24   C     C_R   0.504996 0.628556 0.816171 0.247932
C25   C     C_R   0.505397 0.500234 0.852655 -0.028830
C26   C     C_R   0.502565 0.502240 0.147411 0.019590
C27   C     C_R   0.434595 0.075903 0.451504 -0.031291
C28   C     C_R   0.565380 0.924097 0.548508 -0.031753
C29   C     C_R   0.565094 0.073075 0.548613 -0.025098
C30   C     C_R   0.434884 0.926925 0.451397 -0.025846
C31   C     C_R   0.500444 0.499834 0.708111 -0.130611
C32   C     C_R   0.501268 0.500666 0.291908 -0.099134
Cu1   Cu    Cu3+1 0.500000 0.640660 0.500000 0.949542
Cu2   Cu    Cu3+1 0.500000 0.359340 0.500000 0.949423
H1    H     H_    0.381843 0.133258 0.412830 0.115625
H2    H     H_    0.618105 0.866744 0.587196 0.117785
H3    H     H_    0.617490 0.128192 0.587412 0.133229
H4    H     H_    0.382465 0.871807 0.412609 0.132886
H5    H     H_    0.501456 0.273021 0.717110 0.164944
H6    H     H_    0.520815 0.726355 0.283614 0.157092
H7    H     H_    0.482443 0.275147 0.282450 0.154427
H8    H     H_    0.498644 0.726885 0.716811 0.162493
H9    H     H_    0.692694 0.568681 0.938221 0.126481
H10   H     H_    0.315293 0.433697 0.061961 0.131543
H11   H     H_    0.690657 0.572304 0.064781 0.130317
H12   H     H_    0.315796 0.435538 0.935310 0.132112
N1    N     N_R   0.500000 0.852070 0.500000 -0.151115
N2    N     N_R   0.500000 0.147930 0.500000 -0.150815
O1    O     O_R   0.319640 0.618740 0.500000 -0.560461
O2    O     O_R   0.680360 0.381260 0.500000 -0.560388
O3    O     O_R   0.680360 0.618740 0.500000 -0.555251
O4    O     O_R   0.319640 0.381260 0.500000 -0.555502
O5    O     O_R   0.500020 0.618830 0.400190 -0.583838
O6    O     O_R   0.499980 0.381170 0.599810 -0.585325
O7    O     O_R   0.499980 0.618830 0.599810 -0.597478
O8    O     O_R   0.500020 0.381170 0.400190 -0.598507
N3    N     N_2   0.135494 0.284197 0.570361 -0.401775
H13   H     H_    0.105137 0.182521 0.565814 0.255193
C33   C     C_3   0.166592 0.322001 0.640480 -0.672166
H14   H     H_    0.081900 0.332281 0.671744 0.205678
H15   H     H_    0.216665 0.422938 0.641837 0.222402
H16   H     H_    0.227216 0.238839 0.663502 0.222305
N4    N     N_2   0.864593 0.715981 0.429926 -0.401267
H17   H     H_    0.894860 0.817673 0.434597 0.255244
C34   C     C_3   0.833815 0.678364 0.359745 -0.675031
H18   H     H_    0.918649 0.668114 0.328598 0.205309
H19   H     H_    0.773342 0.761622 0.336696 0.221297
H20   H     H_    0.783704 0.577458 0.358258 0.223285
N5    N     N_2   0.877856 0.259884 0.550827 -0.408821
H21   H     H_    0.906107 0.225621 0.598917 0.245958
C35   C     C_3   0.870676 0.147075 0.500748 -0.679019
H22   H     H_    0.963668 0.115023 0.483014 0.201017
H23   H     H_    0.815457 0.181209 0.455161 0.253967
H24   H     H_    0.826445 0.054350 0.524159 0.210045
N6    N     N_2   0.122150 0.740312 0.449501 -0.409081
H25   H     H_    0.093878 0.774737 0.401442 0.244959
C36   C     C_3   0.129409 0.852950 0.499667 -0.678893
H26   H     H_    0.036437 0.884996 0.517438 0.201281
H27   H     H_    0.173675 0.945723 0.476323 0.209747
H28   H     H_    0.184639 0.818631 0.545219 0.253739
N7    N     N_2   0.503338 0.238902 0.851837 -0.433207
H29   H     H_    0.537404 0.239777 0.901536 0.259777
C37   C     C_3   0.391804 0.159232 0.844570 -0.715228
H30   H     H_    0.399141 0.062174 0.876299 0.230180
H31   H     H_    0.377090 0.128070 0.790060 0.228403
H32   H     H_    0.311381 0.222346 0.862537 0.222022
N8    N     N_2   0.520761 0.760776 0.148581 -0.430989
H33   H     H_    0.573669 0.833654 0.174078 0.244394
C38   C     C_3   0.403457 0.820329 0.126670 -0.689252
H34   H     H_    0.418477 0.916938 0.095885 0.231351
H35   H     H_    0.347021 0.848500 0.172222 0.212234
H36   H     H_    0.352711 0.744765 0.093926 0.239921
N9    N     N_2   0.484836 0.243616 0.147222 -0.433216
H37   H     H_    0.431818 0.169996 0.171639 0.244758
C39   C     C_3   0.602508 0.184908 0.126689 -0.701165
H38   H     H_    0.588050 0.089060 0.095193 0.230951
H39   H     H_    0.658430 0.155681 0.172900 0.217825
H40   H     H_    0.653510 0.261418 0.095068 0.236554
N10   N     N_2   0.501363 0.759072 0.852002 -0.422388
H41   H     H_    0.425261 0.819855 0.838808 0.244386
C40   C     C_3   0.613554 0.838222 0.848460 -0.680682
H42   H     H_    0.607333 0.929804 0.883820 0.240402
H43   H     H_    0.627703 0.877652 0.795260 0.217167
H44   H     H_    0.693871 0.771770 0.864422 0.224076

loop_
_geom_bond_atom_site_label_1
_geom_bond_atom_site_label_2
_ccdc_geom_bond_type
C27   N2    A    
Cu1   O7    S    
N8    H33   S    
N4    C34   S    
C28   N1    A    
Cu2   O8    S    
N9    H37   S    
C16   N6    S    
C39   H38   S    
N7    H29   S    
C39   H40   S    
C36   H26   S    
C3    H9    S    
C40   H42   S    
C7    C26   S    
C28   C29   A    
N3    C33   S    
C13   N3    S    
C10   O3    A    
Cu1   O1    S    
C24   N10   S    
C30   H4    S    
C17   H5    S    
C23   C26   A    
N5    C35   S    
C2    C13   A    
C18   H6    S    
C20   C24   A    
C34   H19   S    
C1    C15   A    
C38   H35   S    
C2    C16   A    
C11   O5    A    
C33   H14   S    
C40   H43   S    
C27   C30   A    
C8    C25   S    
C9    O4    A    
C4    C7    A    
C19   C32   A    
N7    C37   S    
C36   H27   S    
Cu1   O5    S    
C15   N5    S    
Cu2   O2    S    
C33   H15   S    
C29   N2    A    
C30   N1    A    
C9    O1    A    
C24   C25   A    
C4    C6    A    
C3    C8    A    
C5    C7    A    
C6    C8    A    
C4    H10   S    
C27   H1    S    
C5    H11   S    
C17   C21   A    
C23   N9    S    
C19   C23   A    
N6    H25   S    
C37   H30   S    
C34   H20   S    
Cu1   Cu2   S    
C22   N8    S    
C38   H36   S    
N6    C36   S    
C37   H31   S    
C21   N7    S    
C11   C32   S    
Cu2   O6    S    
C40   H44   S    
C13   C15   A    
C12   C31   S    
C17   C31   A    
C14   C16   A    
Cu2   N2    S    
C10   O2    A    
C35   H23   S    
C36   H28   S    
C21   C25   A    
C33   H16   S    
C6    H12   S    
N10   C40   S    
C18   C22   A    
C1    C10   S    
C3    C5    A    
C35   H24   S    
C20   H8    S    
C39   H39   S    
Cu1   O3    S    
Cu2   O4    S    
N10   H41   S    
N8    C38   S    
C35   H22   S    
N3    H13   S    
Cu1   N1    S    
C14   N4    S    
N5    H21   S    
C12   O7    A    
N4    H17   S    
C37   H32   S    
C18   C32   A    
C28   H2    S    
N9    C39   S    
C34   H18   S    
C22   C26   A    
C29   H3    S    
C1    C14   A    
C38   H34   S    
C2    C9    S    
C12   O6    A    
C11   O8    A    
C19   H7    S    
C20   C31   A    
