data_mof_unit_38191.cif
_audit_creation_date              2013-03-05T16:05:38-0500
_audit_creation_method            fapswitch 2.2
_symmetry_space_group_name_H-M    P1
_symmetry_Int_Tables_number       1
_space_group_crystal_system       triclinic
_cell_length_a                    15.873959
_cell_length_b                    10.915126
_cell_length_c                    9.707985
_cell_angle_alpha                 92.309535
_cell_angle_beta                  90.990808
_cell_angle_gamma                 92.808252
_cell_volume                      1678.36872988

loop_
_atom_site_label
_atom_site_type_symbol
_atom_site_description
_atom_site_fract_x
_atom_site_fract_y
_atom_site_fract_z
_atom_type_partial_charge
O1    O     O_R   0.500000 0.319660 0.618740 -0.562681
O2    O     O_R   0.500000 0.680340 0.381260 -0.563417
O3    O     O_R   0.499990 0.319630 0.381170 -0.565023
O4    O     O_R   0.500010 0.680370 0.618830 -0.565554
C1    C     C_R   0.506568 0.262898 0.498187 0.854673
C2    C     C_R   0.493352 0.737103 0.501785 0.852264
O5    O     O_R   0.379080 0.500000 0.618760 -0.497445
O6    O     O_R   0.620920 0.500000 0.381240 -0.497098
O7    O     O_R   0.379080 0.499970 0.381190 -0.609391
O8    O     O_R   0.620920 0.500030 0.618810 -0.609283
C3    C     C_R   0.340430 0.500799 0.499067 0.827955
C4    C     C_R   0.659606 0.499306 0.500973 0.827674
Cu1   Cu    Cu3+1 0.500000 0.500020 0.640660 1.027700
Cu2   Cu    Cu3+1 0.500000 0.499980 0.359340 1.027813
C5    C     C_3   0.974183 0.444270 0.613106 0.286988
C6    C     C_3   0.025785 0.552768 0.388883 0.284925
C7    C     C_3   0.026208 0.385487 0.499443 0.269368
C8    C     C_3   0.973803 0.611342 0.502638 0.270434
H1    H     H_    0.942651 0.381757 0.293103 0.220809
H2    H     H_    0.057485 0.614825 0.709128 0.226761
C9    C     C_1   0.251100 0.503163 0.497528 -0.054433
C10   C     C_1   0.748979 0.496492 0.502807 -0.063491
C11   C     C_3   0.032254 0.562651 0.615596 -0.331083
C12   C     C_3   0.967824 0.434267 0.386444 -0.339241
C13   C     C_3   0.084252 0.502518 0.499097 -0.117741
C14   C     C_3   0.915820 0.494478 0.502989 -0.113254
C15   C     C_1   0.175754 0.504085 0.497637 0.156068
C16   C     C_1   0.824326 0.494675 0.503514 0.136988
C17   C     C_R   0.506614 0.056567 0.372630 0.271445
C18   C     C_R   0.492956 0.943504 0.627250 0.270647
C19   C     C_R   0.482207 0.931299 0.376625 -0.066518
C20   C     C_R   0.517492 0.068752 0.623249 -0.064731
C21   C     C_R   0.486485 0.872312 0.503011 -0.232409
C22   C     C_R   0.513239 0.127699 0.496874 -0.232265
C23   C     C_R   0.432324 0.450552 0.068960 -0.103380
C24   C     C_R   0.567639 0.549445 0.931047 -0.105144
C25   C     C_R   0.432430 0.450715 0.921616 0.341451
C26   C     C_R   0.567628 0.549083 0.078348 0.341352
N1    N     N_R   0.500020 0.500030 0.852070 -0.250208
N2    N     N_R   0.499980 0.499970 0.147930 -0.250060
N3    N     N_R   0.052604 0.259574 0.501857 0.155857
O9    O     O_R   0.996172 0.168973 0.493925 -0.263891
O10   O     O_R   0.131501 0.237179 0.521876 -0.327518
N4    N     N_R   0.945063 0.735952 0.500791 0.145626
O11   O     O_R   0.975015 0.819145 0.590630 -0.313763
O12   O     O_R   0.891748 0.765636 0.406063 -0.262954
N5    N     N_R   0.948550 0.381082 0.735881 0.155866
O13   O     O_R   0.005393 0.346145 0.821943 -0.275023
O14   O     O_R   0.869226 0.356606 0.758457 -0.420144
N6    N     N_R   0.051707 0.616135 0.266330 0.151135
O15   O     O_R   0.995310 0.646062 0.176625 -0.267875
O16   O     O_R   0.130746 0.646259 0.247834 -0.422193
N7    N     N_R   0.543751 0.103651 0.250201 0.112931
O17   O     O_R   0.521896 0.056532 0.129163 -0.374554
O18   O     O_R   0.612962 0.172685 0.261838 -0.361496
N8    N     N_R   0.455391 0.896610 0.749457 0.112945
O19   O     O_R   0.386745 0.826384 0.737308 -0.361933
O20   O     O_R   0.476130 0.944884 0.870424 -0.373311
C27   C     C_R   0.423837 0.876358 0.267308 0.142735
C28   C     C_R   0.452698 0.815892 0.148255 0.043492
C29   C     C_R   0.395189 0.762849 0.050052 -0.096175
C30   C     C_R   0.308798 0.775472 0.065995 -0.058672
C31   C     C_R   0.279566 0.835429 0.184145 -0.085881
C32   C     C_R   0.336658 0.882345 0.286275 -0.229709
H3    H     H_    0.519277 0.811099 0.130573 0.188325
H4    H     H_    0.417859 0.714367 0.959980 0.174234
H5    H     H_    0.264545 0.737827 0.987451 0.187263
H6    H     H_    0.212756 0.846222 0.196593 0.214581
H7    H     H_    0.313033 0.926863 0.378584 0.173228
C33   C     C_R   0.576125 0.123715 0.732228 0.139748
C34   C     C_R   0.663249 0.118906 0.711925 -0.233147
C35   C     C_R   0.720649 0.166081 0.813423 -0.081526
C36   C     C_R   0.691760 0.225628 0.932088 -0.060626
C37   C     C_R   0.605381 0.237388 0.949241 -0.096727
C38   C     C_R   0.547600 0.183929 0.851703 0.045748
H8    H     H_    0.686626 0.074942 0.619098 0.172659
H9    H     H_    0.787426 0.155794 0.800026 0.217602
H10   H     H_    0.736252 0.263587 0.010101 0.187840
H11   H     H_    0.582958 0.285669 0.039636 0.175468
H12   H     H_    0.481082 0.188408 0.870143 0.189473
C39   C     C_R   0.358863 0.387567 0.132087 0.171278
C40   C     C_R   0.280798 0.443126 0.139034 -0.030491
C41   C     C_R   0.208474 0.376017 0.178470 -0.099798
C42   C     C_R   0.213646 0.254014 0.213556 -0.066603
C43   C     C_R   0.290844 0.198598 0.207274 -0.119990
C44   C     C_R   0.362725 0.264396 0.164628 -0.099109
H13   H     H_    0.275587 0.537017 0.110727 0.159169
H14   H     H_    0.148166 0.417708 0.180486 0.191173
H15   H     H_    0.157644 0.201885 0.243437 0.192959
H16   H     H_    0.294367 0.103840 0.231865 0.156663
H17   H     H_    0.420731 0.218890 0.152405 0.183986
C45   C     C_R   0.640550 0.613477 0.867812 0.170265
C46   C     C_R   0.635392 0.736229 0.834551 -0.092573
C47   C     C_R   0.706217 0.802587 0.789061 -0.128676
C48   C     C_R   0.783743 0.748335 0.780994 -0.086629
C49   C     C_R   0.790418 0.627050 0.817901 -0.096430
C50   C     C_R   0.719051 0.559223 0.860035 -0.026567
H18   H     H_    0.577121 0.780853 0.847865 0.182589
H19   H     H_    0.701590 0.896808 0.763295 0.157340
H20   H     H_    0.838788 0.800951 0.748427 0.205002
H21   H     H_    0.851063 0.586366 0.814613 0.192452
H22   H     H_    0.725236 0.465672 0.888986 0.160543
N9    N     N_R   0.359325 0.399904 0.846942 0.147756
O21   O     O_R   0.290260 0.459431 0.845985 -0.357444
O22   O     O_R   0.359036 0.290661 0.788513 -0.339185
N10   N     N_R   0.640844 0.599622 0.152918 0.147717
O23   O     O_R   0.641280 0.708729 0.211722 -0.341171
O24   O     O_R   0.709853 0.539960 0.153445 -0.355333

loop_
_geom_bond_atom_site_label_1
_geom_bond_atom_site_label_2
_geom_bond_distance
_ccdc_geom_bond_type
C26   N2    1.376475 A    
C46   C47   1.395281 A    
C36   C37   1.395608 A    
C48   C49   1.393843 A    
C8    C14   1.536134 S    
C5    N5    1.455129 S    
C39   C40   1.407543 A    
C23   C39   1.479240 S    
N5    O14   1.298569 A    
N7    O17   1.298181 A    
O5    C3    1.305135 A    
C27   C32   1.403572 A    
C35   H9    1.080933 S    
N10   O24   1.301571 A    
C30   H5    1.082429 S    
O1    C1    1.310156 A    
C23   C25   1.430514 A    
C12   C14   1.555318 S    
C44   H17   1.073536 S    
C34   H8    1.083625 S    
N10   O23   1.299418 A    
C40   H13   1.078365 S    
C4    C10   1.420348 S    
N8    O19   1.302037 A    
N3    O9    1.300389 A    
C19   C27   1.484803 S    
O4    Cu1   1.988382 S    
C29   H4    1.079997 S    
N5    O13   1.300374 A    
N6    O16   1.298714 A    
C36   H10   1.082398 S    
C19   C21   1.410551 A    
C33   C34   1.403569 A    
C38   H12   1.077148 S    
C50   H22   1.078574 S    
C24   C45   1.478093 S    
C5    C11   1.549189 S    
C41   H14   1.080068 S    
C9    C15   1.196605 T    
C27   C28   1.402760 A    
C6    C12   1.549280 S    
C10   C16   1.197109 T    
Cu1   Cu2   2.731033 S    
C49   C50   1.398956 A    
N3    O10   1.300563 A    
O2    C2    1.310074 A    
N4    O12   1.300344 A    
C45   C50   1.407547 A    
N7    O18   1.302048 A    
C25   N1    1.376405 A    
C7    C12   1.551154 S    
C37   C38   1.396923 A    
C8    C11   1.551123 S    
C42   C43   1.394103 A    
O4    C2    1.320878 A    
C25   N9    1.433608 S    
C48   H20   1.080878 S    
C5    C14   1.537568 S    
C20   C33   1.485109 S    
C43   C44   1.396128 A    
C18   N8    1.438263 S    
C17   C22   1.407424 A    
C3    C9    1.419341 S    
C28   C29   1.396805 A    
C20   C22   1.410213 A    
C26   N10   1.433536 S    
O7    Cu2   1.934802 S    
C30   C31   1.395307 A    
C8    N4    1.456333 S    
C41   C42   1.393711 A    
H2    C11   1.110220 S    
O6    C4    1.305663 A    
C1    C22   1.484240 S    
N6    O15   1.300454 A    
C47   C48   1.393652 A    
N9    O22   1.299401 A    
C32   H7    1.083605 S    
O7    C3    1.307678 A    
O3    Cu2   1.988384 S    
O8    C4    1.307621 A    
C28   H3    1.077105 S    
C37   H11   1.080013 S    
O1    Cu1   1.971576 S    
C42   H15   1.082056 S    
N9    O21   1.301593 A    
N4    O11   1.300309 A    
C6    C13   1.539426 S    
C5    C7    1.528945 S    
C31   H6    1.081080 S    
O6    Cu2   1.927548 S    
C18   C21   1.407630 A    
C24   N1    1.382894 A    
C39   C44   1.397384 A    
C6    N6    1.455534 S    
C35   C36   1.395345 A    
O3    C1    1.320516 A    
O8    Cu1   1.934802 S    
C43   H16   1.074707 S    
C13   C15   1.452075 S    
C14   C16   1.452575 S    
C2    C21   1.484747 S    
C7    C13   1.538138 S    
C24   C26   1.430167 A    
H1    C12   1.110171 S    
C34   C35   1.395836 A    
C17   C19   1.405003 A    
C18   C20   1.405274 A    
C17   N7    1.438067 S    
C47   H19   1.073838 S    
C45   C46   1.396744 A    
N8    O20   1.298025 A    
C23   N2    1.383303 A    
C11   C13   1.554593 S    
C29   C30   1.395615 A    
O2    Cu2   1.971575 S    
C7    N3    1.457270 S    
Cu1   N1    2.052355 S    
Cu2   N2    2.052355 S    
C31   C32   1.396110 A    
O5    Cu1   1.927550 S    
C6    C8    1.528246 S    
C40   C41   1.398778 A    
C33   C38   1.402916 A    
C49   H21   1.080165 S    
C46   H18   1.073675 S    
