data_mof_unit_38499.cif
_audit_creation_date              2012-12-10T17:26:15-0500
_audit_creation_method            fapswitch 2.2
_symmetry_space_group_name_H-M    P1
_symmetry_Int_Tables_number       1
_space_group_crystal_system       triclinic
_cell_length_a                    10.263486
_cell_length_b                    10.688201
_cell_length_c                    27.535997
_cell_angle_alpha                 92.142716
_cell_angle_beta                  79.500744
_cell_angle_gamma                 98.858249
_cell_volume                      2934.51411221

loop_
_atom_site_label
_atom_site_type_symbol
_atom_type_description
_atom_site_fract_x
_atom_site_fract_y
_atom_site_fract_z
_atom_type_partial_charge
Br1   Br    Br    0.637832 0.736868 0.642523 -0.555513
Br2   Br    Br    0.344815 0.261408 0.365065 -0.529778
Br3   Br    Br    0.134247 0.619097 0.585035 -0.437943
Br4   Br    Br    0.911997 0.385545 0.417165 -0.407179
Br5   Br    Br    0.175742 0.695456 0.047155 -0.491944
Br6   Br    Br    0.803762 0.253520 0.951826 -0.490792
C1    C     C_R   0.559833 0.733928 0.497802 0.900909
C2    C     C_R   0.404748 0.556161 0.133819 -0.090039
C3    C     C_R   0.488171 0.482786 0.646486 -0.157865
C4    C     C_R   0.508807 0.509066 0.353375 -0.163845
C5    C     C_R   0.385139 0.524430 0.032934 -0.022460
C6    C     C_R   0.595995 0.425992 0.966781 -0.021738
C7    C     C_R   0.608948 0.455646 0.016435 0.073069
C8    C     C_R   0.372083 0.494162 0.983341 0.072609
C9    C     C_R   0.500672 0.497091 0.049735 0.050305
C10   C     C_R   0.480906 0.454148 0.949977 0.050516
C11   C     C_R   0.292000 0.587473 0.066260 0.226500
C12   C     C_R   0.440559 0.265895 0.501552 0.901285
C13   C     C_R   0.689598 0.364223 0.933153 0.225929
C14   C     C_R   0.298361 0.595004 0.116338 -0.125182
C15   C     C_R   0.685181 0.360625 0.882897 -0.125501
C16   C     C_R   0.497856 0.499103 0.593701 0.947638
C17   C     C_R   0.502002 0.500636 0.406332 0.941023
C18   C     C_R   0.250094 0.492858 0.966466 -0.132582
C19   C     C_R   0.730989 0.456338 0.033212 -0.133524
C20   C     C_2   0.603318 0.870491 0.495637 -0.012112
C21   C     C_2   0.400003 0.128563 0.501579 -0.004303
C22   C     C_2   0.512125 0.946430 0.513444 0.172615
C23   C     C_R   0.472836 0.439676 0.899296 -0.055916
C24   C     C_2   0.494951 0.055971 0.484268 0.183834
C25   C     C_2   0.923912 0.505978 0.508131 0.239006
C26   C     C_2   0.059606 0.469793 0.508359 0.290176
C27   C     C_R   0.357742 0.462271 0.831563 0.526865
C28   C     C_R   0.628235 0.499135 0.167780 0.525387
C29   C     C_R   0.575801 0.401173 0.814977 0.543391
C30   C     C_R   0.411478 0.563005 0.184153 0.543859
C31   C     C_R   0.416527 0.350650 0.719581 0.194962
C32   C     C_R   0.580942 0.627323 0.276818 0.196486
C33   C     C_R   0.422657 0.367126 0.668519 0.124222
C34   C     C_R   0.510255 0.514957 0.100219 -0.055255
C35   C     C_R   0.577919 0.619227 0.328119 0.119982
C36   C     C_R   0.546535 0.581239 0.674275 0.186435
C37   C     C_R   0.443444 0.408112 0.328662 0.197270
C38   C     C_R   0.537735 0.566745 0.725132 0.120669
C39   C     C_R   0.450135 0.413672 0.277573 0.118875
C40   C     C_R   0.473559 0.451209 0.747481 0.220289
C41   C     C_R   0.517902 0.523652 0.251940 0.220696
C42   C     C_3   0.255433 0.072963 0.519058 -0.886739
C43   C     C_3   0.748079 0.920502 0.475124 -0.865921
C44   C     C_3   0.078928 0.334255 0.499256 -0.763108
C45   C     C_R   0.357436 0.462882 0.882358 -0.030786
C46   C     C_3   0.880840 0.608144 0.543950 -0.722446
C47   C     C_3   0.597183 0.675367 0.755023 -0.702005
C48   C     C_3   0.384573 0.301554 0.250966 -0.702851
C49   C     C_3   0.643733 0.727087 0.357129 -0.845758
C50   C     C_3   0.363553 0.262701 0.636401 -0.854525
C51   C     C_3   0.649441 0.746001 0.248850 -0.768846
C52   C     C_3   0.350874 0.226494 0.744138 -0.767131
C53   C     C_3   0.581923 0.087933 0.434060 -0.784685
C54   C     C_3   0.428258 0.918242 0.564470 -0.787031
C55   C     C_R   0.626151 0.492852 0.117113 -0.029923
C56   C     C_R   0.244213 0.483227 0.916500 -0.099706
C57   C     C_R   0.738011 0.468864 0.083019 -0.101314
C58   C     C_R   0.579825 0.401759 0.865489 -0.088807
H1    H     H_    0.150254 0.490073 0.904856 0.203016
H2    H     H_    0.814755 0.868050 0.491418 0.260726
H3    H     H_    0.768795 0.907650 0.434416 0.250026
H4    H     H_    0.774442 0.021347 0.485409 0.258036
H5    H     H_    0.984273 0.272124 0.495410 0.224953
H6    H     H_    0.154309 0.325753 0.465366 0.289705
H7    H     H_    0.109260 0.299298 0.532281 0.238917
H8    H     H_    0.954460 0.695946 0.537106 0.226771
H9    H     H_    0.788202 0.639121 0.540779 0.285007
H10   H     H_    0.867876 0.574638 0.582426 0.271276
H11   H     H_    0.706889 0.697026 0.741566 0.269511
H12   H     H_    0.832228 0.462313 0.094523 0.203476
H13   H     H_    0.550381 0.760500 0.750968 0.259584
H14   H     H_    0.581505 0.655957 0.795055 0.214420
H15   H     H_    0.274842 0.286171 0.264904 0.273128
H16   H     H_    0.400330 0.313066 0.210418 0.214577
H17   H     H_    0.426667 0.215408 0.257679 0.255578
H18   H     H_    0.692752 0.810937 0.334859 0.247515
H19   H     H_    0.567081 0.759524 0.386736 0.218748
H20   H     H_    0.722056 0.693876 0.374219 0.265269
H21   H     H_    0.316643 0.174475 0.656227 0.247133
H22   H     H_    0.284965 0.296134 0.619525 0.259988
H23   H     H_    0.223466 0.638753 0.141254 0.222968
H24   H     H_    0.443959 0.237438 0.606636 0.219857
H25   H     H_    0.757591 0.762146 0.251227 0.254190
H26   H     H_    0.642588 0.741852 0.209139 0.236170
H27   H     H_    0.602074 0.828542 0.264807 0.240506
H28   H     H_    0.243651 0.207907 0.740446 0.252860
H29   H     H_    0.403007 0.148235 0.726582 0.242929
H30   H     H_    0.354227 0.224657 0.784069 0.236149
H31   H     H_    0.586588 0.001151 0.410801 0.232436
H32   H     H_    0.539521 0.154852 0.413656 0.262133
H33   H     H_    0.684033 0.133440 0.437890 0.266585
H34   H     H_    0.760843 0.318530 0.857704 0.222290
H35   H     H_    0.422629 0.006952 0.586428 0.232256
H36   H     H_    0.326220 0.870059 0.562044 0.272299
H37   H     H_    0.473973 0.855306 0.585420 0.267215
H38   H     H_    0.156784 0.495078 0.991565 0.190103
H39   H     H_    0.823904 0.452289 0.008111 0.190367
H40   H     H_    0.191316 0.115814 0.498181 0.264873
H41   H     H_    0.236599 0.969991 0.511038 0.265138
H42   H     H_    0.225254 0.091739 0.559129 0.247866
N1    N     N_R   0.468039 0.436102 0.799186 -0.348243
N2    N     N_R   0.520079 0.530289 0.200057 -0.348044
N3    N     N_2   0.842700 0.448890 0.480020 -0.006375
N4    N     N_2   0.157300 0.551110 0.519980 -0.011085
O1    O     O_R   0.431060 0.692470 0.504020 -0.585520
O2    O     O_2   0.736164 0.472895 0.184846 -0.525376
O3    O     O_2   0.309885 0.599984 0.217112 -0.522393
O4    O     O_2   0.679273 0.368463 0.781789 -0.524979
O5    O     O_R   0.568940 0.307530 0.495980 -0.595841
O6    O     O_R   0.651120 0.659650 0.491200 -0.629330
O7    O     O_R   0.348880 0.340350 0.508800 -0.616607
O8    O     O_R   0.389980 0.516390 0.577660 -0.556051
O9    O     O_R   0.610020 0.483610 0.422340 -0.570720
O10   O     O_R   0.610040 0.483570 0.564830 -0.623768
O11   O     O_R   0.389960 0.516430 0.435170 -0.588094
O12   O     O_2   0.250297 0.489703 0.814495 -0.523720
Zn1   Zn    Zn3+2 0.353060 0.521910 0.508560 1.018785
Zn2   Zn    Zn3+2 0.646940 0.478090 0.491440 1.001065

loop_
_geom_bond_atom_site_label_1
_geom_bond_atom_site_label_2
_ccdc_geom_bond_type
C21   C42   S    
Br4   N3    S    
C43   H4    S    
C30   N2    A    
C28   O2    S    
C27   N1    A    
C19   C57   A    
C25   C46   S    
C54   H35   S    
C17   O11   A    
O9    Zn2   S    
C16   O10   A    
Br6   C13   S    
C3    C36   A    
C2    C14   A    
C1    C20   S    
C51   H25   S    
C13   C15   A    
C52   H29   S    
C46   H10   S    
C17   O9    A    
C5    C8    A    
C3    C16   S    
C50   H24   S    
Br5   C11   S    
C57   H12   S    
Br3   N4    S    
C42   H40   S    
C14   H23   S    
C3    C33   A    
C11   C14   A    
C29   O4    S    
C2    C30   A    
C8    C18   A    
C55   C57   A    
C35   C49   S    
C15   C58   A    
C5    C9    A    
C38   C47   S    
C42   H42   S    
C33   C50   S    
C29   C58   A    
C51   H27   S    
C31   C52   S    
C31   C40   A    
C39   C41   A    
C23   C58   A    
C40   N1    S    
C21   C24   D    
C7    C19   A    
C47   H11   S    
C45   C56   A    
C36   C38   A    
C30   O3    S    
C38   C40   A    
C48   H16   S    
C22   C54   S    
C51   H26   S    
O1    Zn1   S    
C6    C10   A    
C32   C35   A    
C46   H9    S    
C43   H2    S    
C20   C43   S    
C19   H39   S    
C10   C23   A    
C28   C55   A    
C34   C55   A    
C1    O6    A    
C47   H13   S    
C44   H7    S    
C46   H8    S    
N4    Zn1   S    
C32   C51   S    
C50   H22   S    
C42   H41   S    
Br2   C37   S    
C24   C53   S    
C25   N3    D    
C49   H18   S    
C37   C39   A    
C12   O7    A    
C26   C44   S    
C32   C41   A    
C26   N4    D    
C53   H31   S    
C39   C48   S    
C7    C9    A    
C27   O12   S    
C53   H33   S    
C8    C10   A    
C53   H32   S    
C49   H19   S    
C54   H37   S    
C48   H15   S    
C23   C45   A    
C16   O8    A    
C5    C11   A    
C18   C56   A    
O5    Zn2   S    
O6    Zn2   S    
C56   H1    S    
C4    C37   A    
C44   H5    S    
C25   C26   S    
C12   C21   S    
C54   H36   S    
C12   O5    A    
N3    Zn2   S    
C43   H3    S    
C4    C17   S    
C27   C45   A    
C20   C22   D    
C28   N2    A    
C22   C24   S    
C47   H14   S    
O7    Zn1   S    
C31   C33   A    
C15   H34   S    
C50   H21   S    
C44   H6    S    
C6    C13   A    
C1    O1    A    
C18   H38   S    
O8    Zn1   S    
C52   H30   S    
C9    C34   A    
O11   Zn1   S    
C29   N1    A    
Br1   C36   S    
C6    C7    A    
C41   N2    S    
C2    C34   A    
C49   H20   S    
C52   H28   S    
C48   H17   S    
O10   Zn2   S    
C4    C35   A    
