data_mof_unit_49578.cif
_audit_creation_date              2012-12-10T17:09:17-0500
_audit_creation_method            fapswitch 2.2
_symmetry_space_group_name_H-M    P1
_symmetry_Int_Tables_number       1
_space_group_crystal_system       triclinic
_cell_length_a                    18.473953
_cell_length_b                    18.346415
_cell_length_c                    11.666111
_cell_angle_alpha                 90.001151
_cell_angle_beta                  76.026518
_cell_angle_gamma                 89.999699
_cell_volume                      3836.99591192

loop_
_atom_site_label
_atom_site_type_symbol
_atom_type_description
_atom_site_fract_x
_atom_site_fract_y
_atom_site_fract_z
_atom_type_partial_charge
C1    C     C_R   0.398719 0.099668 0.521580 0.833788
C2    C     C_R   0.601282 0.900332 0.478419 0.833785
C3    C     C_R   0.601285 0.099664 0.478420 0.833794
C4    C     C_R   0.398714 0.900337 0.521580 0.833793
C5    C     C_R   0.898718 0.599668 0.521581 0.833792
C6    C     C_R   0.101281 0.400332 0.478419 0.833785
C7    C     C_R   0.101286 0.599663 0.478420 0.833794
C8    C     C_R   0.898714 0.400337 0.521580 0.833792
C9    C     C_R   0.536034 0.000040 0.961315 -0.127457
C10   C     C_R   0.463966 0.999957 0.038685 -0.127454
C11   C     C_R   0.036034 0.500043 0.961315 -0.127457
C12   C     C_R   0.963966 0.499964 0.038685 -0.127457
C13   C     C_R   0.411057 0.999923 0.865692 -0.009685
C14   C     C_R   0.588942 0.000075 0.134308 -0.009680
C15   C     C_R   0.911057 0.499934 0.865692 -0.009677
C16   C     C_R   0.088943 0.500079 0.134307 -0.009680
C17   C     C_R   0.400686 0.999895 0.989423 0.348288
C18   C     C_R   0.599314 0.000104 0.010578 0.348294
C19   C     C_R   0.900687 0.499912 0.989424 0.348287
C20   C     C_R   0.099314 0.500112 0.010577 0.348294
C21   C     C_R   0.542166 0.000055 0.837337 0.074089
C22   C     C_R   0.457834 0.999943 0.162662 0.074089
C23   C     C_R   0.042165 0.500053 0.837338 0.074094
C24   C     C_R   0.957835 0.499947 0.162663 0.074094
C25   C     C_R   0.658483 0.155806 0.465748 -0.107343
C26   C     C_R   0.341514 0.844197 0.534252 -0.107337
C27   C     C_R   0.341540 0.155831 0.534249 -0.107301
C28   C     C_R   0.658464 0.844173 0.465750 -0.107293
C29   C     C_R   0.158486 0.655804 0.465748 -0.107348
C30   C     C_R   0.841515 0.344196 0.534251 -0.107328
C31   C     C_R   0.841536 0.655828 0.534250 -0.107317
C32   C     C_R   0.158462 0.344171 0.465750 -0.107300
C33   C     C_R   0.251721 0.763370 0.658642 0.170164
C34   C     C_R   0.748255 0.236655 0.341362 0.170169
C35   C     C_R   0.748046 0.763136 0.341406 0.170062
C36   C     C_R   0.251992 0.236902 0.658586 0.170065
C37   C     C_R   0.751741 0.263350 0.658638 0.170162
C38   C     C_R   0.248277 0.736632 0.341357 0.170177
C39   C     C_R   0.248015 0.263104 0.341412 0.170066
C40   C     C_R   0.751953 0.736865 0.658595 0.170082
C41   C     C_R   0.306630 0.817072 0.646102 -0.214373
C42   C     C_R   0.693350 0.182948 0.353901 -0.214354
C43   C     C_R   0.693174 0.816875 0.353939 -0.214412
C44   C     C_R   0.306857 0.183156 0.646055 -0.214392
C45   C     C_R   0.806647 0.317055 0.646099 -0.214371
C46   C     C_R   0.193369 0.682929 0.353897 -0.214363
C47   C     C_R   0.193147 0.316849 0.353944 -0.214395
C48   C     C_R   0.806825 0.683124 0.646062 -0.214389
C49   C     C_R   0.321798 0.817769 0.433757 -0.211680
C50   C     C_R   0.678210 0.182223 0.566241 -0.211685
C51   C     C_R   0.678322 0.817888 0.566212 -0.211804
C52   C     C_R   0.321661 0.182095 0.433792 -0.211819
C53   C     C_R   0.821786 0.317781 0.433760 -0.211695
C54   C     C_R   0.178200 0.682233 0.566242 -0.211671
C55   C     C_R   0.178342 0.317908 0.566207 -0.211819
C56   C     C_R   0.821680 0.682114 0.433788 -0.211782
C57   C     C_R   0.267716 0.763698 0.443227 0.106181
C58   C     C_R   0.732289 0.236297 0.556771 0.106181
C59   C     C_R   0.732373 0.763787 0.556754 0.106193
C60   C     C_R   0.267616 0.236203 0.443249 0.106192
C61   C     C_R   0.767707 0.263707 0.443229 0.106184
C62   C     C_R   0.232282 0.736304 0.556773 0.106179
C63   C     C_R   0.232388 0.263802 0.556750 0.106208
C64   C     C_R   0.767629 0.736214 0.443247 0.106207
Cu1   Cu    Cu3+1 0.507800 1.000000 0.383250 0.963835
Cu2   Cu    Cu3+1 0.492200 0.000000 0.616750 0.963836
Cu3   Cu    Cu3+1 0.007800 0.500000 0.383250 0.963836
Cu4   Cu    Cu3+1 0.992200 0.500000 0.616750 0.963836
H1    H     H_    0.636621 0.000121 0.172801 0.184776
H2    H     H_    0.363380 0.999878 0.827202 0.184777
H3    H     H_    0.136622 0.500128 0.172799 0.184779
H4    H     H_    0.863379 0.499896 0.827199 0.184773
H5    H     H_    0.403989 0.999893 0.224544 0.204199
H6    H     H_    0.596011 0.000105 0.775456 0.204198
H7    H     H_    0.903988 0.499896 0.224545 0.204199
H8    H     H_    0.096011 0.500097 0.775455 0.204200
H9    H     H_    0.651121 0.160381 0.652133 0.205166
H10   H     H_    0.348900 0.839598 0.347863 0.205151
H11   H     H_    0.348603 0.160106 0.347941 0.205183
H12   H     H_    0.651358 0.839856 0.652071 0.205162
H13   H     H_    0.151098 0.660403 0.652137 0.205176
H14   H     H_    0.848876 0.339623 0.347867 0.205140
H15   H     H_    0.848645 0.660148 0.347928 0.205191
H16   H     H_    0.151398 0.339895 0.652060 0.205161
H17   H     H_    0.678213 0.162075 0.275977 0.169567
H18   H     H_    0.321757 0.837955 0.724028 0.169568
H19   H     H_    0.322119 0.162406 0.723950 0.169477
H20   H     H_    0.677931 0.837642 0.276038 0.169479
H21   H     H_    0.178243 0.662046 0.275972 0.169571
H22   H     H_    0.821784 0.337928 0.724023 0.169552
H23   H     H_    0.822067 0.662357 0.723962 0.169496
H24   H     H_    0.177887 0.337599 0.276049 0.169475
N1    N     N_R   0.519530 1.000000 0.207810 -0.232302
N2    N     N_R   0.480470 1.000000 0.792190 -0.232302
N3    N     N_R   0.019530 0.500000 0.207810 -0.232303
N4    N     N_R   0.980470 0.500000 0.792190 -0.232302
O1    O     O_R   0.430030 0.075530 0.417420 -0.587206
O2    O     O_R   0.569970 0.924470 0.582580 -0.587206
O3    O     O_R   0.569970 0.075530 0.582580 -0.587241
O4    O     O_R   0.430030 0.924470 0.417420 -0.587241
O5    O     O_R   0.930030 0.575530 0.417420 -0.587198
O6    O     O_R   0.069970 0.424470 0.582580 -0.587217
O7    O     O_R   0.069970 0.575530 0.582580 -0.587230
O8    O     O_R   0.930030 0.424470 0.417420 -0.587250
O9    O     O_R   0.416860 0.075510 0.614610 -0.589069
O10   O     O_R   0.583140 0.924490 0.385390 -0.589071
O11   O     O_R   0.583140 0.075510 0.385390 -0.589084
O12   O     O_R   0.416860 0.924490 0.614610 -0.589086
O13   O     O_R   0.916860 0.575510 0.614610 -0.589069
O14   O     O_R   0.083140 0.424490 0.385390 -0.589071
O15   O     O_R   0.083140 0.575510 0.385390 -0.589083
O16   O     O_R   0.916860 0.424490 0.614610 -0.589087
N5    N     N_3   0.715807 0.236298 0.774127 -0.535346
H25   H     H_    0.661394 0.256803 0.795535 0.217078
H26   H     H_    0.741940 0.256523 0.837697 0.235741
N6    N     N_3   0.284228 0.763667 0.225865 -0.535382
H27   H     H_    0.338640 0.743162 0.204484 0.217054
H28   H     H_    0.258106 0.743432 0.162289 0.235747
N7    N     N_3   0.283751 0.235855 0.225963 -0.535420
H29   H     H_    0.338185 0.256300 0.204253 0.217144
H30   H     H_    0.257518 0.255990 0.162459 0.235609
N8    N     N_3   0.716190 0.764087 0.774050 -0.535480
H31   H     H_    0.661760 0.743632 0.795721 0.217116
H32   H     H_    0.742411 0.743943 0.837560 0.235625
N9    N     N_3   0.215770 0.736335 0.774135 -0.535347
H33   H     H_    0.161359 0.756844 0.795517 0.217081
H34   H     H_    0.241895 0.756567 0.837709 0.235748
N10   N     N_3   0.784187 0.263708 0.225873 -0.535406
H35   H     H_    0.838600 0.243206 0.204464 0.217064
H36   H     H_    0.758054 0.243483 0.162303 0.235745
N11   N     N_3   0.783807 0.735911 0.225952 -0.535426
H37   H     H_    0.838231 0.756381 0.204265 0.217142
H38   H     H_    0.757572 0.756039 0.162449 0.235629
N12   N     N_3   0.216260 0.264156 0.774034 -0.535458
H39   H     H_    0.161829 0.243704 0.795758 0.217127
H40   H     H_    0.242503 0.244032 0.837532 0.235616
S1    S     S_3+6 0.308201 0.999765 0.078255 -0.030071
O17   O     O_2   0.296471 0.932936 0.155059 -0.295062
O18   O     O_2   0.296272 0.066553 0.155157 -0.295077
O19   O     O_3   0.246251 0.999683 0.993635 -0.555518
H41   H     H_    0.196735 0.999597 0.050252 0.385145
S2    S     S_3+6 0.691799 0.000247 0.921747 -0.030067
O20   O     O_2   0.703741 0.933467 0.844828 -0.295040
O21   O     O_2   0.703518 0.067084 0.844963 -0.295084
O22   O     O_3   0.753749 0.000329 0.006369 -0.555554
H42   H     H_    0.803262 0.000445 0.949764 0.385163
S3    S     S_3+6 0.808201 0.499830 0.078255 -0.030069
O23   O     O_2   0.796429 0.433009 0.155079 -0.295067
O24   O     O_2   0.796312 0.566627 0.155136 -0.295066
O25   O     O_3   0.746249 0.499780 0.993635 -0.555529
H43   H     H_    0.696734 0.499713 0.050250 0.385146
S4    S     S_3+6 0.191799 0.500287 0.921745 -0.030070
O26   O     O_2   0.203770 0.433510 0.844816 -0.294955
O27   O     O_2   0.203485 0.567128 0.844969 -0.295198
O28   O     O_3   0.253745 0.500395 0.006373 -0.555480
H44   H     H_    0.303270 0.500682 0.949744 0.385108

loop_
_geom_bond_atom_site_label_1
_geom_bond_atom_site_label_2
_ccdc_geom_bond_type
C6    C32   S    
C7    C29   S    
C2    C28   S    
C47   H24   S    
C14   C18   A    
C30   C45   A    
S3    O23   D    
C34   C42   A    
Cu4   O7    S    
C23   H8    S    
N10   H35   S    
O22   H42   S    
C57   C62   A    
C46   H21   S    
C10   C22   A    
C15   C19   A    
C41   H18   S    
S1    O18   D    
C59   C64   A    
Cu4   N4    S    
C60   C63   A    
C43   H20   S    
C32   C47   A    
S3    O24   D    
Cu4   O6    S    
C8    O16   A    
C28   C51   A    
C37   N5    S    
C13   H2    S    
C10   C17   A    
C49   C57   A    
C49   H10   S    
Cu4   O16   S    
C25   C50   A    
C21   N2    A    
C52   C60   A    
C51   H12   S    
C53   C61   A    
C27   C44   A    
C23   N4    A    
C7    O15   A    
C33   C62   A    
C48   H23   S    
C55   C63   A    
C29   C46   A    
C56   C64   A    
C35   C64   A    
C31   C56   A    
C52   H11   S    
C35   C43   A    
C9    C10   A    
C32   C55   A    
C37   C58   A    
Cu2   N2    S    
C1    C27   S    
C58   C61   A    
Cu1   N1    S    
C40   C59   A    
C7    O7    A    
Cu3   N3    S    
C6    O14   A    
S2    O22   S    
C16   H3    S    
S1    O19   S    
Cu3   O8    S    
N7    H30   S    
C30   C53   A    
C5    O5    A    
C11   C20   A    
Cu3   Cu4   S    
C50   C58   A    
C11   C12   A    
C3    C25   S    
S3    O25   S    
O19   H41   S    
C26   C49   A    
C1    O1    A    
C15   N4    A    
N12   H40   S    
C54   C62   A    
C3    O11   A    
C21   H6    S    
C2    O10   A    
C34   C61   A    
C19   S3    S    
C20   S4    S    
N10   H36   S    
C53   H14   S    
Cu2   O3    S    
C15   H4    S    
C38   C57   A    
C38   N6    S    
Cu3   O14   S    
S4    O28   S    
C18   S2    S    
C16   C20   A    
C33   N9    S    
C42   H17   S    
C45   H22   S    
C8    O8    A    
Cu3   O15   S    
S4    O27   D    
C31   C48   A    
C4    O4    A    
N9    H33   S    
C22   N1    A    
S2    O21   D    
C36   C44   A    
C51   C59   A    
Cu2   O9    S    
C37   C45   A    
N11   H37   S    
C44   H19   S    
C50   H9    S    
C35   N11   S    
Cu1   O10   S    
C27   C52   A    
Cu3   O5    S    
C56   H15   S    
C39   C47   A    
N5    H25   S    
C40   C48   A    
C16   N3    A    
C14   N1    A    
S2    O20   D    
C36   C63   A    
Cu1   O4    S    
Cu2   O12   S    
N11   H38   S    
C36   N12   S    
C25   C42   A    
C4    C26   S    
N7    H29   S    
C24   H7    S    
N12   H39   S    
C40   N8    S    
S1    O17   D    
C12   C24   A    
C28   C43   A    
C13   C17   A    
C13   N2    A    
C33   C41   A    
Cu2   O2    S    
N8    H31   S    
C8    C30   S    
C24   N3    A    
C9    C21   A    
C5    O13   A    
C39   N7    S    
C39   C60   A    
C12   C19   A    
C11   C23   A    
C14   H1    S    
N6    H28   S    
N6    H27   S    
Cu4   O13   S    
C6    O6    A    
C38   C46   A    
Cu1   O1    S    
C3    O3    A    
C9    C18   A    
S4    O26   D    
C2    O2    A    
C34   N10   S    
Cu1   Cu2   S    
C29   C54   A    
O28   H44   S    
N9    H34   S    
O25   H43   S    
C17   S1    S    
C4    O12   A    
C22   H5    S    
N5    H26   S    
C55   H16   S    
N8    H32   S    
Cu1   O11   S    
C54   H13   S    
C26   C41   A    
C1    O9    A    
C5    C31   S    
