data_mof_unit_7889.cif
_audit_creation_date              2013-03-05T15:48:56-0500
_audit_creation_method            fapswitch 2.2
_symmetry_space_group_name_H-M    P1
_symmetry_Int_Tables_number       1
_space_group_crystal_system       triclinic
_cell_length_a                    8.203593
_cell_length_b                    18.813449
_cell_length_c                    19.062745
_cell_angle_alpha                 98.74293
_cell_angle_beta                  94.664081
_cell_angle_gamma                 91.514596
_cell_volume                      2896.03985145

loop_
_atom_site_label
_atom_site_type_symbol
_atom_site_description
_atom_site_fract_x
_atom_site_fract_y
_atom_site_fract_z
_atom_type_partial_charge
P1    P     P_3+3 0.947550 0.663200 0.567530 0.494638
O1    O     O_2   0.118870 0.674530 0.547560 -0.376713
O2    O     O_3   0.870460 0.585330 0.542110 -0.379470
O3    O     O_3   0.354280 0.631750 0.418430 -0.374399
O4    O     O_2   0.220095 0.753953 0.463079 -0.362722
O5    O     O_3   0.974680 0.678978 0.660736 -0.535701
O6    O     O_3   0.326457 0.743316 0.336601 -0.429872
H1    H     H_    0.311187 0.639216 0.281777 0.122707
C1    C     C_3   0.406111 0.714044 0.216987 -0.086772
H2    H     H_    0.449344 0.771481 0.225604 0.207264
P2    P     P_3+3 0.354660 0.445020 0.336980 0.599161
P3    P     P_3+3 0.911280 0.597468 0.289195 0.566781
O7    O     O_2   0.180880 0.466650 0.327890 -0.347818
O8    O     O_3   0.939000 0.596010 0.380670 -0.314742
O9    O     O_2   0.047519 0.552985 0.254727 -0.310942
O10   O     O_3   0.339891 0.351480 0.313028 -0.482185
O11   O     O_3   0.951952 0.685313 0.273298 -0.507003
C2    C     C_3   0.880964 0.734599 0.324161 0.090452
H3    H     H_    0.965741 0.747085 0.373169 0.140286
H4    H     H_    0.765007 0.712969 0.340007 0.047413
C3    C     C_3   0.844268 0.803695 0.293158 0.674753
H5    H     H_    0.814923 0.790687 0.234547 0.073834
C4    C     C_3   0.790517 0.379859 0.311169 0.154614
H6    H     H_    0.667265 0.392657 0.327258 0.044418
H7    H     H_    0.875883 0.426922 0.329973 0.105317
C5    C     C_3   0.786076 0.364038 0.229710 0.841939
H8    H     H_    0.755932 0.413719 0.207799 -0.137818
Ba1   Ba    Ba6+2 0.152460 0.535140 0.468980 1.689600
C6    C     C_3   0.015309 0.615391 0.686446 0.381121
H9    H     H_    0.126305 0.593902 0.663396 0.102694
H10   H     H_    0.914175 0.574280 0.673019 0.121950
C7    C     C_3   0.046349 0.632050 0.767144 -0.840182
H11   H     H_    0.153386 0.670279 0.782134 0.298056
H12   H     H_    0.070792 0.582144 0.789673 0.201970
H13   H     H_    0.937085 0.656335 0.790376 0.254062
C8    C     C_3   0.284934 0.319169 0.368429 0.361125
H14   H     H_    0.179207 0.347110 0.390346 0.060585
H15   H     H_    0.385231 0.319779 0.411223 0.123700
C9    C     C_3   0.232333 0.241583 0.338526 -0.584858
H16   H     H_    0.117847 0.240070 0.302910 0.260500
H17   H     H_    0.211269 0.210552 0.382080 0.196095
H18   H     H_    0.329111 0.215654 0.307322 0.327726
P4    P     P_3+3 0.862750 0.336790 0.432410 0.565715
O12   O     O_2   0.691430 0.325420 0.452420 -0.306690
O13   O     O_3   0.939830 0.414660 0.457830 -0.405052
O14   O     O_3   0.456020 0.368240 0.581510 -0.385479
O15   O     O_3   0.843156 0.319131 0.339187 -0.488800
P5    P     P_3+3 0.891926 0.397337 0.710045 0.508711
O16   O     O_3   0.374170 0.535780 0.585810 -0.372171
O17   O     O_3   0.871300 0.403980 0.619270 -0.396425
O18   O     O_2   0.758976 0.443721 0.745275 -0.377004
O19   O     O_3   0.838521 0.309053 0.720657 -0.478645
Ba2   Ba    Ba6+2 0.657710 0.464850 0.530960 1.625316
P6    P     P_3+3 0.366726 0.724375 0.423523 0.570204
C10   C     C_3   0.390812 0.688851 0.288897 0.354397
H19   H     H_    0.514543 0.675418 0.309034 -0.049817
H20   H     H_    0.499403 0.682398 0.188357 0.039674
O20   O     O_3   0.436130 0.464210 0.414140 -0.335380
C11   C     C_3   0.536871 0.686721 0.671399 0.102519
H21   H     H_    0.642591 0.658409 0.649104 0.076881
H22   H     H_    0.457582 0.702894 0.626854 0.114167
C12   C     C_3   0.603004 0.753507 0.723630 0.344033
H23   H     H_    0.692246 0.734904 0.763536 0.069726
P7    P     P_3+3 0.445895 0.552848 0.675716 0.458950
O21   O     O_2   0.629420 0.533310 0.672080 -0.375860
O22   O     O_3   0.442693 0.644643 0.709197 -0.569949
C13   C     C_3   0.903874 0.261012 0.667230 0.268001
H24   H     H_    0.849357 0.268984 0.613885 0.105587
H25   H     H_    0.038821 0.268729 0.669504 0.022061
C14   C     C_3   0.862189 0.183375 0.676401 -0.080166
H26   H     H_    0.728660 0.175030 0.678884 0.199813
H27   H     H_    0.896919 0.146688 0.629331 0.065227
P8    P     P_3+3 0.437018 0.274996 0.576668 0.441008
C15   C     C_3   0.433994 0.305889 0.712565 0.259642
H28   H     H_    0.299616 0.310091 0.703302 0.019954
O23   O     O_2   0.570767 0.242291 0.530513 -0.405297
O24   O     O_3   0.492594 0.253481 0.661205 -0.528770
H29   H     H_    0.495021 0.358998 0.711449 0.131303
H30   H     H_    0.443792 0.332180 0.826727 0.058415
C16   C     C_3   0.474056 0.286368 0.786680 -0.067617
H31   H     H_    0.606849 0.277657 0.795825 0.209836
C17   C     C_R   0.998197 0.951769 0.533520 0.065820
C18   C     C_R   0.095128 0.903836 0.566928 0.000509
C19   C     C_R   0.252657 0.926582 0.597449 -0.227097
C20   C     C_R   0.314370 0.996091 0.595277 0.781778
C21   C     C_R   0.218107 0.044936 0.563020 -0.112450
C22   C     C_R   0.059696 0.022684 0.531632 0.025785
C23   C     C_R   0.276738 0.115739 0.562855 -0.119065
C24   C     C_R   0.178874 0.165985 0.533098 0.010190
C25   C     C_R   0.021935 0.143090 0.498831 -0.064239
C26   C     C_R   0.963006 0.071188 0.498532 0.138657
C27   C     C_R   0.231629 0.238928 0.537853 0.204709
C28   C     C_R   0.126592 0.287952 0.511780 -0.559927
C29   C     C_R   0.977391 0.265977 0.472946 0.275728
C30   C     C_R   0.923940 0.191778 0.464960 -0.307701
C31   C     C_R   0.839477 0.929195 0.503048 0.135271
C32   C     C_R   0.780115 0.857371 0.503083 -0.016010
C33   C     C_R   0.881819 0.807779 0.533998 0.008111
C34   C     C_R   0.035013 0.833603 0.568866 0.029585
H32   H     H_    0.328758 0.890222 0.622784 0.228050
H33   H     H_    0.166215 0.344043 0.518250 0.171299
H34   H     H_    0.398190 0.131524 0.587427 0.210710
H35   H     H_    0.110777 0.799408 0.597208 0.178278
C35   C     C_R   0.775514 0.164240 0.425836 0.934630
C36   C     C_R   0.710415 0.095583 0.431690 -0.401284
C37   C     C_R   0.804901 0.048483 0.467492 -0.065686
C38   C     C_R   0.741843 0.978144 0.471037 0.001128
C39   C     C_R   0.550738 0.073266 0.402780 0.681411
C40   C     C_R   0.485676 0.005763 0.409389 0.687070
C41   C     C_R   0.580933 0.957015 0.442470 -0.373983
C42   C     C_R   0.618927 0.835700 0.472769 -0.188573
C43   C     C_R   0.518324 0.887584 0.446341 0.895889
C44   C     C_R   0.565658 0.762643 0.468969 0.237001
C45   C     C_R   0.670500 0.713688 0.496165 -0.473205
C46   C     C_R   0.826534 0.734341 0.529162 0.227547
H36   H     H_    0.628711 0.658134 0.492563 0.205348
C47   C     C_R   0.606149 0.532317 0.299866 0.333715
C48   C     C_R   0.463538 0.491274 0.273933 -0.037860
C49   C     C_R   0.414526 0.480801 0.199992 0.150696
C50   C     C_R   0.511925 0.511252 0.152884 -0.104869
C51   C     C_R   0.659370 0.549213 0.180304 -0.355318
C52   C     C_R   0.707955 0.558215 0.253265 0.063446
C53   C     C_R   0.456252 0.560850 0.038487 -0.077894
C54   C     C_R   0.402348 0.552083 0.965969 -0.112059
C55   C     C_R   0.355555 0.483492 0.928214 0.169072
C56   C     C_R   0.368463 0.423634 0.963973 -0.070538
C57   C     C_R   0.424842 0.432287 0.036133 -0.031528
C58   C     C_R   0.465106 0.501189 0.074699 0.182696
C59   C     C_R   0.145462 0.438366 0.823970 0.221698
C60   C     C_R   0.097518 0.431243 0.750053 0.122265
C61   C     C_R   0.343868 0.497880 0.732146 0.310328
C62   C     C_R   0.393560 0.504700 0.804714 -0.279268
C63   C     C_R   0.297146 0.474542 0.851255 -0.140928
C64   C     C_R   0.200286 0.458930 0.704855 -0.564853
H37   H     H_    0.505601 0.535269 0.825263 0.178246
H38   H     H_    0.394127 0.599102 0.939570 0.153577
H39   H     H_    0.487777 0.614459 0.066640 0.145624
H40   H     H_    0.334959 0.370107 0.936151 0.171187
H41   H     H_    0.435205 0.385103 0.062079 0.188581
H42   H     H_    0.738749 0.569766 0.144669 0.221563
H43   H     H_    0.161821 0.455572 0.648755 0.179453
N1    N     N_R   0.665213 0.307114 0.198081 0.239621
O25   O     O_R   0.641873 0.291498 0.129092 -0.291326
O26   O     O_R   0.584010 0.270222 0.237160 -0.288809
F1    F     F_    0.939314 0.344402 0.210330 -0.583952
N2    N     N_R   0.250788 0.704422 0.172884 0.283374
O27   O     O_R   0.186924 0.758855 0.147674 -0.273982
O28   O     O_R   0.187708 0.640022 0.150401 -0.337651
N3    N     N_R   0.687201 0.804626 0.687165 0.214540
O29   O     O_R   0.839420 0.824063 0.706907 -0.323122
O30   O     O_R   0.607037 0.836322 0.639848 -0.423694
N4    N     N_R   0.470622 0.788747 0.760913 0.278096
O31   O     O_R   0.343698 0.810120 0.725444 -0.341774
O32   O     O_R   0.475840 0.796126 0.830039 -0.304824
F2    F     F_    0.708144 0.834392 0.321699 -0.730957
N5    N     N_R   0.948674 0.164857 0.740609 0.298495
O33   O     O_R   0.908029 0.193088 0.803044 -0.217406
O34   O     O_R   0.052367 0.113576 0.735635 -0.274623
N6    N     N_R   0.381201 0.221699 0.795698 0.284970
O35   O     O_R   0.411429 0.159708 0.759669 -0.249707
O36   O     O_R   0.278028 0.224707 0.844287 -0.260821
F3    F     F_    0.468089 0.015569 0.625204 -0.654487
F4    F     F_    0.694738 0.202121 0.379926 -0.596889
F5    F     F_    0.453739 0.117382 0.369563 -0.620982
F6    F     F_    0.329662 0.988112 0.381417 -0.553471
F7    F     F_    0.358393 0.871983 0.424596 -0.605232
N7    N     N_R   0.267399 0.439380 0.172805 0.271369
O37   O     O_R   0.260442 0.370534 0.174410 -0.256793
O38   O     O_R   0.153838 0.467109 0.134901 -0.285013
N8    N     N_R   0.036613 0.414158 0.871424 0.246585
O39   O     O_R   0.997839 0.457740 0.926798 -0.343761
O40   O     O_R   0.981375 0.347672 0.861235 -0.287141
N9    N     N_R   0.983954 0.855140 0.308248 0.266099
O41   O     O_R   0.118908 0.841232 0.278499 -0.241019
O42   O     O_R   0.971053 0.917291 0.347506 -0.276772
F8    F     F_    0.650171 0.544103 0.370856 -0.660841

loop_
_geom_bond_atom_site_label_1
_geom_bond_atom_site_label_2
_geom_bond_distance
_ccdc_geom_bond_type
C34   H35   1.079022 S    
C10   H19   1.105092 S    
C28   C29   1.396400 A    
C12   N3    1.459925 S    
C22   C26   1.411344 A    
C2    C3    1.534617 S    
P2    O7    1.496646 D    
C42   C43   1.418533 A    
O6    C10   1.406780 S    
C47   C52   1.398147 A    
C61   C64   1.390632 A    
C35   F4    1.353956 S    
C45   C46   1.397721 A    
C33   C46   1.429831 A    
C53   C54   1.400416 A    
C9    H17   1.106954 S    
C20   C21   1.406191 A    
C50   C51   1.408686 A    
C13   H25   1.109194 S    
C39   F5    1.354901 S    
C5    H8    1.106037 S    
C56   C57   1.398961 A    
C12   N4    1.464385 S    
C14   N5    1.457519 S    
C51   H42   1.083284 S    
N5    O33   1.300582 A    
P1    O1    1.503814 D    
C6    C7    1.521530 S    
N3    O30   1.299779 A    
C11   O22   1.405108 S    
C32   C42   1.422781 A    
C21   C23   1.404762 A    
N8    O39   1.301159 A    
C17   C22   1.420495 A    
P6    C44   1.857552 S    
C1    N2    1.459630 S    
P4    C29   1.875488 S    
C39   C40   1.391878 A    
C2    H3    1.109332 S    
Ba1   O16   2.756837 S    
C4    C5    1.533269 S    
C48   C49   1.416481 A    
O12   Ba2   2.847956 S    
P4    Ba2   3.393418 S    
P5    O18   1.547050 D    
N6    O35   1.301099 A    
C62   C63   1.406435 A    
C15   O24   1.403538 S    
P3    O11   1.753275 S    
P1    Ba1   3.392820 S    
C4    H6    1.102375 S    
N6    O36   1.300610 A    
O7    Ba1   2.830678 S    
C14   H26   1.108347 S    
C1    C10   1.530300 S    
P2    O20   1.551276 S    
Ba2   O21   2.830823 S    
C1    H2    1.112094 S    
C2    H4    1.106970 S    
Ba2   O20   2.756063 S    
P5    O17   1.748670 S    
O13   Ba2   2.903705 S    
C11   H21   1.109985 S    
O16   P7    1.745083 S    
C18   C34   1.404915 A    
C3    H5    1.111825 S    
C20   F3    1.358304 S    
C26   C37   1.408525 A    
P5    C60   1.849103 S    
C60   C64   1.398492 A    
C57   H41   1.081885 S    
H1    C10   1.109920 S    
C35   C36   1.408227 A    
O3    Ba1   2.757920 S    
C32   C33   1.429065 A    
C9    H18   1.109584 S    
N2    O28   1.300911 A    
N9    O42   1.300712 A    
C36   C39   1.406795 A    
Ba1   O13   2.794598 S    
C11   H22   1.111722 S    
O17   Ba2   2.725439 S    
C4    O15   1.396827 S    
C15   H28   1.108992 S    
C54   H38   1.083172 S    
C13   H24   1.110217 S    
C19   H32   1.079299 S    
C7    H13   1.110418 S    
C59   N8    1.434636 S    
C25   C30   1.427070 A    
C17   C31   1.409229 A    
C19   C20   1.397501 A    
N7    O38   1.301142 A    
C40   C41   1.408191 A    
C28   H33   1.081773 S    
N7    O37   1.300083 A    
C21   C22   1.410925 A    
C16   N6    1.458056 S    
N9    O41   1.299259 A    
C14   H27   1.107418 S    
P1    O5    1.751109 S    
P1    O2    1.570468 S    
C7    H12   1.106673 S    
C5    F1    1.382707 S    
P4    O12   1.504199 D    
C6    H9    1.102806 S    
N2    O27   1.300442 A    
P2    O10   1.748016 S    
O4    P6    1.542897 D    
C23   H34   1.080034 S    
C18   C19   1.401603 A    
P7    C61   1.834666 S    
Ba1   Ba2   4.537520 S    
C43   F7    1.354082 S    
C31   C32   1.424293 A    
C12   H23   1.114041 S    
O11   C2    1.409291 S    
C3    F2    1.383460 S    
C42   C44   1.420626 A    
N4    O31   1.301261 A    
C24   C27   1.415339 A    
P4    O13   1.570439 S    
C51   C52   1.398790 A    
O19   C13   1.405759 S    
C40   F6    1.358455 S    
C59   C63   1.422853 A    
C47   F8    1.354978 S    
C31   C38   1.411482 A    
N4    O32   1.300931 A    
C17   C18   1.407573 A    
P3    O9    1.543680 D    
C3    N9    1.461431 S    
C15   H29   1.109580 S    
C55   C56   1.404269 A    
P8    O23   1.544245 D    
N1    O26   1.301499 A    
O2    Ba1   2.902872 S    
C57   C58   1.406448 A    
C49   N7    1.434714 S    
C9    H16   1.110343 S    
C30   C35   1.417305 A    
C44   C45   1.404018 A    
C55   C63   1.488784 S    
C56   H40   1.081765 S    
C11   C12   1.536304 S    
O3    P6    1.730330 S    
C8    C9    1.521678 S    
P8    C27   1.852315 S    
P3    O8    1.744588 S    
C16   H31   1.109616 S    
C45   H36   1.081662 S    
C49   C50   1.421957 A    
C50   C58   1.490626 S    
Ba1   O20   2.902542 S    
C36   C37   1.409227 A    
C53   H39   1.082218 S    
C13   C14   1.530310 S    
C7    H11   1.110544 S    
N5    O34   1.300796 A    
C59   C60   1.416973 A    
C6    H10   1.106086 S    
C5    N1    1.464206 S    
N3    O29   1.300885 A    
P7    O21   1.563687 D    
C64   H43   1.082024 S    
O2    Ba2   2.795184 S    
C25   C26   1.423453 A    
N8    O40   1.299796 A    
P2    Ba1   3.389440 S    
C62   H37   1.083522 S    
O16   Ba2   2.901710 S    
O14   Ba2   2.757267 S    
C8    H15   1.109101 S    
C27   C28   1.397107 A    
C38   C41   1.409479 A    
C1    H20   1.109637 S    
C4    H7    1.110318 S    
C29   C30   1.433972 A    
C41   C43   1.405519 A    
O1    Ba1   2.847444 S    
H30   C16   1.108777 S    
P5    O19   1.752044 S    
O5    C6    1.398265 S    
P3    C52   1.841739 S    
C23   C24   1.410297 A    
C8    H14   1.104272 S    
C33   C34   1.411013 A    
C37   C38   1.421284 A    
C53   C58   1.404755 A    
P8    O24   1.748500 S    
N1    O25   1.300430 A    
C15   C16   1.525659 S    
P1    C46   1.887220 S    
O6    P6    1.754532 S    
O8    Ba1   2.724798 S    
C24   C25   1.420625 A    
C47   C48   1.396954 A    
P2    C48   1.857663 S    
P4    O15   1.750842 S    
O14   P8    1.744756 S    
O10   C8    1.395082 S    
C61   C62   1.395664 A    
P7    O22   1.749442 S    
C54   C55   1.406107 A    
