data_mof_unit_33651.cif
_audit_creation_date              2012-12-10T20:03:59-0500
_audit_creation_method            fapswitch 2.2
_symmetry_space_group_name_H-M    P1
_symmetry_Int_Tables_number       1
_space_group_crystal_system       triclinic
_cell_length_a                    18.965344
_cell_length_b                    18.477052
_cell_length_c                    10.711815
_cell_angle_alpha                 90.298726
_cell_angle_beta                  91.533124
_cell_angle_gamma                 91.256719
_cell_volume                      3751.36379373

loop_
_atom_site_label
_atom_site_type_symbol
_atom_type_description
_atom_site_fract_x
_atom_site_fract_y
_atom_site_fract_z
_atom_type_partial_charge
C1    C     C_R   0.365165 0.499185 0.502947 0.922176
C2    C     C_R   0.966689 0.429942 0.652096 -0.156322
C3    C     C_R   0.533602 0.727354 0.595004 0.556217
C4    C     C_R   0.464099 0.724531 0.406581 0.546330
C5    C     C_R   0.535613 0.803950 0.592723 -0.411813
C6    C     C_R   0.460565 0.800949 0.408663 -0.398986
C7    C     C_R   0.498185 0.841688 0.500117 0.017788
C8    C     C_R   0.436798 0.960892 0.466734 -0.186436
C9    C     C_R   0.559544 0.963690 0.533049 -0.185818
C10   C     C_R   0.436887 0.036926 0.467081 -0.193800
C11   C     C_R   0.559614 0.039673 0.533460 -0.193962
C12   C     C_R   0.635263 0.500788 0.502327 0.954107
C13   C     C_R   0.498289 0.077533 0.500540 0.122920
C14   C     C_R   0.500635 0.499734 0.262223 0.928462
C15   C     C_R   0.497035 0.500008 0.737544 0.957521
C16   C     C_R   0.498128 0.923017 0.499818 0.182744
C17   C     C_R   0.536704 0.199058 0.592884 -0.277308
C18   C     C_R   0.460754 0.197210 0.408711 -0.288511
C19   C     C_R   0.537146 0.274967 0.590242 0.002926
C20   C     C_R   0.462012 0.273161 0.410329 0.003055
C21   C     C_R   0.498504 0.158783 0.500801 0.132965
C22   C     C_2   0.488941 0.438340 0.932157 -0.145690
C23   C     C_R   0.711731 0.501858 0.526617 -0.236612
C24   C     C_2   0.484874 0.439444 0.066152 -0.163392
C25   C     C_2   0.485833 0.499935 0.867997 -0.310569
C26   C     C_2   0.504635 0.498886 0.130433 -0.328237
C27   C     C_R   0.753089 0.446570 0.477304 0.315735
C28   C     C_R   0.269429 0.454594 0.635262 0.323890
C29   C     C_R   0.825566 0.445003 0.509411 0.361942
C30   C     C_R   0.200464 0.459668 0.677956 0.361319
C31   C     C_R   0.853719 0.491931 0.603367 -0.076569
C32   C     C_R   0.151035 0.499502 0.609073 -0.114845
C33   C     C_R   0.811462 0.544576 0.654524 -0.336887
C34   C     C_R   0.290710 0.496948 0.532717 -0.273009
C35   C     C_R   0.171967 0.539167 0.504863 -0.270313
C36   C     C_R   0.742402 0.552867 0.611546 0.141783
C37   C     C_R   0.241922 0.540875 0.468932 0.156209
C38   C     C_3   0.721010 0.329099 0.429408 0.138001
C39   C     C_3   0.674425 0.283439 0.339348 -0.312945
C40   C     C_3   0.676720 0.203171 0.371841 -0.989622
C41   C     C_3   0.308511 0.341368 0.677200 0.143304
C42   C     C_3   0.364134 0.299061 0.750068 -0.321246
C43   C     C_3   0.356960 0.217991 0.723410 -0.985731
C44   C     C_3   0.895363 0.432438 0.341866 0.105526
C45   C     C_R   0.966301 0.560798 0.633501 -0.219256
C46   C     C_3   0.948830 0.383215 0.282291 -0.326512
C47   C     C_3   0.980861 0.417988 0.167418 -0.979599
C48   C     C_3   0.196530 0.471205 0.888562 0.116778
C49   C     C_3   0.176253 0.432674 0.008598 -0.336354
C50   C     C_3   0.191443 0.480420 0.123334 -0.963330
C51   C     C_3   0.721115 0.678790 0.583276 -0.692706
C52   C     C_3   0.258443 0.662495 0.391681 -0.700969
C53   C     C_3   0.551769 0.712375 0.809121 0.079558
C54   C     C_3   0.617003 0.745162 0.877255 -0.362680
C55   C     C_3   0.600352 0.768037 0.010086 -0.977611
C56   C     C_R   0.039330 0.562868 0.637721 -0.223742
C57   C     C_3   0.441212 0.703423 0.194920 0.073807
C58   C     C_3   0.372593 0.714394 0.120103 -0.350304
C59   C     C_3   0.386319 0.729958 0.983160 -0.985980
C60   C     C_R   0.076417 0.498237 0.640276 0.190669
C61   C     C_R   0.929541 0.494061 0.634863 0.174995
C62   C     C_R   0.040042 0.431902 0.653124 -0.157798
H1    H     H_    0.496017 0.386328 0.886950 0.157168
H2    H     H_    0.431098 0.168898 0.335065 0.132480
H3    H     H_    0.566809 0.305557 0.661042 0.114627
H4    H     H_    0.432719 0.302352 0.339502 0.116366
H5    H     H_    0.473309 0.551276 0.910613 0.126117
H6    H     H_    0.525775 0.547396 0.087349 0.130187
H7    H     H_    0.833360 0.582334 0.723810 0.165500
H8    H     H_    0.133484 0.569015 0.450437 0.175620
H9    H     H_    0.938878 0.611073 0.620005 0.138915
H10   H     H_    0.066866 0.614566 0.629604 0.137280
H11   H     H_    0.067954 0.381395 0.654742 0.157221
H12   H     H_    0.467652 0.390081 0.112166 0.160646
H13   H     H_    0.939047 0.378140 0.656412 0.160597
H14   H     H_    0.697890 0.326274 0.524042 0.119273
H15   H     H_    0.774460 0.305654 0.433230 0.182679
H16   H     H_    0.619178 0.301959 0.343063 0.242203
H17   H     H_    0.692727 0.290807 0.242409 0.225183
H18   H     H_    0.730081 0.182085 0.355273 0.261500
H19   H     H_    0.637651 0.172343 0.312269 0.275527
H20   H     H_    0.664025 0.194643 0.471231 0.265966
H21   H     H_    0.314280 0.330571 0.575506 0.132677
H22   H     H_    0.255420 0.321764 0.705640 0.160983
H23   H     H_    0.564646 0.833873 0.664969 0.156885
H24   H     H_    0.417432 0.318414 0.723683 0.244532
H25   H     H_    0.358521 0.308847 0.851777 0.216514
H26   H     H_    0.305004 0.196854 0.754129 0.261523
H27   H     H_    0.399312 0.189157 0.775038 0.270812
H28   H     H_    0.361905 0.207039 0.622041 0.274290
H29   H     H_    0.922486 0.484877 0.367121 0.138538
H30   H     H_    0.851769 0.442450 0.272730 0.164740
H31   H     H_    0.991785 0.371729 0.351594 0.226921
H32   H     H_    0.922330 0.331091 0.254598 0.223684
H33   H     H_    0.938913 0.430383 0.096872 0.267215
H34   H     H_    0.429468 0.828159 0.337675 0.157735
H35   H     H_    0.017984 0.379871 0.125237 0.263825
H36   H     H_    0.010308 0.468653 0.193902 0.270358
H37   H     H_    0.165608 0.521672 0.880005 0.132543
H38   H     H_    0.253939 0.485587 0.894796 0.167064
H39   H     H_    0.119129 0.418081 0.003424 0.228570
H40   H     H_    0.206517 0.382049 0.018008 0.225225
H41   H     H_    0.248634 0.494519 0.131358 0.262104
H42   H     H_    0.175951 0.450893 0.208737 0.271110
H43   H     H_    0.160849 0.530912 0.116979 0.269785
H44   H     H_    0.710921 0.622306 0.747962 0.216241
H45   H     H_    0.388147 0.931762 0.442634 0.130866
H46   H     H_    0.692409 0.725248 0.621399 0.240956
H47   H     H_    0.704991 0.671296 0.483474 0.241827
H48   H     H_    0.778518 0.692252 0.590460 0.199460
H49   H     H_    0.305756 0.570867 0.320383 0.237157
H50   H     H_    0.267632 0.692922 0.304655 0.225520
H51   H     H_    0.299540 0.678748 0.462882 0.258329
H52   H     H_    0.205740 0.677338 0.425169 0.216638
H53   H     H_    0.534394 0.663836 0.861518 0.159224
H54   H     H_    0.507255 0.750781 0.811569 0.124151
H55   H     H_    0.659256 0.704605 0.881786 0.220954
H56   H     H_    0.608160 0.936763 0.556933 0.130055
H57   H     H_    0.637146 0.792969 0.825807 0.209096
H58   H     H_    0.557993 0.808621 0.008996 0.263687
H59   H     H_    0.648305 0.792587 0.056229 0.267637
H60   H     H_    0.583411 0.720165 0.064871 0.253570
H61   H     H_    0.469634 0.658213 0.151982 0.162463
H62   H     H_    0.475942 0.752499 0.186306 0.120226
H63   H     H_    0.338713 0.664712 0.125679 0.230266
H64   H     H_    0.344151 0.760523 0.160642 0.211655
H65   H     H_    0.420022 0.779502 0.974634 0.263330
H66   H     H_    0.335438 0.738628 0.932351 0.268307
H67   H     H_    0.388330 0.063943 0.443126 0.129285
H68   H     H_    0.412495 0.683318 0.939719 0.254896
H69   H     H_    0.608254 0.068809 0.557642 0.131478
H70   H     H_    0.565802 0.172190 0.666843 0.128882
N1    N     N_R   0.500000 0.689440 0.500000 -0.155631
N2    N     N_R   0.500000 0.310560 0.500000 -0.096026
N3    N     N_2   0.704960 0.613799 0.653063 -0.234851
N4    N     N_2   0.261301 0.585547 0.366756 -0.296251
O1    O     O_R   0.398180 0.560840 0.499970 -0.590546
O2    O     O_3   0.318584 0.415911 0.703883 -0.629062
O3    O     O_3   0.868769 0.397810 0.448499 -0.669128
O4    O     O_3   0.181320 0.424567 0.786030 -0.658903
O5    O     O_3   0.569269 0.689358 0.687460 -0.607921
O6    O     O_3   0.425119 0.683854 0.319094 -0.619372
O7    O     O_R   0.601820 0.560840 0.500030 -0.577873
O8    O     O_R   0.398180 0.439210 0.499910 -0.608226
O9    O     O_R   0.601820 0.439210 0.500090 -0.612082
O10   O     O_R   0.500000 0.560800 0.319070 -0.601002
O11   O     O_R   0.500000 0.560800 0.680930 -0.592112
O12   O     O_R   0.499990 0.439170 0.319010 -0.629351
O13   O     O_R   0.500010 0.439170 0.680990 -0.633418
O14   O     O_3   0.724271 0.401019 0.385178 -0.637375
Zn1   Zn    Zn3+2 0.500000 0.581210 0.500000 1.009494
Zn2   Zn    Zn3+2 0.500000 0.418790 0.500000 0.935531

loop_
_geom_bond_atom_site_label_1
_geom_bond_atom_site_label_2
_ccdc_geom_bond_type
C30   C32   A    
C55   H59   S    
C59   H68   S    
C50   H42   S    
C45   H9    S    
C34   C37   A    
C41   C42   S    
C31   C61   S    
C3    O5    S    
C24   H12   S    
C38   H14   S    
C52   H51   S    
C19   N2    A    
C12   C23   S    
C43   H27   S    
C47   H36   S    
C57   O6    S    
C43   H26   S    
C20   H4    S    
C35   C37   A    
C9    C16   A    
C24   C26   D    
C44   O3    S    
C49   H39   S    
C38   C39   S    
H49   N4    S    
C15   C25   S    
C27   C29   A    
C52   H50   S    
C59   H65   S    
C18   C21   A    
C14   O12   A    
C33   C36   A    
C60   C62   A    
C49   C50   S    
C22   H1    S    
C46   C47   S    
C51   N3    S    
C8    H45   S    
C35   H8    S    
C51   H46   S    
C56   H10   S    
C22   C25   D    
C25   H5    S    
C50   H43   S    
C40   H18   S    
C62   H11   S    
C42   H24   S    
C23   C27   A    
C18   C20   A    
C44   H30   S    
C53   H54   S    
C33   H7    S    
C5    H23   S    
O7    Zn1   S    
C55   H60   S    
C28   C34   A    
C50   H41   S    
C51   H47   S    
C54   H57   S    
C17   H70   S    
C9    H56   S    
C29   O3    S    
C44   C46   S    
C1    C34   S    
C55   H58   S    
C48   H38   S    
C43   H28   S    
C30   O4    S    
C48   O4    S    
C32   C35   A    
C40   H20   S    
C28   O2    S    
C45   C56   A    
C4    C6    A    
O13   Zn2   S    
C49   H40   S    
C5    C7    A    
C58   C59   S    
C53   C54   S    
C41   H22   S    
C17   C21   A    
C56   C60   A    
C3    N1    A    
C39   H17   S    
C12   O9    A    
O11   Zn1   S    
C39   H16   S    
C57   H61   S    
C46   H32   S    
C4    O6    S    
N2    Zn2   S    
C31   C33   A    
C37   N4    S    
C13   C21   S    
C14   C26   S    
C9    C11   A    
C41   O2    S    
C44   H29   S    
C8    C10   A    
C48   C49   S    
C58   H64   S    
C51   H48   S    
C6    H34   S    
C52   N4    S    
C22   C24   S    
C4    N1    A    
C42   C43   S    
C32   C60   S    
C36   N3    S    
C15   O13   A    
C1    O1    A    
C48   H37   S    
C54   C55   S    
H44   N3    S    
C40   H19   S    
C7    C16   S    
O12   Zn2   S    
C3    C5    A    
C10   C13   A    
C11   H69   S    
C53   H53   S    
C2    C61   A    
C6    C7    A    
C38   H15   S    
C52   H52   S    
C27   O14   S    
C14   O10   A    
C47   H35   S    
C12   O7    A    
C26   H6    S    
C28   C30   A    
C59   H66   S    
C10   H67   S    
C29   C31   A    
C1    O8    A    
C57   H62   S    
C15   O11   A    
C11   C13   A    
C18   H2    S    
C57   C58   S    
C46   H31   S    
C45   C61   A    
C17   C19   A    
C19   H3    S    
C53   O5    S    
O9    Zn2   S    
O10   Zn1   S    
C39   C40   S    
C2    C62   A    
C58   H63   S    
C8    C16   A    
C23   C36   A    
C54   H55   S    
C47   H33   S    
O1    Zn1   S    
C42   H25   S    
C20   N2    A    
C38   O14   S    
C2    H13   S    
O8    Zn2   S    
N1    Zn1   S    
C41   H21   S    
