data_mof_unit_47014.cif
_audit_creation_date              2013-03-05T15:42:54-0500
_audit_creation_method            fapswitch 2.2
_symmetry_space_group_name_H-M    P1
_symmetry_Int_Tables_number       1
_space_group_crystal_system       triclinic
_cell_length_a                    15.08061
_cell_length_b                    10.922891
_cell_length_c                    9.706766
_cell_angle_alpha                 90.306324
_cell_angle_beta                  90.320749
_cell_angle_gamma                 89.890911
_cell_volume                      1598.88524275

loop_
_atom_site_label
_atom_site_type_symbol
_atom_site_description
_atom_site_fract_x
_atom_site_fract_y
_atom_site_fract_z
_atom_type_partial_charge
O1    O     O_R   0.500020 0.321960 0.617040 -0.515629
O2    O     O_R   0.499980 0.321920 0.382900 -0.566469
C1    C     C_R   0.496795 0.265590 0.499658 0.760534
O3    O     O_R   0.370270 0.499990 0.617090 -0.600262
O4    O     O_R   0.370240 0.499950 0.382940 -0.538501
C2    C     C_R   0.328850 0.502783 0.499587 0.832157
Cu1   Cu    Cu3+1 0.500020 0.500020 0.638630 1.034371
Cu2   Cu    Cu3+1 0.499980 0.499980 0.361370 1.073311
O5    O     O_R   0.500020 0.678080 0.617100 -0.592447
O6    O     O_R   0.499980 0.678040 0.382960 -0.587720
O7    O     O_R   0.629760 0.500050 0.617060 -0.544080
O8    O     O_R   0.629730 0.500010 0.382910 -0.563596
C3    C     C_R   0.502466 0.734515 0.500376 0.827184
C4    C     C_R   0.671149 0.496915 0.500454 0.852260
C5    C     C_R   0.812969 0.553035 0.396235 -0.262365
C6    C     C_R   0.767929 0.492864 0.501498 -0.169566
C7    C     C_R   0.815302 0.432909 0.607623 0.285673
C8    C     C_R   0.908658 0.435670 0.607652 -0.009365
C9    C     C_R   0.953377 0.498015 0.501059 0.041207
C10   C     C_R   0.905046 0.556712 0.395627 0.112511
C11   C     C_R   0.958505 0.376181 0.710450 -0.135697
C12   C     C_R   0.050667 0.380509 0.709453 -0.200070
C13   C     C_R   0.095010 0.442709 0.604879 0.118195
C14   C     C_R   0.046656 0.501368 0.499433 0.042062
C15   C     C_R   0.091332 0.563946 0.392964 -0.012046
C16   C     C_R   0.041468 0.623865 0.290503 -0.143027
C17   C     C_R   0.949334 0.619480 0.291472 -0.187280
C18   C     C_R   0.187119 0.446190 0.604009 -0.304131
C19   C     C_R   0.232085 0.506530 0.498722 -0.170127
C20   C     C_R   0.184655 0.566786 0.392929 0.310353
H1    H     H_    0.775968 0.599563 0.315798 0.177870
H2    H     H_    0.926965 0.325754 0.792244 0.201700
H3    H     H_    0.087336 0.334830 0.790670 0.155261
H4    H     H_    0.224185 0.399621 0.684350 0.174815
H5    H     H_    0.072937 0.674814 0.209067 0.199980
H6    H     H_    0.912603 0.665819 0.210770 0.158778
C21   C     C_2   0.501164 0.932864 0.388685 -0.125737
C22   C     C_2   0.511312 0.866104 0.502793 -0.246899
H7    H     H_    0.490158 0.889328 0.289179 0.181894
H8    H     H_    0.529165 0.907834 0.600696 0.209146
C23   C     C_2   0.509296 0.066197 0.392306 -0.230200
C24   C     C_2   0.482231 0.134412 0.499980 0.308245
H9    H     H_    0.536943 0.109526 0.301682 0.190797
C25   C     C_2   0.441079 0.555072 0.921740 -0.021620
N1    N     N_2   0.499020 0.498660 0.846910 -0.255332
H10   H     H_    0.385153 0.599059 0.871555 0.159469
H11   H     H_    0.558569 0.476275 0.892306 0.263772
C26   C     C_2   0.450235 0.568788 0.075786 0.035445
N2    N     N_2   0.499000 0.498630 0.153040 -0.072899
H12   H     H_    0.414580 0.643641 0.124198 0.164314
O9    O     O_3   0.439300 0.083048 0.611578 -0.592996
C27   C     C_3   0.347286 0.104086 0.597336 0.068521
H13   H     H_    0.322302 0.066484 0.497319 0.159295
H14   H     H_    0.332328 0.203952 0.603102 0.128902
C28   C     C_3   0.298982 0.039809 0.714309 -0.292908
H15   H     H_    0.313918 0.940125 0.710501 0.228712
H16   H     H_    0.322831 0.076826 0.814779 0.246273
C29   C     C_3   0.198886 0.058501 0.703519 -0.888659
H17   H     H_    0.182498 0.157565 0.707866 0.249587
H18   H     H_    0.165803 0.012006 0.790693 0.267151
H19   H     H_    0.173238 0.019072 0.605396 0.267374
N3    N     N_R   0.519492 0.382798 0.101324 0.234480
O10   O     O_R   0.597193 0.336188 0.127090 -0.309392
O11   O     O_R   0.456590 0.310949 0.056769 -0.344871
N4    N     N_R   0.768829 0.366557 0.712061 0.119765
O12   O     O_R   0.770612 0.404632 0.839285 -0.344763
O13   O     O_R   0.719979 0.272854 0.678512 -0.342149
N5    N     N_R   0.231035 0.633698 0.288862 0.108735
O14   O     O_R   0.279605 0.727561 0.322863 -0.393388
O15   O     O_R   0.228421 0.597019 0.161153 -0.385915

loop_
_geom_bond_atom_site_label_1
_geom_bond_atom_site_label_2
_geom_bond_distance
_ccdc_geom_bond_type
O4    Cu2   1.968895 S    
Cu1   O7    1.968897 S    
C13   C14   1.409537 A    
C1    C24   1.450011 S    
C5    H1    1.085151 S    
C19   C20   1.412990 A    
C20   N5    1.435812 S    
C10   C17   1.398205 A    
C17   H6    1.083977 S    
C8    C11   1.407007 A    
C23   C24   1.345156 D    
C7    N4    1.435930 S    
C9    C10   1.409446 A    
C27   C28   1.527260 S    
O8    C4    1.298255 A    
C24   O9    1.386764 S    
Cu2   O8    1.966685 S    
C28   H15   1.111939 S    
C26   H12   1.084192 S    
C9    C14   1.407422 A    
C16   C17   1.390440 A    
C18   H4    1.085203 S    
Cu1   Cu2   2.691293 S    
C21   H7    1.086373 S    
C15   C16   1.407009 A    
O1    Cu1   1.955074 S    
C11   C12   1.390845 A    
C14   C15   1.416440 A    
C22   H8    1.084590 S    
C23   H9    1.086709 S    
C3    C22   1.443815 S    
N3    O10   1.300232 A    
C29   H19   1.111035 S    
O3    Cu1   1.966683 S    
Cu1   N1    2.021999 S    
O3    C2    1.297815 A    
C26   N2    1.299326 D    
C11   H2    1.081615 S    
C21   C22   1.337280 D    
C27   H14   1.114657 S    
C7    C8    1.408255 A    
O2    C1    1.293647 A    
C28   H16   1.111909 S    
C21   C23   1.461982 S    
O4    C2    1.296170 A    
N5    O14   1.301194 A    
O7    C4    1.295883 A    
C4    C6    1.460068 S    
C28   C29   1.525960 S    
N4    O12   1.301123 A    
C29   H18   1.110459 S    
O9    C27   1.412233 S    
C25   C26   1.507575 S    
C16   H5    1.081522 S    
C2    C19   1.459753 S    
C27   H13   1.115983 S    
Cu2   O6    1.955074 S    
C8    C9    1.416398 A    
N1    H11   1.027765 S    
C15   C20   1.407783 A    
Cu1   O5    1.957235 S    
N5    O15   1.301139 A    
O5    C3    1.293477 A    
C12   C13   1.398519 A    
C18   C19   1.398352 A    
N3    O11   1.302845 A    
N2    N3    1.393466 S    
N4    O13   1.301127 A    
C29   H17   1.110106 S    
C13   C18   1.389722 A    
Cu2   N2    2.022157 S    
C5    C10   1.389282 A    
O2    Cu2   1.957235 S    
C25   N1    1.292690 D    
C5    C6    1.397848 A    
C25   H10   1.084350 S    
C6    C7    1.413367 A    
O1    C1    1.292948 A    
O6    C3    1.293450 A    
C12   H3    1.083754 S    
