data_mof_unit_14522.cif
_audit_creation_date              2012-12-11T14:52:42-0500
_audit_creation_method            fapswitch 2.2
_symmetry_space_group_name_H-M    P1
_symmetry_Int_Tables_number       1
_space_group_crystal_system       triclinic
_cell_length_a                    20.524226
_cell_length_b                    7.274924
_cell_length_c                    20.417922
_cell_angle_alpha                 89.783385
_cell_angle_beta                  101.351815
_cell_angle_gamma                 89.763904
_cell_volume                      2988.94591154

loop_
_atom_site_label
_atom_site_type_symbol
_atom_type_description
_atom_site_fract_x
_atom_site_fract_y
_atom_site_fract_z
_atom_type_partial_charge
O1    O     O_R   0.673670 0.377510 0.185950 -0.543835
O2    O     O_R   0.326330 0.622490 0.814050 -0.544195
O3    O     O_R   0.826330 0.877510 0.314050 -0.518223
O4    O     O_R   0.173670 0.122490 0.685950 -0.524162
O5    O     O_R   0.806260 0.705340 0.185590 -0.529976
O6    O     O_R   0.193740 0.294660 0.814410 -0.529799
O7    O     O_R   0.693740 0.205340 0.314410 -0.540572
O8    O     O_R   0.306260 0.794660 0.685590 -0.537401
C1    C     C_R   0.825444 0.538879 0.170700 0.730650
C2    C     C_R   0.174494 0.461095 0.829241 0.726203
C3    C     C_R   0.674601 0.038893 0.329327 0.728406
C4    C     C_R   0.325614 0.961037 0.670877 0.718101
O9    O     O_R   0.672940 0.707120 0.178050 -0.523864
O10   O     O_R   0.327060 0.292880 0.821950 -0.523837
O11   O     O_R   0.827060 0.207120 0.321950 -0.547883
O12   O     O_R   0.172940 0.792880 0.678050 -0.539990
O13   O     O_R   0.692060 0.879040 0.306460 -0.528155
O14   O     O_R   0.307940 0.120960 0.693540 -0.526781
O15   O     O_R   0.807940 0.379040 0.193540 -0.538981
O16   O     O_R   0.192060 0.620960 0.806460 -0.537891
C5    C     C_R   0.649968 0.539085 0.160239 0.768132
C6    C     C_R   0.350100 0.460898 0.839685 0.767549
C7    C     C_R   0.850047 0.037732 0.339708 0.768640
C8    C     C_R   0.149453 0.962144 0.660946 0.764734
O17   O     O_3   0.756430 0.544390 0.292140 -0.382432
O18   O     O_3   0.243570 0.455610 0.707860 -0.382026
O19   O     O_3   0.743570 0.044390 0.207860 -0.383325
O20   O     O_3   0.256430 0.955610 0.792140 -0.382634
V1    V     V_3+5 0.748810 0.818610 0.242180 1.508012
V2    V     V_3+5 0.251190 0.181390 0.757820 1.503275
V3    V     V_3+5 0.751190 0.318610 0.257820 1.447105
V4    V     V_3+5 0.248810 0.681390 0.742180 1.450910
C9    C     C_R   0.088703 0.976522 0.607920 -0.197988
C10   C     C_R   0.910695 0.023376 0.392941 -0.200142
C11   C     C_R   0.410539 0.467749 0.893303 -0.196279
C12   C     C_R   0.589579 0.532267 0.106561 -0.198477
C13   C     C_R   0.025322 0.918874 0.423177 -0.235732
C14   C     C_R   0.973348 0.074649 0.578215 -0.233276
C15   C     C_R   0.471845 0.601367 0.072986 -0.231733
C16   C     C_R   0.528319 0.398966 0.926811 -0.231789
C17   C     C_R   0.967790 0.948686 0.375440 0.578130
C18   C     C_R   0.031198 0.047128 0.625782 0.572503
C19   C     C_R   0.530327 0.601337 0.120925 0.576989
C20   C     C_R   0.469822 0.399045 0.878869 0.573155
C21   C     C_R   0.911165 0.067909 0.460810 0.046974
C22   C     C_R   0.088119 0.931563 0.540140 0.039558
C23   C     C_R   0.590367 0.462359 0.041732 0.048705
C24   C     C_R   0.409760 0.537473 0.958151 0.048434
C25   C     C_R   0.970498 0.035432 0.510123 0.013251
C26   C     C_R   0.028463 0.961151 0.491034 0.007892
C27   C     C_R   0.530116 0.464992 0.992015 0.012839
C28   C     C_R   0.470035 0.535066 0.007822 0.012125
H1    H     H_    0.066980 0.859965 0.405527 0.162858
H2    H     H_    0.931040 0.127500 0.596336 0.162201
H3    H     H_    0.428145 0.654364 0.088512 0.163184
H4    H     H_    0.572043 0.346232 0.911256 0.161983
C29   C     C_3   0.563033 0.030372 0.536954 -0.173199
C30   C     C_3   0.440305 0.962840 0.466043 -0.218318
C31   C     C_3   0.937449 0.532742 0.963470 -0.173393
C32   C     C_3   0.060174 0.460999 0.034428 -0.219860
C33   C     C_3   0.520577 0.857950 0.545312 -0.183183
C34   C     C_3   0.482484 0.135231 0.457875 -0.215747
C35   C     C_3   0.979950 0.359616 0.955115 -0.179396
C36   C     C_3   0.017938 0.634089 0.042606 -0.215108
H5    H     H_    0.536301 0.745590 0.581898 0.123145
H6    H     H_    0.466010 0.247161 0.421328 0.131245
H7    H     H_    0.964276 0.248420 0.918505 0.126605
H8    H     H_    0.034376 0.744816 0.079182 0.134531
H9    H     H_    0.613618 0.059319 0.565871 0.117969
H10   H     H_    0.389875 0.933506 0.436823 0.125663
H11   H     H_    0.886868 0.563411 0.934530 0.118901
H12   H     H_    0.110621 0.429976 0.063634 0.125909
C37   C     C_1   0.371538 0.967528 0.625310 -0.163274
C38   C     C_1   0.629451 0.031781 0.375634 -0.160921
C39   C     C_1   0.128760 0.467717 0.874980 -0.155896
C40   C     C_1   0.870732 0.531788 0.124530 -0.159577
C41   C     C_3   0.500818 0.152656 0.534840 0.199667
C42   C     C_3   0.502559 0.840463 0.468319 0.191357
C43   C     C_3   0.999636 0.653669 0.965642 0.196995
C44   C     C_3   0.997938 0.339985 0.032105 0.188593
C45   C     C_3   0.458935 0.982628 0.542656 0.128279
C46   C     C_3   0.544080 0.011102 0.460214 0.133677
C47   C     C_3   0.041563 0.482938 0.957820 0.128597
C48   C     C_3   0.956362 0.511312 0.040206 0.133021
C49   C     C_1   0.410648 0.972413 0.587798 -0.044383
C50   C     C_1   0.591199 0.024782 0.413981 -0.042024
C51   C     C_1   0.089779 0.472680 0.912616 -0.039762
C52   C     C_1   0.909116 0.524887 0.086315 -0.041060
C53   C     C_3   0.151391 0.858175 0.520769 -0.339120
C54   C     C_3   0.149648 0.648990 0.514426 -0.702639
H13   H     H_    0.145878 0.584666 0.562947 0.236577
H14   H     H_    0.106730 0.604319 0.475924 0.223243
H15   H     H_    0.196080 0.599794 0.499935 0.203875
H16   H     H_    0.159606 0.923050 0.473838 0.170159
H17   H     H_    0.196361 0.895642 0.557943 0.150866
C55   C     C_3   0.847891 0.141177 0.480309 -0.349744
C56   C     C_3   0.809542 0.987093 0.506538 -0.762420
H18   H     H_    0.794555 0.882104 0.467129 0.220046
H19   H     H_    0.840241 0.920152 0.551137 0.236902
H20   H     H_    0.763982 0.044305 0.520603 0.214598
H21   H     H_    0.859061 0.253343 0.517381 0.177907
H22   H     H_    0.814145 0.207124 0.437710 0.179329
C57   C     C_3   0.344483 0.606745 0.974400 -0.347399
C58   C     C_3   0.311908 0.459167 0.010340 -0.761574
H23   H     H_    0.300264 0.336749 0.977834 0.220410
H24   H     H_    0.345053 0.416913 0.057760 0.238812
H25   H     H_    0.264833 0.513578 0.021909 0.215437
H26   H     H_    0.352016 0.734785 0.004169 0.178066
H27   H     H_    0.308257 0.647674 0.929042 0.177705
C59   C     C_3   0.655611 0.392463 0.025589 -0.346584
C60   C     C_3   0.688548 0.539842 0.989910 -0.765004
H28   H     H_    0.655605 0.582538 0.942428 0.237888
H29   H     H_    0.700249 0.662042 0.022519 0.220742
H30   H     H_    0.735632 0.485011 0.978492 0.215192
H31   H     H_    0.691650 0.350838 0.070990 0.177521
H32   H     H_    0.647950 0.264695 0.995673 0.177681
F1    F     F_    0.030958 0.089882 0.690462 -0.697657
F2    F     F_    0.967836 0.903215 0.310961 -0.689689
F3    F     F_    0.471339 0.332813 0.817048 -0.700159
F4    F     F_    0.528822 0.667937 0.182694 -0.689858
C61   C     C_3   0.500871 0.661587 0.429015 -0.371094
C62   C     C_3   0.569947 0.576218 0.434400 -0.722984
H33   H     H_    0.597407 0.573371 0.486951 0.212271
H34   H     H_    0.565254 0.433609 0.415133 0.223341
H35   H     H_    0.599312 0.654625 0.403788 0.241311
H36   H     H_    0.467898 0.563919 0.448502 0.166119
H37   H     H_    0.479211 0.689146 0.375610 0.205432
C63   C     C_3   0.500104 0.333481 0.572511 -0.420357
C64   C     C_3   0.524059 0.309633 0.647709 -0.657839
H38   H     H_    0.490611 0.217139 0.668886 0.256237
H39   H     H_    0.575313 0.252426 0.658760 0.212875
H40   H     H_    0.524360 0.445486 0.672375 0.229700
H41   H     H_    0.533582 0.430839 0.554054 0.188681
H42   H     H_    0.448978 0.391737 0.562230 0.188390
C65   C     C_3   0.999652 0.160208 0.071400 -0.372057
C66   C     C_3   0.930579 0.076574 0.066078 -0.721639
H43   H     H_    0.901292 0.154831 0.096814 0.238007
H44   H     H_    0.903029 0.075774 0.013558 0.211548
H45   H     H_    0.935279 0.933351 0.085246 0.228331
H46   H     H_    0.032604 0.062195 0.051881 0.167344
H47   H     H_    0.021359 0.186093 0.124796 0.200488
C67   C     C_3   0.000349 0.835388 0.928036 -0.404946
C68   C     C_3   0.976375 0.813954 0.852835 -0.683620
H48   H     H_    0.009790 0.721134 0.831615 0.240226
H49   H     H_    0.925104 0.758290 0.841775 0.215182
H50   H     H_    0.976109 0.950415 0.828226 0.242128
H51   H     H_    0.966879 0.933064 0.946534 0.187615
H52   H     H_    0.051479 0.892213 0.938329 0.188032

loop_
_geom_bond_atom_site_label_1
_geom_bond_atom_site_label_2
_ccdc_geom_bond_type
O17   V3    S    
C68   H50   S    
C47   C51   S    
C30   C34   S    
C55   H22   S    
O19   V1    S    
O13   V1    S    
C34   C41   S    
O3    C7    A    
C60   H28   S    
C44   C48   S    
O15   V3    S    
C63   C64   S    
C58   H24   S    
C56   H18   S    
C65   C66   S    
C5    C12   S    
O1    C5    A    
C6    C11   S    
C44   C65   S    
C9    C18   A    
C36   H8    S    
O9    V1    S    
C14   C18   A    
O4    C8    A    
C32   C47   S    
C43   C67   S    
C32   H12   S    
C68   H48   S    
O1    V3    S    
C12   C23   A    
O2    V4    S    
C53   H16   S    
O3    V1    S    
C42   C61   S    
C59   C60   S    
C36   C48   S    
C1    O15   A    
C15   H3    S    
C2    O16   A    
C16   H4    S    
O2    C6    A    
C57   H26   S    
O14   V2    S    
C1    C40   S    
C41   C45   S    
C17   F2    S    
C40   C52   T    
C16   C20   A    
C19   F4    S    
C64   H40   S    
C13   H1    S    
O11   C7    A    
C15   C28   A    
C34   C46   S    
O12   C8    A    
C4    C37   S    
C9    C22   A    
C10   C17   A    
O10   V2    S    
C66   H45   S    
C11   C24   A    
C58   H23   S    
C56   H19   S    
O5    V1    S    
C35   C44   S    
C65   H46   S    
C35   H7    S    
O7    V3    S    
C34   H6    S    
C27   C28   A    
O8    V4    S    
C67   H52   S    
C31   C48   S    
C66   H44   S    
C30   C45   S    
C31   C43   S    
C14   C25   A    
O18   V4    S    
C30   H10   S    
C15   C19   A    
C20   F3    S    
C46   C50   S    
C24   C57   S    
C35   C47   S    
C53   H17   S    
O7    C3    A    
O5    C1    A    
C63   H42   S    
C2    C39   S    
C42   C46   S    
C54   H14   S    
C14   H2    S    
C24   C28   A    
C33   C42   S    
O8    C4    A    
C7    C10   S    
C55   C56   S    
C21   C25   A    
O9    C5    A    
C60   H29   S    
C10   C21   A    
C38   C50   T    
O11   V3    S    
C11   C20   A    
C37   C49   T    
C61   C62   S    
C41   C63   S    
C39   C51   T    
O6    V2    S    
C36   C43   S    
C62   H34   S    
C23   C59   S    
C59   H32   S    
C56   H20   S    
C54   H15   S    
C64   H38   S    
O16   V4    S    
C68   H49   S    
C32   C44   S    
C67   C68   S    
C67   H51   S    
C48   C52   S    
C66   H43   S    
C3    C38   S    
C3    O13   A    
O6    C2    A    
C23   C27   A    
C18   F1    S    
C29   C33   S    
O12   V4    S    
C16   C27   A    
C22   C26   A    
C31   C35   S    
C8    C9    S    
C57   H27   S    
C32   C36   S    
C22   C53   S    
O10   C6    A    
C29   C41   S    
O20   V2    S    
C53   C54   S    
C61   H36   S    
C33   C45   S    
C63   H41   S    
C43   C47   S    
C13   C26   A    
C54   H13   S    
C62   H35   S    
C61   H37   S    
C60   H30   S    
C13   C17   A    
O4    V2    S    
C30   C42   S    
C33   H5    S    
C65   H47   S    
C25   C26   A    
C4    O14   A    
C57   C58   S    
C29   C46   S    
C12   C19   A    
C29   H9    S    
C62   H33   S    
C55   H21   S    
C21   C55   S    
C59   H31   S    
C58   H25   S    
C45   C49   S    
C31   H11   S    
C64   H39   S    
