data_mof_unit_41632.cif
_audit_creation_date              2012-12-10T17:31:12-0500
_audit_creation_method            fapswitch 2.2
_symmetry_space_group_name_H-M    P1
_symmetry_Int_Tables_number       1
_space_group_crystal_system       triclinic
_cell_length_a                    12.125913
_cell_length_b                    12.848877
_cell_length_c                    15.487493
_cell_angle_alpha                 84.849695
_cell_angle_beta                  115.120125
_cell_angle_gamma                 94.366192
_cell_volume                      2174.03911644

loop_
_atom_site_label
_atom_site_type_symbol
_atom_type_description
_atom_site_fract_x
_atom_site_fract_y
_atom_site_fract_z
_atom_type_partial_charge
C1    C     C_R   0.477551 0.299586 0.500063 0.880154
C2    C     C_R   0.663219 0.969366 0.541901 -0.223322
C3    C     C_R   0.347965 0.137632 0.467401 -0.204601
C4    C     C_R   0.652232 0.862340 0.533230 -0.208645
C5    C     C_R   0.568560 0.131332 0.527204 -0.278768
C6    C     C_R   0.431661 0.868660 0.473551 -0.276569
C7    C     C_R   0.558490 0.025283 0.517871 0.187646
C8    C     C_R   0.441762 0.974675 0.483020 0.186948
C9    C     C_R   0.013802 0.609263 0.417808 -0.328844
C10   C     C_R   0.985672 0.389922 0.581429 -0.335645
C11   C     C_R   0.131329 0.597607 0.425262 -0.035098
C12   C     C_R   0.522505 0.700415 0.500067 0.877842
C13   C     C_R   0.868672 0.402417 0.574812 -0.040344
C14   C     C_R   0.155494 0.450024 0.535240 0.299974
C15   C     C_R   0.843928 0.548946 0.463697 0.301632
C16   C     C_R   0.575347 0.493244 0.680035 0.896778
C17   C     C_R   0.424143 0.503536 0.320105 0.899667
C18   C     C_R   0.035669 0.459177 0.529374 0.053171
C19   C     C_R   0.963930 0.540006 0.469930 0.053081
C20   C     C_R   0.617569 0.473010 0.783154 -0.125787
C21   C     C_R   0.376266 0.494093 0.217259 -0.136437
C22   C     C_R   0.763467 0.403872 0.937600 0.483791
C23   C     C_R   0.621190 0.397725 0.108164 -0.252144
C24   C     C_R   0.210517 0.490325 0.058979 0.480868
C25   C     C_R   0.733874 0.437397 0.841725 -0.310525
C26   C     C_R   0.251882 0.499984 0.157154 -0.276735
C27   C     C_R   0.532504 0.478301 0.820575 -0.269720
C28   C     C_R   0.457950 0.472936 0.180283 -0.271573
C29   C     C_R   0.556923 0.441989 0.913868 0.028382
C30   C     C_R   0.418582 0.455120 0.084304 0.035661
C31   C     C_R   0.676133 0.410052 0.974728 0.049661
C32   C     C_R   0.294013 0.468472 0.022007 0.041821
C33   C     C_R   0.466522 0.442173 0.948850 0.106808
C34   C     C_R   0.341350 0.452329 0.887704 -0.247738
C35   C     C_R   0.502545 0.431346 0.048263 0.107177
C36   C     C_3   0.902474 0.276558 0.971200 0.126521
C37   C     C_3   0.856423 0.184560 0.018982 -0.398829
C38   C     C_3   0.888145 0.080030 0.997512 -0.946562
C39   C     C_3   0.059029 0.600780 0.964740 0.081892
C40   C     C_3   0.995590 0.648970 0.017645 -0.314926
C41   C     C_3   0.949566 0.756733 0.972584 -0.971138
C42   C     C_3   0.767948 0.634640 0.396370 -0.884920
C43   C     C_3   0.229866 0.361694 0.599373 -0.880823
C44   C     C_R   0.705527 0.385205 0.071418 -0.215957
C45   C     C_R   0.256142 0.462094 0.924034 -0.225512
C46   C     C_R   0.536545 0.812212 0.500661 -0.051054
C47   C     C_R   0.463628 0.187785 0.499840 -0.050153
C48   C     C_R   0.337021 0.030581 0.458958 -0.222017
H1    H     H_    0.795036 0.358921 0.119781 0.186727
H2    H     H_    0.801034 0.434589 0.813166 0.167850
H3    H     H_    0.649769 0.377062 0.183458 0.153873
H4    H     H_    0.306262 0.450182 0.811293 0.147275
H5    H     H_    0.341791 0.829939 0.446681 0.153536
H6    H     H_    0.658411 0.170091 0.554034 0.152843
H7    H     H_    0.733656 0.818723 0.554211 0.163589
H8    H     H_    0.266514 0.181250 0.446279 0.164628
H9    H     H_    0.247277 0.991880 0.432679 0.138123
H10   H     H_    0.752969 0.008058 0.568206 0.137221
H11   H     H_    0.002760 0.272168 0.997239 0.188898
H12   H     H_    0.161316 0.469298 0.874518 0.173574
H13   H     H_    0.863252 0.269472 0.892478 0.111195
H14   H     H_    0.898394 0.191471 0.097590 0.230647
H15   H     H_    0.755832 0.186436 0.992594 0.220005
H16   H     H_    0.845413 0.070725 0.919284 0.265163
H17   H     H_    0.853497 0.015098 0.032903 0.267410
H18   H     H_    0.988540 0.075181 0.024946 0.263894
H19   H     H_    0.994896 0.598730 0.888030 0.161877
H20   H     H_    0.139260 0.651841 0.967599 0.111954
H21   H     H_    0.917079 0.597045 0.015694 0.254824
H22   H     H_    0.060425 0.656797 0.093481 0.202605
H23   H     H_    0.832696 0.348848 0.615491 0.132656
H24   H     H_    0.026706 0.810575 0.974709 0.265112
H25   H     H_    0.904939 0.789781 0.012924 0.267782
H26   H     H_    0.881890 0.750730 0.897248 0.268454
H27   H     H_    0.675644 0.635938 0.390294 0.293034
H28   H     H_    0.812425 0.712118 0.420194 0.212927
H29   H     H_    0.758470 0.625234 0.322912 0.211925
H30   H     H_    0.324078 0.363763 0.609376 0.293795
H31   H     H_    0.235203 0.364326 0.672304 0.200139
H32   H     H_    0.186707 0.285629 0.570282 0.216711
H33   H     H_    0.167424 0.651442 0.384845 0.133640
H34   H     H_    0.963642 0.673302 0.370978 0.165576
H35   H     H_    0.035233 0.325264 0.627589 0.165316
H36   H     H_    0.553851 0.473848 0.227074 0.179048
H37   H     H_    0.447086 0.513521 0.775939 0.178439
H38   H     H_    0.187185 0.513150 0.185890 0.175450
N1    N     N_R   0.799120 0.480200 0.517090 -0.097027
N2    N     N_R   0.200880 0.519800 0.482910 -0.096903
O1    O     O_R   0.580150 0.341050 0.504560 -0.621384
O2    O     O_3   0.087368 0.496196 0.000461 -0.627792
O3    O     O_R   0.419850 0.658950 0.495440 -0.621026
O4    O     O_R   0.388090 0.353760 0.493600 -0.630479
O5    O     O_R   0.611910 0.646240 0.506400 -0.631802
O6    O     O_R   0.650890 0.490020 0.640860 -0.617418
O7    O     O_R   0.349110 0.509980 0.359140 -0.615870
O8    O     O_R   0.458830 0.502730 0.629890 -0.625502
O9    O     O_R   0.541170 0.497270 0.370110 -0.625599
O10   O     O_3   0.880120 0.373011 0.997290 -0.624987
Zn1   Zn    Zn3+2 0.628240 0.491510 0.507320 0.929630
Zn2   Zn    Zn3+2 0.371760 0.508490 0.492680 0.933355

loop_
_geom_bond_atom_site_label_1
_geom_bond_atom_site_label_2
_ccdc_geom_bond_type
C44   H1    S    
C21   C26   A    
C45   H12   S    
C22   O10   S    
C16   O6    A    
C28   H36   S    
C39   H20   S    
C14   C18   A    
C12   O3    A    
C2    C7    A    
C36   H11   S    
C40   H21   S    
C8    C48   A    
C37   H14   S    
C7    C8    A    
C4    C46   A    
C11   H33   S    
C43   H30   S    
C15   C19   A    
C5    C47   A    
C42   H27   S    
C40   H22   S    
C30   C35   A    
O1    Zn1   S    
C36   C37   S    
C24   C26   A    
C27   C29   A    
C20   C25   A    
C43   H31   S    
C29   C33   A    
C3    C48   A    
C18   C19   A    
C32   C45   A    
C27   H37   S    
C25   H2    S    
C34   H4    S    
O9    Zn1   S    
C41   H26   S    
C9    C19   A    
C38   H18   S    
C22   C25   A    
C17   O7    A    
O3    Zn2   S    
O5    Zn1   S    
C39   O2    S    
N1    Zn1   S    
C26   H38   S    
C9    H34   S    
C37   H15   S    
C38   H16   S    
C16   O8    A    
C22   C31   A    
C5    H6    S    
C48   H9    S    
C12   C46   S    
C31   C44   A    
C39   C40   S    
C5    C7    A    
O7    Zn2   S    
C1    C47   S    
C6    C8    A    
C13   H23   S    
C43   H32   S    
C17   C21   S    
C10   H35   S    
C2    C4    A    
C24   C32   A    
C37   C38   S    
C3    H8    S    
C23   H3    S    
C38   H17   S    
C11   N2    A    
C16   C20   S    
C13   N1    A    
C33   C34   A    
C34   C45   A    
C9    C11   A    
N2    Zn2   S    
C41   H24   S    
C40   C41   S    
C21   C28   A    
C1    O4    A    
C23   C35   A    
C4    H7    S    
C12   O5    A    
C6    H5    S    
C36   H13   S    
O4    Zn2   S    
C15   N1    A    
C1    O1    A    
C6    C46   A    
C39   H19   S    
C15   C42   S    
C10   C13   A    
C24   O2    S    
C2    H10   S    
C20   C27   A    
C42   H28   S    
C28   C30   A    
C14   N2    A    
C29   C31   A    
C30   C32   A    
O6    Zn1   S    
C10   C18   A    
O8    Zn2   S    
C3    C47   A    
C33   C35   A    
C23   C44   A    
C41   H25   S    
C42   H29   S    
C36   O10   S    
C17   O9    A    
C14   C43   S    
