data_mof_unit_16543.cif
_audit_creation_date              2012-12-10T19:08:07-0500
_audit_creation_method            fapswitch 2.2
_symmetry_space_group_name_H-M    P1
_symmetry_Int_Tables_number       1
_space_group_crystal_system       triclinic
_cell_length_a                    9.070268
_cell_length_b                    10.834188
_cell_length_c                    9.607559
_cell_angle_alpha                 90.797029
_cell_angle_beta                  89.544746
_cell_angle_gamma                 90.808117
_cell_volume                      943.911507444

loop_
_atom_site_label
_atom_site_type_symbol
_atom_type_description
_atom_site_fract_x
_atom_site_fract_y
_atom_site_fract_z
_atom_type_partial_charge
C1    C     C_R   0.494532 0.262805 0.499224 0.828762
C2    C     C_R   0.420911 0.933273 0.382679 0.445280
C3    C     C_R   0.470562 0.870437 0.502307 -0.259540
C4    C     C_R   0.487279 0.940866 0.623514 -0.056654
C5    C     C_3   0.574600 0.941296 0.756289 0.897173
C6    C     C_3   0.573363 0.083939 0.753446 -0.560213
C7    C     C_R   0.625904 0.525115 0.072237 0.179507
C8    C     C_R   0.382300 0.456559 0.075579 -0.196674
C9    C     C_R   0.379504 0.458636 0.926386 0.529330
C10   C     C_R   0.627033 0.520879 0.925852 0.084862
C11   C     C_3   0.725542 0.630335 0.916763 -0.503764
C12   C     C_R   0.220881 0.500282 0.500286 0.823534
C13   C     C_3   0.721610 0.638700 0.075335 0.266101
C14   C     C_R   0.494205 0.737595 0.500859 0.823432
C15   C     C_R   0.779123 0.500201 0.499677 0.832199
C16   C     C_1   0.065618 0.500548 0.500301 -0.206284
C17   C     C_1   0.934418 0.500463 0.499457 -0.212706
C18   C     C_R   0.486672 0.066738 0.622537 -0.036151
C19   C     C_R   0.474404 0.130377 0.499219 -0.120785
C20   C     C_R   0.430440 0.063167 0.379561 -0.308527
Cu1   Cu    Cu3+1 0.499990 0.499980 0.640670 0.986472
Cu2   Cu    Cu3+1 0.500010 0.500020 0.359330 0.973624
H1    H     H_    0.668323 0.705262 0.864943 0.303088
H2    H     H_    0.829231 0.623009 0.126690 0.072095
H3    H     H_    0.680605 0.131664 0.735346 0.164077
H4    H     H_    0.288791 0.420141 0.132692 0.162641
N1    N     N_R   0.500920 0.500930 0.147930 -0.182135
N2    N     N_R   0.500930 0.500890 0.852020 -0.204952
O1    O     O_R   0.500000 0.319640 0.618810 -0.551346
O2    O     O_R   0.500020 0.319680 0.381230 -0.597022
O3    O     O_R   0.288380 0.499980 0.618770 -0.542967
O4    O     O_R   0.288400 0.500020 0.381190 -0.595376
O5    O     O_R   0.499980 0.680320 0.618770 -0.567391
O6    O     O_R   0.500000 0.680360 0.381190 -0.489246
O7    O     O_R   0.711600 0.499980 0.618810 -0.572252
O8    O     O_R   0.711620 0.500020 0.381230 -0.586095
H5    H     H_    0.403931 0.110300 0.284450 0.173386
O9    O     O_3   0.643714 0.742857 0.124690 -0.488541
C21   C     C_3   0.734049 0.850308 0.116614 0.194973
H6    H     H_    0.662493 0.929741 0.094108 0.202673
H7    H     H_    0.818696 0.846605 0.031792 0.128837
C22   C     C_3   0.808594 0.876357 0.255050 -0.912160
H8    H     H_    0.877346 0.797325 0.284123 0.242422
H9    H     H_    0.879175 0.960590 0.247660 0.206986
H10   H     H_    0.724021 0.891185 0.336757 0.264364
O10   O     O_3   0.367289 0.870046 0.267447 -0.541535
C23   C     C_3   0.223033 0.826880 0.299189 0.106412
H11   H     H_    0.146281 0.905920 0.307774 0.120775
H12   H     H_    0.218585 0.774950 0.398475 0.115098
C24   C     C_3   0.169665 0.739421 0.184588 -0.779965
H13   H     H_    0.262969 0.685515 0.141763 0.285017
H14   H     H_    0.085678 0.673939 0.226319 0.192811
H15   H     H_    0.118643 0.792730 0.100610 0.208415
O11   O     O_3   0.499049 0.890707 0.874044 -0.585228
C25   C     C_3   0.345011 0.912174 0.883302 0.053384
H16   H     H_    0.307179 0.995194 0.828241 0.126527
H17   H     H_    0.317588 0.928469 0.994673 0.210851
C26   C     C_3   0.258018 0.798890 0.833143 -0.788138
H18   H     H_    0.140262 0.808954 0.862155 0.180938
H19   H     H_    0.264653 0.788991 0.718424 0.233038
H20   H     H_    0.301081 0.714538 0.881640 0.261957
O12   O     O_3   0.715346 0.885034 0.743142 -0.608021
C27   C     C_3   0.816137 0.938607 0.647756 0.005118
H21   H     H_    0.884873 0.009150 0.702959 0.157501
H22   H     H_    0.762724 0.981804 0.557474 0.146530
C28   C     C_3   0.917100 0.838040 0.593012 -0.810022
H23   H     H_    0.852000 0.768497 0.532964 0.245547
H24   H     H_    0.003603 0.878965 0.525052 0.193329
H25   H     H_    0.970204 0.790808 0.680618 0.248152
H26   H     H_    0.507475 0.127580 0.838247 0.192824
O13   O     O_3   0.261725 0.405319 0.855591 -0.552970
C29   C     C_3   0.124578 0.454758 0.899425 0.050555
H27   H     H_    0.070260 0.494479 0.807539 0.185179
H28   H     H_    0.132017 0.531117 0.978120 0.100465
C30   C     C_3   0.025146 0.351850 0.954715 -0.832618
H29   H     H_    0.076274 0.308268 0.046001 0.235657
H30   H     H_    0.917027 0.390049 0.986937 0.202708
H31   H     H_    0.006840 0.280461 0.872316 0.251911
H32   H     H_    0.835921 0.607643 0.873462 0.152760

loop_
_geom_bond_atom_site_label_1
_geom_bond_atom_site_label_2
_ccdc_geom_bond_type
C7    C10   A    
C28   H24   S    
C25   H16   S    
C27   H22   S    
C8    H4    S    
C19   C20   A    
C14   O5    A    
C21   H7    S    
C2    O10   S    
Cu1   O3    S    
Cu2   O4    S    
C5    C6    S    
C6    H3    S    
Cu1   O5    S    
C26   H19   S    
C7    N1    A    
C15   C17   S    
C18   C19   A    
O10   C23   S    
C12   C16   S    
C8    C9    A    
C24   H14   S    
C21   C22   S    
C4    C18   A    
C26   H20   S    
C28   H23   S    
C27   C28   S    
Cu1   Cu2   S    
C12   O4    A    
C22   H9    S    
C29   C30   S    
Cu2   O6    S    
C15   O7    A    
C23   C24   S    
C6    C18   S    
C1    C19   S    
C24   H15   S    
C2    C20   A    
C5    O11   S    
C29   H28   S    
C21   H6    S    
C4    C5    S    
C26   H18   S    
Cu1   O1    S    
C13   H2    S    
C22   H10   S    
C30   H29   S    
O12   C27   S    
C23   H11   S    
C1    O1    A    
C24   H13   S    
C30   H30   S    
C13   O9    S    
C3    C14   S    
C11   H32   S    
Cu1   N2    S    
Cu2   N1    S    
C25   H17   S    
C12   O3    A    
C22   H8    S    
C3    C4    A    
C15   O8    A    
C10   N2    A    
C6    H26   S    
O11   C25   S    
Cu2   O2    S    
C9    O13   S    
C29   H27   S    
C14   O6    A    
Cu1   O7    S    
C23   H12   S    
Cu2   O8    S    
C2    C3    A    
O13   C29   S    
C20   H5    S    
C11   C13   S    
O9    C21   S    
C11   H1    S    
C1    O2    A    
C5    O12   S    
C30   H31   S    
C10   C11   S    
C27   H21   S    
C28   H25   S    
C7    C13   S    
C9    N2    A    
C25   C26   S    
C8    N1    A    
C16   C17   T    
