data_mof_unit_22068.cif
_audit_creation_date              2012-12-11T14:44:09-0500
_audit_creation_method            fapswitch 2.2
_symmetry_space_group_name_H-M    P1
_symmetry_Int_Tables_number       1
_space_group_crystal_system       triclinic
_cell_length_a                    19.23493
_cell_length_b                    11.072975
_cell_length_c                    18.796689
_cell_angle_alpha                 90.616573
_cell_angle_beta                  90.989009
_cell_angle_gamma                 89.112723
_cell_volume                      4002.1704262

loop_
_atom_site_label
_atom_site_type_symbol
_atom_type_description
_atom_site_fract_x
_atom_site_fract_y
_atom_site_fract_z
_atom_type_partial_charge
C1    C     C_R   0.728605 0.375933 0.145852 0.577544
C2    C     C_R   0.935750 0.963944 0.055449 0.267675
C3    C     C_R   0.980413 0.757636 0.039766 -0.036999
C4    C     C_R   0.531679 0.054003 0.026817 0.271798
C5    C     C_R   0.530339 0.065390 0.952856 0.244542
C6    C     C_R   0.041379 0.562143 0.025235 0.245860
C7    C     C_R   0.034838 0.570907 0.951390 0.217921
C8    C     C_3   0.630804 0.640428 0.522865 -0.241912
C9    C     C_3   0.407939 0.770487 0.494659 -0.236127
C10   C     C_3   0.130894 0.141637 0.524749 -0.241188
C11   C     C_3   0.908816 0.267586 0.492349 -0.237307
C12   C     C_3   0.412467 0.960037 0.353558 -0.200120
C13   C     C_R   0.457176 0.489384 0.981579 0.262093
C14   C     C_3   0.594149 0.021769 0.595206 -0.260658
C15   C     C_3   0.912092 0.460594 0.353131 -0.206208
C16   C     C_3   0.097068 0.530971 0.589588 -0.267053
C17   C     C_R   0.441981 0.468917 0.052726 0.256292
C18   C     C_R   0.717660 0.859572 0.043416 0.214600
C19   C     C_R   0.315455 0.934655 0.972574 0.262122
C20   C     C_R   0.231702 0.328408 0.045891 0.212602
C21   C     C_R   0.811058 0.465258 0.975583 0.256503
C22   C     C_R   0.721040 0.831645 0.971012 0.168829
C23   C     C_R   0.306690 0.928656 0.045808 0.253382
C24   C     C_R   0.230870 0.310105 0.972975 0.215067
C25   C     C_R   0.271379 0.371953 0.855063 0.563464
C26   C     C_R   0.802109 0.453485 0.048440 0.246055
C27   C     C_R   0.747466 0.917208 0.923161 -0.019149
C28   C     C_R   0.240146 0.905399 0.071561 0.017737
C29   C     C_R   0.251423 0.403362 0.926648 -0.049407
C30   C     C_R   0.739738 0.404967 0.071989 -0.026158
C31   C     C_R   0.764705 0.033842 0.946638 0.201027
C32   C     C_R   0.182993 0.892933 0.023894 0.285862
C33   C     C_R   0.265118 0.519010 0.952798 0.192115
C34   C     C_R   0.687753 0.368584 0.022455 0.252989
C35   C     C_R   0.763725 0.059541 0.019421 0.258261
C36   C     C_R   0.228488 0.875527 0.145505 0.583047
C37   C     C_R   0.192390 0.894651 0.950960 0.223446
C38   C     C_R   0.265605 0.537938 0.025961 0.273233
C39   C     C_R   0.697479 0.377381 0.950060 0.251923
C40   C     C_R   0.736937 0.975043 0.066581 0.029875
C41   C     C_R   0.257229 0.924444 0.925104 -0.013507
C42   C     C_R   0.247637 0.443502 0.072303 -0.026290
C43   C     C_R   0.757672 0.431851 0.926403 -0.022329
C44   C     C_R   0.478702 0.059904 0.450987 0.132362
C45   C     C_R   0.490631 0.063217 0.524959 0.161171
C46   C     C_R   0.978299 0.560023 0.450692 0.162422
C47   C     C_R   0.770308 0.875331 0.853944 0.569709
C48   C     C_R   0.989386 0.562343 0.524558 0.160271
C49   C     C_R   0.469638 0.167641 0.562548 -0.021849
C50   C     C_R   0.485110 0.167091 0.414373 -0.021301
C51   C     C_R   0.968607 0.666950 0.562375 -0.031435
C52   C     C_R   0.985074 0.667269 0.414343 -0.022670
C53   C     C_R   0.533450 0.152973 0.145334 0.638907
C54   C     C_R   0.469627 0.156633 0.852357 0.630618
C55   C     C_R   0.034636 0.653190 0.144908 0.655886
C56   C     C_R   0.969435 0.656989 0.852266 0.642464
C57   C     C_R   0.458153 0.275929 0.523289 0.247723
C58   C     C_R   0.484214 0.394198 0.938597 0.239570
C59   C     C_R   0.466785 0.275689 0.448898 0.296228
C60   C     C_R   0.957343 0.775449 0.523258 0.249256
C61   C     C_R   0.966597 0.775712 0.448947 0.293245
C62   C     C_R   0.802604 0.979643 0.469059 0.230715
C63   C     C_R   0.181687 0.862967 0.559066 0.221841
C64   C     C_R   0.303046 0.479105 0.468960 0.230778
C65   C     C_R   0.681543 0.362500 0.559107 0.223879
C66   C     C_R   0.790483 0.987897 0.541297 0.209045
C67   C     C_R   0.168924 0.843069 0.485764 0.135631
C68   C     C_R   0.291343 0.487174 0.541285 0.208635
C69   C     C_R   0.450168 0.351583 0.081085 0.174691
C70   C     C_R   0.668812 0.342830 0.485777 0.135512
C71   C     C_R   0.749930 0.902137 0.572799 -0.015562
C72   C     C_R   0.224706 0.842927 0.437699 -0.040634
C73   C     C_R   0.250267 0.402404 0.572902 -0.017012
C74   C     C_R   0.724662 0.341786 0.437766 -0.043027
C75   C     C_R   0.705988 0.826341 0.529669 0.066175
C76   C     C_R   0.291978 0.859401 0.467220 0.156311
C77   C     C_R   0.205450 0.328089 0.530109 0.078049
C78   C     C_R   0.792099 0.355891 0.467517 0.159171
C79   C     C_R   0.705661 0.843840 0.455045 0.181685
C80   C     C_R   0.976110 0.895162 0.939429 0.224477
C81   C     C_R   0.295998 0.928717 0.528293 0.200784
C82   C     C_R   0.204660 0.345804 0.455592 0.190138
C83   C     C_R   0.796646 0.424657 0.528822 0.202203
C84   C     C_R   0.754147 0.921399 0.425121 0.041110
C85   C     C_R   0.244992 0.914653 0.578892 0.028264
C86   C     C_R   0.253957 0.421617 0.425241 0.038208
C87   C     C_R   0.745017 0.413339 0.579055 0.029519
C88   C     C_R   0.729415 0.011512 0.140297 0.633995
C89   C     C_R   0.260911 0.971833 0.853334 0.582095
C90   C     C_R   0.240517 0.473960 0.146647 0.555689
C91   C     C_R   0.947001 0.846460 0.082391 0.203813
C92   C     C_R   0.760980 0.473510 0.853694 0.584280
C93   C     C_R   0.711839 0.329868 0.359859 0.569404
C94   C     C_R   0.270079 0.374051 0.646448 0.576063
C95   C     C_R   0.211884 0.830106 0.359890 0.565430
C96   C     C_R   0.770040 0.873947 0.646382 0.575528
C97   C     C_R   0.528614 0.158509 0.350394 0.542497
C98   C     C_R   0.448119 0.155362 0.638263 0.558289
C99   C     C_R   0.028635 0.658558 0.350407 0.543524
C100  C     C_R   0.947578 0.655151 0.638207 0.551762
C101  C     C_R   0.742508 0.970105 0.353615 0.592596
C102  C     C_R   0.948369 0.987348 0.984127 0.254541
C103  C     C_R   0.257009 0.967340 0.648173 0.590530
C104  C     C_R   0.242449 0.470218 0.353682 0.579163
C105  C     C_R   0.757016 0.467195 0.648164 0.591190
C106  C     C_R   0.504291 0.171356 0.922257 0.111961
C107  C     C_R   0.508502 0.152203 0.070621 0.108930
C108  C     C_R   0.003900 0.673764 0.921811 0.105458
C109  C     C_R   0.012542 0.654111 0.069741 0.116048
C110  C     C_R   0.488981 0.274865 0.965729 -0.035873
C111  C     C_R   0.481163 0.258704 0.039526 -0.063183
C112  C     C_R   0.985887 0.775604 0.965853 -0.041268
Cr1   Cr    Cr6+3 0.772000 0.169640 0.250110 1.059424
Cr2   Cr    Cr6+3 0.383330 0.010620 0.749160 1.068448
Cr3   Cr    Cr6+3 0.116670 0.510620 0.250840 1.096089
Cr4   Cr    Cr6+3 0.883330 0.510620 0.749160 1.060058
Cr5   Cr    Cr6+3 0.228000 0.169640 0.749890 1.048412
Cr6   Cr    Cr6+3 0.272000 0.669640 0.250110 1.061832
Cr7   Cr    Cr6+3 0.728000 0.669640 0.749890 1.052774
Cr8   Cr    Cr6+3 0.614960 0.323350 0.249260 1.065181
Cr9   Cr    Cr6+3 0.385040 0.323350 0.750740 1.079166
Cr10  Cr    Cr6+3 0.114960 0.823350 0.249260 1.088874
Cr11  Cr    Cr6+3 0.885040 0.823350 0.750740 1.085516
Cr12  Cr    Cr6+3 0.616670 0.010620 0.250840 1.106077
H1    H     H_    0.582225 0.897977 0.023538 0.341222
H2    H     H_    0.093532 0.894649 0.427734 0.376718
H3    H     H_    0.368717 0.556395 0.590331 0.357306
H4    H     H_    0.593754 0.396430 0.427817 0.376646
H5    H     H_    0.633090 0.768063 0.604658 0.265737
H6    H     H_    0.614341 0.571743 0.561101 0.193009
H7    H     H_    0.668504 0.598826 0.485502 0.195285
H8    H     H_    0.582438 0.670418 0.495028 0.133947
H9    H     H_    0.344923 0.728985 0.406352 0.321608
H10   H     H_    0.451402 0.720359 0.469056 0.124933
H11   H     H_    0.388772 0.722198 0.539816 0.178993
H12   H     H_    0.529991 0.897600 0.923885 0.343918
H13   H     H_    0.428385 0.852514 0.519210 0.239125
H14   H     H_    0.130683 0.273823 0.604795 0.263642
H15   H     H_    0.116214 0.073138 0.563852 0.191580
H16   H     H_    0.169162 0.101562 0.487419 0.188742
H17   H     H_    0.081763 0.167558 0.496895 0.141823
H18   H     H_    0.844845 0.227620 0.404845 0.322122
H19   H     H_    0.951632 0.217240 0.465766 0.132470
H20   H     H_    0.890393 0.219211 0.537883 0.173108
H21   H     H_    0.930084 0.349178 0.516277 0.226275
H22   H     H_    0.612218 0.817915 0.426485 0.314320
H23   H     H_    0.108828 0.428973 0.020203 0.328337
H24   H     H_    0.328568 0.083724 0.561516 0.311738
H25   H     H_    0.110006 0.319533 0.431473 0.330749
H26   H     H_    0.829689 0.579963 0.560575 0.313262
H27   H     H_    0.530350 0.503009 0.874175 0.333828
H28   H     H_    0.387339 0.380302 0.159835 0.334767
H29   H     H_    0.019587 0.009489 0.876164 0.337555
H30   H     H_    0.883976 0.868350 0.161578 0.349210
H31   H     H_    0.925524 0.099683 0.908379 0.345892
H32   H     H_    0.931052 0.042716 0.148094 0.332710
H33   H     H_    0.436533 0.598882 0.903866 0.333710
H34   H     H_    0.044967 0.400606 0.928200 0.339800
H35   H     H_    0.435383 0.551615 0.144064 0.332226
H36   H     H_    0.686386 0.697697 0.069246 0.368060
H37   H     H_    0.392527 0.886482 0.916137 0.352214
H38   H     H_    0.230286 0.249799 0.138455 0.324910
H39   H     H_    0.896899 0.444955 0.929880 0.351574
H40   H     H_    0.659251 0.730431 0.918702 0.350307
H41   H     H_    0.349437 0.958502 0.139171 0.317752
H42   H     H_    0.168598 0.210554 0.920562 0.348678
H43   H     H_    0.839760 0.488121 0.143718 0.323791
H44   H     H_    0.764151 0.104989 0.852283 0.337110
H45   H     H_    0.896113 0.038179 0.477479 0.383514
H46   H     H_    0.085910 0.928113 0.022247 0.347964
H47   H     H_    0.257836 0.598533 0.860709 0.338431
H48   H     H_    0.598703 0.385973 0.060989 0.331674
H49   H     H_    0.817636 0.206028 0.010114 0.390551
H50   H     H_    0.154878 0.840172 0.859376 0.344539
H51   H     H_    0.312564 0.691068 0.020039 0.390142
H52   H     H_    0.666208 0.321933 0.856036 0.336632
H53   H     H_    0.503623 0.890765 0.405973 0.250395
H54   H     H_    0.404352 0.869377 0.329435 0.163055
H55   H     H_    0.428634 0.018251 0.309690 0.143031
H56   H     H_    0.091323 0.807788 0.587667 0.349088
H57   H     H_    0.362414 0.997880 0.372930 0.187043
H58   H     H_    0.544112 0.898400 0.529080 0.231157
H59   H     H_    0.617283 0.954450 0.631710 0.146625
H60   H     H_    0.582099 0.100858 0.629576 0.175239
H61   H     H_    0.632346 0.049562 0.555116 0.146203
H62   H     H_    0.003182 0.390870 0.405824 0.264054
H63   H     H_    0.904370 0.370135 0.328593 0.163126
H64   H     H_    0.928030 0.519779 0.309605 0.146009
H65   H     H_    0.861877 0.497351 0.372760 0.188948
H66   H     H_    0.012633 0.415248 0.589049 0.268632
H67   H     H_    0.396259 0.540055 0.476936 0.382966
H68   H     H_    0.125338 0.465276 0.623230 0.137241
H69   H     H_    0.083453 0.605614 0.626699 0.170999
H70   H     H_    0.131551 0.565611 0.547882 0.173297
H71   H     H_    0.479621 0.395493 0.594419 0.344374
H72   H     H_    0.453592 0.366040 0.361998 0.337836
H73   H     H_    0.978978 0.895592 0.593893 0.343041
H74   H     H_    0.953961 0.866556 0.362157 0.339269
H75   H     H_    0.591832 0.305051 0.587900 0.348187
H76   H     H_    0.867423 0.057461 0.590908 0.356026
N1    N     N_2   0.661946 0.739331 0.562065 -0.497500
N2    N     N_2   0.352503 0.796415 0.443084 -0.473470
N3    N     N_2   0.159932 0.243776 0.562725 -0.491180
N4    N     N_2   0.852580 0.294442 0.441905 -0.470930
N5    N     N_2   0.463164 0.951506 0.412481 -0.483713
N6    N     N_2   0.532600 0.973531 0.559695 -0.501674
N7    N     N_2   0.962847 0.451953 0.411960 -0.476115
N8    N     N_2   0.035862 0.476726 0.556758 -0.533908
O1    O     O_R   0.787540 0.042690 0.170470 -0.480174
O2    O     O_R   0.454130 0.051100 0.669160 -0.469028
O3    O     O_R   0.045870 0.551100 0.330840 -0.519093
O4    O     O_R   0.954130 0.551100 0.669160 -0.508344
O5    O     O_R   0.681340 0.959300 0.325510 -0.465637
O6    O     O_R   0.318660 0.959300 0.674490 -0.498655
O7    O     O_R   0.181340 0.459300 0.325510 -0.467305
O8    O     O_R   0.818660 0.459300 0.674490 -0.500524
O9    O     O_3   0.667880 0.167870 0.250070 -0.333460
O10   O     O_3   0.332120 0.167870 0.749930 -0.300158
O11   O     O_3   0.167880 0.667870 0.250070 -0.312465
O12   O     O_R   0.212460 0.042690 0.829530 -0.478609
O13   O     O_3   0.832120 0.667870 0.749930 -0.296334
O14   O     O_R   0.765660 0.292160 0.175050 -0.457567
O15   O     O_R   0.234340 0.292160 0.824950 -0.490822
O16   O     O_R   0.265660 0.792160 0.175050 -0.460587
O17   O     O_R   0.734340 0.792160 0.824950 -0.480606
O18   O     O_R   0.670190 0.408980 0.168550 -0.505599
O19   O     O_R   0.329810 0.408980 0.831450 -0.498595
O20   O     O_R   0.170190 0.908980 0.168550 -0.449390
O21   O     O_R   0.829810 0.908980 0.831450 -0.498425
O22   O     O_R   0.556580 0.251450 0.175160 -0.469257
O23   O     O_R   0.287540 0.542690 0.170470 -0.466438
O24   O     O_R   0.443420 0.251450 0.824840 -0.455472
O25   O     O_R   0.056580 0.751450 0.175160 -0.454490
O26   O     O_R   0.943420 0.751450 0.824840 -0.445497
O27   O     O_R   0.545920 0.049510 0.170320 -0.453710
O28   O     O_R   0.454080 0.049510 0.829680 -0.469336
O29   O     O_R   0.045920 0.549510 0.170320 -0.448751
O30   O     O_R   0.954080 0.549510 0.829680 -0.475660
O31   O     O_R   0.681390 0.957840 0.176710 -0.430864
O32   O     O_R   0.318610 0.957840 0.823290 -0.506287
O33   O     O_R   0.181390 0.457840 0.176710 -0.469106
O34   O     O_R   0.712460 0.542690 0.829530 -0.481561
O35   O     O_R   0.818610 0.457840 0.823290 -0.499182
O36   O     O_R   0.787500 0.044280 0.330990 -0.487128
O37   O     O_R   0.212500 0.044280 0.669010 -0.487195
O38   O     O_R   0.287500 0.544280 0.330990 -0.488632
O39   O     O_R   0.712500 0.544280 0.669010 -0.484542
O40   O     O_R   0.765610 0.293630 0.323860 -0.535841
O41   O     O_R   0.234390 0.293630 0.676140 -0.519931
O42   O     O_R   0.265610 0.793630 0.323860 -0.536749
O43   O     O_R   0.734390 0.793630 0.676140 -0.522919
O44   O     O_R   0.670140 0.410570 0.329080 -0.499681
O45   O     O_R   0.556540 0.252920 0.323970 -0.499860
O46   O     O_R   0.329860 0.410570 0.670920 -0.472488
O47   O     O_R   0.170140 0.910570 0.329080 -0.509415
O48   O     O_R   0.829860 0.910570 0.670920 -0.474605
O49   O     O_3   0.555799 0.947908 0.057717 -0.624846
O50   O     O_3   0.552941 0.972525 0.908874 -0.708627
O51   O     O_3   0.076698 0.464949 0.055127 -0.643276
O52   O     O_3   0.057236 0.478690 0.906719 -0.707107
O53   O     O_3   0.860033 0.030105 0.439991 -0.660002
O54   O     O_3   0.131358 0.849579 0.609722 -0.698675
O55   O     O_3   0.360168 0.530312 0.439584 -0.658698
O56   O     O_R   0.443460 0.252920 0.676030 -0.502988
O57   O     O_3   0.631060 0.349545 0.609625 -0.696825
O58   O     O_3   0.817977 0.079497 0.582057 -0.705567
O59   O     O_3   0.102342 0.829258 0.462333 -0.718615
O60   O     O_3   0.319183 0.578382 0.582043 -0.705264
O61   O     O_3   0.602135 0.330665 0.462267 -0.717138
O62   O     O_3   0.658258 0.788400 0.410692 -0.671931
O63   O     O_3   0.347326 0.013123 0.534782 -0.706411
O64   O     O_3   0.155336 0.293618 0.412013 -0.676709
O65   O     O_3   0.848553 0.507805 0.535379 -0.712159
O66   O     O_3   0.514591 0.418273 0.874226 -0.638067
O67   O     O_R   0.056540 0.752920 0.323970 -0.504455
O68   O     O_3   0.425401 0.323314 0.147402 -0.710450
O69   O     O_3   0.004547 0.924328 0.874865 -0.636311
O70   O     O_3   0.923464 0.814624 0.148608 -0.696842
O71   O     O_3   0.935259 0.103112 0.960274 -0.643332
O72   O     O_3   0.916433 0.060116 0.098414 -0.593316
O73   O     O_3   0.445622 0.604421 0.955833 -0.643524
O74   O     O_3   0.422145 0.567196 0.093806 -0.599845
O75   O     O_3   0.697212 0.775729 0.092823 -0.639746
O76   O     O_3   0.381448 0.954363 0.949052 -0.633341
O77   O     O_3   0.215605 0.232318 0.088755 -0.629510
O78   O     O_R   0.943460 0.752920 0.676030 -0.496210
O79   O     O_3   0.872050 0.513152 0.953369 -0.645630
O80   O     O_3   0.701790 0.718257 0.948517 -0.688874
O81   O     O_3   0.364415 0.944024 0.089664 -0.602689
O82   O     O_3   0.212335 0.197876 0.948388 -0.631940
O83   O     O_3   0.855298 0.489992 0.093855 -0.617525
O84   O     O_3   0.783453 0.123460 0.900309 -0.706876
O85   O     O_3   0.117687 0.873945 0.049357 -0.659591
O86   O     O_3   0.277700 0.615334 0.908703 -0.705446
O87   O     O_3   0.627988 0.317003 0.044619 -0.668065
O88   O     O_3   0.789896 0.165892 0.046595 -0.629385
O89   O     O_R   0.545870 0.051100 0.330840 -0.522364
O90   O     O_3   0.137217 0.864910 0.906638 -0.659149
O91   O     O_3   0.281953 0.649855 0.053547 -0.620202
O92   O     O_3   0.647291 0.330880 0.904489 -0.620845
O93   O     O_3   0.444178 0.384476 0.556214 -0.704706
O94   O     O_3   0.463444 0.383334 0.412993 -0.641884
O95   O     O_3   0.942944 0.883655 0.556370 -0.705222
O96   O     O_3   0.963529 0.883552 0.413236 -0.644282

loop_
_geom_bond_atom_site_label_1
_geom_bond_atom_site_label_2
_ccdc_geom_bond_type
C21   C26   A    
Cr9   O10   S    
Cr4   O8    S    
H75   O57   S    
C32   O85   S    
C50   C59   A    
C56   O30   A    
C52   C61   A    
C94   O46   A    
C57   C59   A    
Cr3   O3    S    
C29   C33   A    
C37   O90   S    
C95   O42   A    
Cr4   O13   S    
C18   C40   A    
C110  C111  A    
C16   H69   S    
Cr3   O33   S    
C101  O5    A    
Cr8   O9    S    
C70   C74   A    
H51   O91   S    
C39   O92   S    
C36   O16   A    
C85   C103  S    
C59   O94   S    
Cr9   O24   S    
C63   C85   A    
C74   C93   S    
C10   H16   S    
C65   C87   A    
C25   C29   S    
H49   O88   S    
C46   C48   A    
Cr6   O16   S    
C28   C32   A    
C62   C66   A    
Cr6   O42   S    
Cr8   O22   S    
Cr10  O47   S    
Cr12  O31   S    
H72   O94   S    
C88   O31   A    
C6    O51   S    
C10   H17   S    
C91   O70   S    
C19   C23   A    
C20   C42   A    
C12   H57   S    
C3    C112  A    
C80   C112  A    
H45   O53   S    
Cr3   O7    S    
C55   O29   A    
Cr11  O48   S    
C17   O74   S    
H44   O84   S    
C22   C27   A    
C14   N6    S    
C80   O69   S    
Cr2   O32   S    
C44   C50   A    
C58   C110  A    
Cr8   O44   S    
C4    C5    A    
C39   C43   A    
Cr6   O38   S    
C6    C7    A    
C33   C38   A    
Cr9   O19   S    
C12   N5    S    
C40   C88   S    
C35   C40   A    
H74   O96   S    
C77   C82   A    
C44   N5    S    
C11   N4    S    
H27   O66   S    
C9    N2    S    
C98   O56   A    
C73   C77   A    
C96   O43   A    
H58   N6    S    
C75   C79   A    
H48   O87   S    
C1    O18   A    
C12   H54   S    
C17   C69   A    
C45   N6    S    
Cr2   O6    S    
C54   O28   A    
C102  O71   S    
C86   C104  S    
H37   O76   S    
C99   O3    A    
Cr11  O13   S    
C103  O37   A    
C64   C68   A    
H22   O62   S    
C3    C91   A    
C2    O72   S    
C79   C84   A    
C2    C102  A    
C65   C70   A    
C100  O78   A    
Cr7   O13   S    
H35   O74   S    
C49   C57   A    
C67   C72   A    
Cr7   O39   S    
Cr8   O45   S    
C56   C108  S    
H31   O71   S    
C18   O75   S    
C53   O22   A    
H5    N1    S    
H76   O58   S    
C15   H65   S    
C55   C109  S    
C89   O32   A    
C56   O26   A    
Cr2   O10   S    
C62   O53   S    
C54   O24   A    
Cr12  O5    S    
Cr10  O11   S    
C30   C34   A    
C34   C39   A    
C96   O48   A    
Cr3   O29   S    
C14   H61   S    
C23   C28   A    
C25   O19   A    
H50   O90   S    
C80   C102  A    
C42   C90   S    
H18   N4    S    
Cr11  O78   S    
Cr7   O43   S    
Cr11  O26   S    
C87   C105  S    
Cr6   O23   S    
Cr10  O20   S    
C8    H7    S    
C32   C37   A    
C103  O6    A    
C9    H11   S    
C26   C30   A    
C104  O38   A    
C6    C109  A    
C63   O54   S    
Cr8   O18   S    
C97   O45   A    
H47   O86   S    
C27   C47   S    
C51   C100  S    
C62   C84   A    
Cr12  O9    S    
C18   C22   A    
C107  C111  A    
H25   O64   S    
C23   O81   S    
H46   O85   S    
C15   H64   S    
C43   C92   S    
C13   C17   A    
Cr1   O1    S    
Cr10  O67   S    
C13   O73   S    
C11   H19   S    
H34   O52   S    
C20   O77   S    
H23   O51   S    
C2    C91   A    
C90   O23   A    
C16   H70   S    
C51   C60   A    
C83   O65   S    
C15   N7    S    
C83   C87   A    
C58   O66   S    
C4    O49   S    
C41   C89   S    
C65   O57   S    
C14   H59   S    
C75   N1    S    
C48   N8    S    
C8    N1    S    
H32   O72   S    
Cr9   O56   S    
C92   O35   A    
H43   O83   S    
H29   O69   S    
C69   O68   S    
C101  O36   A    
C24   C29   A    
C105  O39   A    
C9    H13   S    
C78   C83   A    
C10   N3    S    
C33   O86   S    
C93   O44   A    
C35   O88   S    
C105  O8    A    
H24   O63   S    
C7    O52   S    
C73   C94   S    
C57   O93   S    
C77   N3    S    
C64   C86   A    
C4    C107  A    
C5    C106  A    
H39   O79   S    
C64   O55   S    
H3    O60   S    
H40   O80   S    
C26   O83   S    
C97   O89   A    
Cr5   O41   S    
C70   O61   S    
C71   C96   S    
C82   C86   A    
C27   C31   A    
C108  C112  A    
C60   C61   A    
H14   N3    S    
C53   C107  S    
C66   C71   A    
C47   O17   A    
C45   C49   A    
Cr1   O36   S    
Cr5   O10   S    
C54   C106  S    
C88   O1    A    
C8    H6    S    
C31   C35   A    
C10   H15   S    
C44   C45   A    
H41   O81   S    
H9    N2    S    
Cr4   O30   S    
C99   O67   A    
H52   O92   S    
C104  O7    A    
Cr5   O37   S    
Cr4   O4    S    
C89   O12   A    
C3    C109  A    
C1    C30   S    
H53   N5    S    
Cr7   O34   S    
Cr1   O14   S    
C68   O60   S    
C34   O87   S    
H38   O77   S    
Cr10  O25   S    
C28   C36   S    
C74   C78   A    
C1    O14   A    
C19   C41   A    
C46   C52   A    
H36   O75   S    
H4    O61   S    
H26   O65   S    
C72   C76   A    
Cr9   O46   S    
C19   O76   S    
C98   O2    A    
C61   O96   S    
H62   N7    S    
C78   N4    S    
C38   C42   A    
C76   N2    S    
H1    O49   S    
C81   O63   S    
Cr5   O12   S    
C82   O64   S    
C16   H68   S    
C49   C98   S    
C21   C43   A    
C72   C95   S    
C92   O34   A    
C48   C51   A    
C20   C24   A    
C8    H8    S    
C11   H20   S    
C53   O27   A    
C66   O58   S    
C9    H10   S    
Cr4   O35   S    
C38   O91   S    
C36   O20   A    
C37   C41   A    
C84   C101  S    
Cr12  O27   S    
Cr3   O11   S    
C55   O25   A    
Cr1   O9    S    
C46   N7    S    
C63   C67   A    
C79   O62   S    
H30   O70   S    
C31   O84   S    
C11   H21   S    
Cr2   O28   S    
C13   C58   A    
H73   O95   S    
C68   C73   A    
C15   H63   S    
C100  O4    A    
H67   O55   S    
C93   O40   A    
C67   O59   S    
Cr11  O21   S    
H28   O68   S    
C21   O79   S    
C22   O80   S    
H66   N8    S    
H12   O50   S    
H2    O59   S    
Cr5   O15   S    
C94   O41   A    
C95   O47   A    
Cr7   O17   S    
H33   O73   S    
C106  C110  A    
C60   O95   S    
C50   C97   S    
C16   N8    S    
C76   C81   A    
C14   H60   S    
C47   O21   A    
Cr1   O40   S    
C52   C99   S    
C24   O82   S    
Cr2   O2    S    
C71   C75   A    
C69   C111  A    
H71   O93   S    
C5    O50   S    
H56   O54   S    
C25   O15   A    
C81   C85   A    
H42   O82   S    
C12   H55   S    
C90   O33   A    
Cr6   O11   S    
C7    C108  A    
Cr12  O89   S    
