data_mof_unit_17627.cif
_audit_creation_date              2012-12-10T16:52:37-0500
_audit_creation_method            fapswitch 2.2
_symmetry_space_group_name_H-M    P1
_symmetry_Int_Tables_number       1
_space_group_crystal_system       triclinic
_cell_length_a                    7.839843
_cell_length_b                    8.569196
_cell_length_c                    13.794726
_cell_angle_alpha                 93.316597
_cell_angle_beta                  93.17667
_cell_angle_gamma                 94.24611
_cell_volume                      920.993676904

loop_
_atom_site_label
_atom_site_type_symbol
_atom_type_description
_atom_site_fract_x
_atom_site_fract_y
_atom_site_fract_z
_atom_type_partial_charge
C1    C     C_R   0.045202 0.794685 0.497621 0.965850
C2    C     C_R   0.936891 0.489115 0.317993 0.867832
C3    C     C_R   0.100642 0.547371 0.785348 -0.069118
C4    C     C_R   0.907513 0.482048 0.212979 -0.058729
C5    C     C_R   0.079820 0.714746 0.930325 -0.191216
C6    C     C_R   0.966086 0.379280 0.052811 -0.189849
C7    C     C_R   0.013886 0.657838 0.838102 -0.190025
C8    C     C_R   0.014209 0.404460 0.151410 -0.194841
C9    C     C_R   0.247728 0.490582 0.825534 -0.278092
C10   C     C_R   0.762006 0.545481 0.175177 -0.275374
C11   C     C_R   0.326898 0.559168 0.912084 0.091622
C12   C     C_R   0.954817 0.205322 0.502451 0.964570
C13   C     C_R   0.711743 0.523419 0.076559 0.087209
C14   C     C_R   0.237495 0.668145 0.967023 0.174183
C15   C     C_R   0.812188 0.432818 0.015803 0.179669
C16   C     C_R   0.492807 0.522829 0.944498 0.062494
C17   C     C_R   0.557150 0.578450 0.038941 0.062515
C18   C     C_R   0.464980 0.686968 0.092507 -0.230476
C19   C     C_R   0.598350 0.436712 0.884448 -0.236643
C20   C     C_R   0.308352 0.731618 0.056521 -0.225581
C21   C     C_R   0.755939 0.393760 0.919640 -0.222250
C22   C     C_2   0.068665 0.958457 0.496262 -0.385360
C23   C     C_2   0.931378 0.041556 0.503909 -0.387915
C24   C     C_R   0.063772 0.513877 0.681887 0.866343
H1    H     H_    0.683265 0.602730 0.225677 0.159091
H2    H     H_    0.512901 0.625524 0.572371 0.189503
H3    H     H_    0.242538 0.816295 0.098971 0.146594
H4    H     H_    0.832523 0.326856 0.871812 0.149923
H5    H     H_    0.129276 0.356579 0.180130 0.157880
H6    H     H_    0.899273 0.703446 0.806975 0.159620
H7    H     H_    0.301806 0.396676 0.785080 0.149580
H8    H     H_    0.011461 0.799432 0.971135 0.138392
H9    H     H_    0.045700 0.313421 0.006269 0.140744
H10   H     H_    0.513908 0.744696 0.160987 0.148093
H11   H     H_    0.565191 0.404637 0.808677 0.157102
H12   H     H_    0.197953 0.010048 0.488962 0.179008
H13   H     H_    0.802094 0.989964 0.511219 0.179177
H14   H     H_    0.487103 0.374433 0.427663 0.188736
N1    N     N_2   0.440860 0.456490 0.474790 -0.173915
N2    N     N_2   0.559140 0.543510 0.525210 -0.174643
O1    O     O_R   0.891570 0.738930 0.506190 -0.611942
O2    O     O_R   0.108430 0.261070 0.493810 -0.611465
O3    O     O_R   0.174650 0.711050 0.490030 -0.624257
O4    O     O_R   0.825350 0.288950 0.509970 -0.625063
O5    O     O_R   0.909850 0.521900 0.644940 -0.618964
O6    O     O_R   0.090150 0.478100 0.355060 -0.615928
O7    O     O_R   0.192930 0.494020 0.628780 -0.616994
O8    O     O_R   0.807070 0.505980 0.371220 -0.622141
Zn1   Zn    Zn3+2 0.810990 0.518620 0.510790 0.930694
Zn2   Zn    Zn3+2 0.189010 0.481380 0.489210 0.934357

loop_
_geom_bond_atom_site_label_1
_geom_bond_atom_site_label_2
_ccdc_geom_bond_type
O4    Zn1   S    
C2    C4    S    
O3    Zn2   S    
C3    C9    A    
C20   H3    S    
O5    Zn1   S    
C22   H12   S    
C11   C16   A    
O6    Zn2   S    
C18   C20   A    
C6    H9    S    
C13   C17   A    
C4    C8    A    
C5    H8    S    
C17   C18   A    
C5    C14   A    
C1    C22   S    
C12   O4    A    
C7    H6    S    
C19   H11   S    
C2    O6    A    
C9    C11   A    
C12   C23   S    
H2    N2    S    
C3    C24   S    
O2    Zn2   S    
C16   C19   A    
C6    C8    A    
C8    H5    S    
C10   H1    S    
O1    Zn1   S    
O8    Zn1   S    
C19   C21   A    
C21   H4    S    
O7    Zn2   S    
C3    C7    A    
C13   C15   A    
H14   N1    S    
C11   C14   A    
C18   H10   S    
C24   O5    A    
C4    C10   A    
N2    Zn1   S    
C14   C20   A    
C15   C21   A    
N1    Zn2   S    
C1    O1    A    
N1    N2    D    
C5    C7    A    
C9    H7    S    
C22   C23   D    
C12   O2    A    
C2    O8    A    
C6    C15   A    
C23   H13   S    
C24   O7    A    
C1    O3    A    
C16   C17   A    
C10   C13   A    
