data_mof_unit_54939.cif
_audit_creation_date              2012-12-10T17:34:58-0500
_audit_creation_method            fapswitch 2.2
_symmetry_space_group_name_H-M    P1
_symmetry_Int_Tables_number       1
_space_group_crystal_system       triclinic
_cell_length_a                    12.336402
_cell_length_b                    13.203073
_cell_length_c                    13.879398
_cell_angle_alpha                 105.260133
_cell_angle_beta                  73.806468
_cell_angle_gamma                 116.671422
_cell_volume                      1914.70718371

loop_
_atom_site_label
_atom_site_type_symbol
_atom_type_description
_atom_site_fract_x
_atom_site_fract_y
_atom_site_fract_z
_atom_type_partial_charge
C1    C     C_R   0.144462 0.713544 0.508649 0.772411
C2    C     C_1   0.971942 0.503614 0.791315 -0.137892
C3    C     C_R   0.736887 0.975945 0.365876 -0.177421
C4    C     C_R   0.775165 0.164873 0.464687 -0.046005
C5    C     C_R   0.177959 0.916006 0.574443 -0.176318
C6    C     C_R   0.254897 0.031262 0.594221 -0.134057
C7    C     C_R   0.381447 0.068329 0.558890 -0.178816
C8    C     C_R   0.433718 0.990453 0.499018 0.081006
C9    C     C_R   0.353054 0.875436 0.469014 0.079846
C10   C     C_R   0.563249 0.023197 0.466932 0.074686
C11   C     C_R   0.609285 0.944602 0.398109 0.159495
C12   C     C_R   0.983926 0.503877 0.686306 0.817902
C13   C     C_R   0.527573 0.836684 0.360179 -0.227398
C14   C     C_R   0.401422 0.803188 0.393730 -0.193073
C15   C     C_R   0.648782 0.131634 0.501830 -0.241787
C16   C     C_R   0.819596 0.086012 0.398474 -0.185803
C17   C     C_R   0.225897 0.836556 0.514266 -0.104518
C18   C     C_R   0.639237 0.673115 0.666242 -0.103155
C19   C     C_R   0.252279 0.351553 0.364156 0.082323
C20   C     C_R   0.351206 0.319214 0.334865 -0.241725
C21   C     C_R   0.449845 0.375174 0.386587 -0.194682
C22   C     C_R   0.450801 0.464831 0.469030 0.004853
C23   C     C_R   0.856157 0.286350 0.485383 0.798412
C24   C     C_R   0.347040 0.494676 0.496202 0.289619
C25   C     C_R   0.550043 0.525419 0.525513 -0.044634
C26   C     C_R   0.542928 0.613636 0.608939 0.083716
C27   C     C_R   0.441524 0.642414 0.631579 -0.237356
C28   C     C_R   0.345969 0.583554 0.577855 -0.184219
C29   C     C_R   0.657054 0.502549 0.502362 0.026228
C30   C     C_R   0.742337 0.646596 0.636827 0.034990
C31   C     C_R   0.015886 0.496017 0.313729 0.803308
C32   C     C_1   0.024945 0.494457 0.208887 -0.115384
C33   C     C_2   0.032565 0.493684 0.017216 -0.250504
C34   C     C_2   0.942677 0.501655 0.986550 -0.013029
C35   C     C_1   0.959030 0.502924 0.880121 -0.013476
C36   C     C_1   0.029844 0.493772 0.121182 0.090748
Cu1   Cu    Cu3+1 0.899780 0.525060 0.522890 0.959519
Cu2   Cu    Cu3+1 0.100220 0.474940 0.477110 0.929692
H1    H     H_    0.342781 0.720989 0.357428 0.179532
H2    H     H_    0.817226 0.690636 0.678902 0.158715
H3    H     H_    0.434650 0.712333 0.690778 0.190845
H4    H     H_    0.670042 0.437384 0.440688 0.133991
H5    H     H_    0.176060 0.307517 0.323671 0.127082
H6    H     H_    0.523491 0.346057 0.360549 0.144889
H7    H     H_    0.351393 0.250410 0.271883 0.154827
H8    H     H_    0.272528 0.611281 0.603741 0.206706
H9    H     H_    0.112863 0.488250 0.962181 0.166419
H10   H     H_    0.917461 0.110781 0.368779 0.150292
H11   H     H_    0.561280 0.777737 0.304133 0.157959
H12   H     H_    0.772471 0.916363 0.313180 0.144375
H13   H     H_    0.619770 0.193101 0.557408 0.151046
H14   H     H_    0.080881 0.888684 0.608451 0.169944
H15   H     H_    0.435122 0.158955 0.577910 0.133423
H16   H     H_    0.216653 0.091939 0.639982 0.153169
N1    N     N_R   0.748810 0.563010 0.557590 -0.194482
N2    N     N_R   0.250540 0.437620 0.443020 -0.207217
O1    O     O_R   0.025040 0.682470 0.528790 -0.577319
O2    O     O_R   0.194310 0.640150 0.490130 -0.607260
O3    O     O_R   0.903380 0.524130 0.659910 -0.566003
O4    O     O_R   0.072660 0.481800 0.621240 -0.592410
O5    O     O_R   0.805690 0.359850 0.509870 -0.586324
O6    O     O_R   0.974960 0.317530 0.471210 -0.586163
O7    O     O_R   0.927340 0.518200 0.378760 -0.554661
O8    O     O_R   0.096620 0.475870 0.340090 -0.593373
C37   C     C_2   0.828104 0.509050 0.054951 0.877016
O9    O     O_2   0.755732 0.522930 0.020178 -0.586874
O10   O     O_R   0.801299 0.499498 0.157811 -0.767374
H17   H     H_    0.720546 0.505715 0.194783 0.329893
C38   C     C_2   0.636015 0.760790 0.758174 0.823097
O11   O     O_2   0.541849 0.745143 0.822653 -0.591212
O12   O     O_R   0.743613 0.858976 0.773489 -0.771364
H18   H     H_    0.731011 0.911600 0.839456 0.341313

loop_
_geom_bond_atom_site_label_1
_geom_bond_atom_site_label_2
_ccdc_geom_bond_type
C2    C35   T    
C4    C16   A    
Cu1   O5    S    
C9    C14   A    
Cu2   N2    S    
C5    H14   S    
C6    C7    A    
C18   C30   A    
C15   H13   S    
C29   H4    S    
C24   N2    A    
C21   H6    S    
C30   N1    A    
C27   H3    S    
C1    C17   S    
C20   H7    S    
C18   C26   A    
C19   N2    A    
C23   O5    A    
Cu1   N1    S    
C2    C12   S    
C16   H10   S    
C18   C38   S    
C33   C34   D    
C25   C26   A    
C30   H2    S    
O12   H18   S    
Cu2   O2    S    
C21   C22   A    
C11   C13   A    
C28   H8    S    
C26   C27   A    
Cu1   O3    S    
C6    H16   S    
Cu2   O4    S    
C5    C6    A    
C32   C36   T    
C34   C37   S    
C9    C17   A    
Cu1   O7    S    
Cu1   Cu2   S    
C19   H5    S    
C37   O9    D    
Cu2   O8    S    
C10   C15   A    
C4    C15   A    
C25   C29   A    
C38   O11   D    
C33   H9    S    
C31   C32   S    
C13   H11   S    
C3    C11   A    
C10   C11   A    
C7    H15   S    
C19   C20   A    
O10   H17   S    
C12   O4    A    
C31   O7    A    
C7    C8    A    
C33   C36   S    
C5    C17   A    
C20   C21   A    
C8    C10   A    
C34   C35   S    
C22   C24   A    
C27   C28   A    
C38   O12   S    
C4    C23   S    
C29   N1    A    
C13   C14   A    
Cu2   O6    S    
C14   H1    S    
C1    O2    A    
C12   O3    A    
C31   O8    A    
C3    H12   S    
C23   O6    A    
Cu1   O1    S    
C3    C16   A    
C24   C28   A    
C8    C9    A    
C37   O10   S    
C22   C25   A    
C1    O1    A    
