data_mof_unit_31032.cif
_audit_creation_date              2013-03-05T15:49:32-0500
_audit_creation_method            fapswitch 2.2
_symmetry_space_group_name_H-M    P1
_symmetry_Int_Tables_number       1
_space_group_crystal_system       triclinic
_cell_length_a                    10.650601
_cell_length_b                    12.002558
_cell_length_c                    12.843344
_cell_angle_alpha                 93.746407
_cell_angle_beta                  89.901816
_cell_angle_gamma                 86.666191
_cell_volume                      1635.51575292

loop_
_atom_site_label
_atom_site_type_symbol
_atom_site_description
_atom_site_fract_x
_atom_site_fract_y
_atom_site_fract_z
_atom_type_partial_charge
O1    O     O_R   0.506170 0.421700 0.658830 -0.643219
O2    O     O_R   0.493830 0.578300 0.341170 -0.643233
O3    O     O_R   0.491330 0.609310 0.646410 -0.573914
O4    O     O_R   0.508670 0.390690 0.353590 -0.573918
C1    C     C_R   0.494550 0.522560 0.700357 0.886017
C2    C     C_R   0.505456 0.477440 0.299643 0.886055
O5    O     O_R   0.690650 0.406190 0.506220 -0.588286
O6    O     O_R   0.309350 0.593810 0.493780 -0.588301
O7    O     O_R   0.675800 0.593810 0.493800 -0.623907
O8    O     O_R   0.324200 0.406190 0.506200 -0.623882
C3    C     C_R   0.739104 0.500600 0.499592 0.879779
C4    C     C_R   0.260896 0.499400 0.500403 0.879745
Zn1   Zn    Zn3+2 0.509910 0.374730 0.508290 1.005766
Zn2   Zn    Zn3+2 0.490090 0.625270 0.491710 1.005756
H1    H     H_    0.881481 0.573778 0.150668 0.148610
H2    H     H_    0.118514 0.426367 0.849360 0.148600
C5    C     C_R   0.870632 0.465218 0.687797 -0.135109
C6    C     C_R   0.129367 0.534796 0.312202 -0.135104
C7    C     C_R   0.936518 0.445290 0.778986 -0.105133
C8    C     C_R   0.063479 0.554773 0.221024 -0.105127
C9    C     C_R   0.067131 0.441514 0.778506 -0.094773
C10   C     C_R   0.932865 0.558580 0.221511 -0.094794
C11   C     C_R   0.131897 0.457932 0.686912 -0.073814
C12   C     C_R   0.868100 0.542133 0.313098 -0.073830
C13   C     C_R   0.066334 0.478442 0.593311 0.082285
C14   C     C_R   0.933665 0.521579 0.406689 0.082310
C15   C     C_R   0.935104 0.481391 0.593613 0.073372
C16   C     C_R   0.064895 0.518616 0.406384 0.073377
C17   C     C_R   0.128652 0.497835 0.499848 -0.153912
C18   C     C_R   0.871347 0.502167 0.500147 -0.153904
H3    H     H_    0.769122 0.468669 0.692309 0.122878
H4    H     H_    0.230877 0.531324 0.307685 0.122873
H5    H     H_    0.885993 0.433145 0.850216 0.146095
H6    H     H_    0.114004 0.566937 0.149798 0.146093
H7    H     H_    0.233372 0.454991 0.690696 0.142817
H8    H     H_    0.766625 0.545096 0.309318 0.142833
C19   C     C_R   0.514392 0.463270 0.188104 -0.179695
C20   C     C_R   0.485628 0.536731 0.811897 -0.179709
C21   C     C_R   0.406391 0.630333 0.972405 -0.236309
C22   C     C_R   0.593642 0.369675 0.027597 -0.236289
C23   C     C_R   0.414597 0.626789 0.864184 0.293615
C24   C     C_R   0.585444 0.373223 0.135819 0.293595
C25   C     C_R   0.546815 0.453271 0.866881 -0.283170
C26   C     C_R   0.453200 0.546726 0.133119 -0.283181
C27   C     C_R   0.535335 0.455476 0.973505 0.118693
C28   C     C_R   0.464687 0.544525 0.026495 0.118704
H9    H     H_    0.397277 0.614731 0.173736 0.176198
H10   H     H_    0.602730 0.385262 0.826262 0.176203
H11   H     H_    0.351384 0.698103 0.013962 0.196020
H12   H     H_    0.648661 0.301912 0.986039 0.196039
N1    N     N_R   0.523130 0.207800 0.519340 -0.134221
N2    N     N_R   0.476870 0.792200 0.480660 -0.134225
C29   C     C_R   0.382293 0.952556 0.401379 0.244112
C30   C     C_R   0.617706 0.047444 0.598622 0.244118
C31   C     C_R   0.396236 0.836388 0.410451 -0.023078
C32   C     C_R   0.603764 0.163612 0.589549 -0.023070
C33   C     C_R   0.548002 0.858815 0.543567 0.052382
C34   C     C_R   0.451998 0.141185 0.456434 0.052353
C35   C     C_R   0.542581 0.976156 0.535880 -0.083493
C36   C     C_R   0.457419 0.023844 0.464121 -0.083496
H13   H     H_    0.392174 0.180774 0.400137 0.186032
H14   H     H_    0.607824 0.819225 0.599864 0.186040
H15   H     H_    0.660074 0.219189 0.637063 0.163384
H16   H     H_    0.339926 0.780811 0.362937 0.163386
N3    N     N_R   0.290546 0.995545 0.330145 0.208044
O9    O     O_R   0.273889 0.941788 0.240387 -0.351953
O10   O     O_R   0.208070 0.074691 0.362111 -0.353756
N4    N     N_R   0.709453 0.004455 0.669856 0.208054
O11   O     O_R   0.726111 0.058215 0.759614 -0.351935
O12   O     O_R   0.791925 0.925306 0.637894 -0.353766
N5    N     N_R   0.653730 0.288434 0.190405 0.219716
O13   O     O_R   0.657566 0.184831 0.153112 -0.327516
O14   O     O_R   0.729962 0.316498 0.265402 -0.380576
N6    N     N_R   0.346353 0.711601 0.809600 0.219724
O15   O     O_R   0.342648 0.815213 0.846847 -0.327520
O16   O     O_R   0.270052 0.683567 0.734645 -0.380558

loop_
_geom_bond_atom_site_label_1
_geom_bond_atom_site_label_2
_geom_bond_distance
_ccdc_geom_bond_type
H2    C9    1.082780 S    
C4    C17   1.409714 S    
C33   H14   1.079728 S    
C21   C23   1.390227 A    
C27   C28   1.407599 A    
O5    C3    1.279880 A    
C12   H8    1.080570 S    
N6    O16   1.300962 A    
O1    C1    1.289672 A    
C16   C17   1.409424 A    
C7    C9    1.389198 A    
C12   C14   1.419479 A    
C33   C35   1.416117 A    
C30   N4    1.436737 S    
C34   C36   1.416116 A    
C19   C24   1.414217 A    
N1    C32   1.357983 A    
O4    Zn1   2.008492 S    
C23   N6    1.436997 S    
Zn1   N1    2.014631 S    
H1    C10   1.082791 S    
Zn2   N2    2.014632 S    
C3    C18   1.409712 S    
N4    O11   1.301371 A    
N3    O10   1.301273 A    
C29   N3    1.436734 S    
C25   H10   1.086212 S    
N2    C31   1.357983 A    
C8    H6    1.082870 S    
C34   H13   1.079729 S    
C22   C24   1.390237 A    
C35   C36   1.418142 A    
C1    C20   1.433858 S    
C15   C18   1.409426 A    
O2    C2    1.289672 A    
C29   C36   1.418945 A    
C26   C28   1.373046 A    
C30   C35   1.418945 A    
C29   C31   1.406030 A    
C13   C17   1.409746 A    
C22   C27   1.396223 A    
C30   C32   1.406030 A    
C32   H15   1.082420 S    
N6    O15   1.301325 A    
C5    C15   1.419773 A    
C6    C16   1.419770 A    
C20   C23   1.414205 A    
O4    C2    1.286691 A    
C7    H5    1.082871 S    
N5    O14   1.300980 A    
C20   C25   1.394617 A    
O7    Zn2   1.992517 S    
O7    C3    1.278694 A    
O6    C4    1.279877 A    
C31   H16   1.082419 S    
C2    C19   1.433858 S    
N1    C34   1.361660 A    
C25   C27   1.373049 A    
O3    Zn2   2.008492 S    
O8    C4    1.278699 A    
C21   C28   1.396229 A    
C21   H11   1.084678 S    
C8    C10   1.389197 A    
C14   C18   1.409748 A    
C11   H7    1.080570 S    
C9    C11   1.393488 A    
C5    H3    1.080835 S    
C10   C12   1.393483 A    
O1    Zn1   1.977947 S    
O6    Zn2   1.983570 S    
O3    C1    1.286691 A    
O8    Zn1   1.992516 S    
C26   H9    1.086214 S    
C13   C15   1.396058 A    
C14   C16   1.396058 A    
C19   C26   1.394615 A    
N5    O13   1.301361 A    
C22   H12   1.084682 S    
C24   N5    1.437016 S    
C5    C7    1.393267 A    
C6    C8    1.393271 A    
C11   C13   1.419475 A    
O2    Zn2   1.977947 S    
N2    C33   1.361658 A    
O5    Zn1   1.983571 S    
C6    H4    1.080833 S    
N4    O12   1.301266 A    
N3    O9    1.301370 A    
