data_mof_unit_58097.cif
_audit_creation_date              2012-12-10T16:48:43-0500
_audit_creation_method            fapswitch 2.2
_symmetry_space_group_name_H-M    P1
_symmetry_Int_Tables_number       1
_space_group_crystal_system       triclinic
_cell_length_a                    7.84463
_cell_length_b                    8.578562
_cell_length_c                    10.814404
_cell_angle_alpha                 88.633996
_cell_angle_beta                  100.339206
_cell_angle_gamma                 92.711019
_cell_volume                      715.056674113

loop_
_atom_site_label
_atom_site_type_symbol
_atom_type_description
_atom_site_fract_x
_atom_site_fract_y
_atom_site_fract_z
_atom_type_partial_charge
C1    C     C_R   0.543893 0.794183 0.496938 0.955976
C2    C     C_2   0.432865 0.042597 0.504765 -0.338108
C3    C     C_2   0.217051 0.606882 0.069787 0.397172
C4    C     C_2   0.808468 0.483057 0.928227 0.437107
C5    C     C_2   0.969227 0.422349 0.346575 0.767771
C6    C     C_2   0.032100 0.573047 0.654581 0.765305
C7    C     C_R   0.456088 0.205822 0.503003 0.983175
C8    C     C_R   0.573577 0.487798 0.736088 0.872648
C9    C     C_R   0.428092 0.518939 0.264473 0.851546
C10   C     C_2   0.622105 0.480004 0.872392 -0.229869
C11   C     C_2   0.388564 0.550559 0.129393 -0.373898
C12   C     C_2   0.495957 0.469043 0.942104 0.461668
C13   C     C_2   0.520420 0.548016 0.064937 0.427730
C14   C     C_2   0.567067 0.957402 0.495031 -0.348517
H1    H     H_    0.694416 0.007006 0.485611 0.207561
H2    H     H_    0.305509 0.992989 0.514165 0.207934
H3    H     H_    0.665248 0.701941 0.171406 0.342725
H4    H     H_    0.284622 0.350375 0.962390 0.340419
H5    H     H_    0.109414 0.598406 0.119576 0.124967
H6    H     H_    0.899110 0.555646 0.886007 0.122606
H7    H     H_    0.984240 0.515247 0.279690 0.035415
H8    H     H_    0.015424 0.477292 0.719109 0.030964
N1    N     N_2   0.940600 0.458860 0.467170 -0.211421
N2    N     N_2   0.059400 0.541140 0.532830 -0.208657
O1    O     O_R   0.391630 0.738350 0.508060 -0.608994
O2    O     O_3   0.339980 0.392164 0.892452 -0.749662
O3    O     O_2   0.197677 0.672246 0.966977 -0.518692
O4    O     O_2   0.861602 0.399318 0.018495 -0.532899
O5    O     O_2   0.966347 0.286463 0.315285 -0.564597
O6    O     O_2   0.037204 0.707654 0.689362 -0.563473
O7    O     O_R   0.608370 0.261650 0.491940 -0.605706
O8    O     O_R   0.674540 0.711990 0.487010 -0.623135
O9    O     O_R   0.325460 0.288010 0.512990 -0.607300
O10   O     O_R   0.411370 0.508250 0.688780 -0.547302
O11   O     O_R   0.588630 0.491750 0.311220 -0.585875
O12   O     O_R   0.694270 0.481880 0.667740 -0.677802
O13   O     O_R   0.305730 0.518120 0.332260 -0.662459
O14   O     O_3   0.680871 0.618753 0.112617 -0.761773
Zn1   Zn    Zn3+2 0.311100 0.517600 0.514050 1.003931
Zn2   Zn    Zn3+2 0.688900 0.482400 0.485950 0.983522

loop_
_geom_bond_atom_site_label_1
_geom_bond_atom_site_label_2
_ccdc_geom_bond_type
N1    N2    D    
C3    H5    S    
C2    H2    S    
C2    C7    S    
C5    N1    S    
O12   Zn2   S    
C6    N2    S    
C6    H8    S    
C9    O13   A    
O11   Zn2   S    
C5    H7    S    
O13   Zn1   S    
C8    O10   A    
O1    Zn1   S    
C1    O1    A    
C9    C11   S    
C13   O14   S    
O9    Zn1   S    
C10   C12   D    
C3    O3    D    
C4    O4    D    
C5    O5    D    
H3    O14   S    
O8    Zn2   S    
C2    C14   D    
C7    O7    A    
C7    O9    A    
C4    C10   S    
N1    Zn2   S    
C4    H6    S    
C11   C13   D    
N2    Zn1   S    
C3    C11   S    
C12   C13   S    
C8    C10   S    
C8    O12   A    
C9    O11   A    
C14   H1    S    
C1    C14   S    
C6    O6    D    
O7    Zn2   S    
C1    O8    A    
O10   Zn1   S    
C12   O2    S    
H4    O2    S    
