data_mof_unit_33040.cif
_audit_creation_date              2012-12-10T20:37:25-0500
_audit_creation_method            fapswitch 2.2
_symmetry_space_group_name_H-M    P1
_symmetry_Int_Tables_number       1
_space_group_crystal_system       triclinic
_cell_length_a                    15.743891
_cell_length_b                    10.857922
_cell_length_c                    9.919837
_cell_angle_alpha                 90.628973
_cell_angle_beta                  89.807732
_cell_angle_gamma                 91.897906
_cell_volume                      1694.71590394

loop_
_atom_site_label
_atom_site_type_symbol
_atom_type_description
_atom_site_fract_x
_atom_site_fract_y
_atom_site_fract_z
_atom_type_partial_charge
C1    C     C_R   0.503459 0.261000 0.498575 0.897248
C2    C     C_3   0.084643 0.509604 0.500685 -0.082503
C3    C     C_3   0.973869 0.621157 0.526878 0.353015
C4    C     C_3   0.916178 0.505988 0.499110 -0.087168
C5    C     C_3   0.029877 0.585821 0.406099 0.318074
C6    C     C_3   0.972828 0.470733 0.378372 -0.000943
C7    C     C_1   0.175075 0.508975 0.500233 0.094589
C8    C     C_1   0.825559 0.503697 0.499221 0.119493
C9    C     C_R   0.516149 0.065021 0.611053 -0.058619
C10   C     C_R   0.509047 0.130196 0.493216 -0.179282
C11   C     C_R   0.504127 0.063737 0.369486 0.169138
C12   C     C_R   0.338335 0.501698 0.500048 0.901614
C13   C     C_R   0.491482 0.935388 0.372373 0.152072
C14   C     C_R   0.500325 0.871571 0.496293 -0.183757
C15   C     C_R   0.514913 0.941189 0.612513 -0.099815
C16   C     C_3   0.522436 0.937798 0.763711 0.609668
C17   C     C_3   0.522992 0.081091 0.760849 -0.068699
C18   C     C_R   0.438218 0.437419 0.070553 -0.055033
C19   C     C_R   0.565068 0.554734 0.071545 0.405612
C20   C     C_R   0.564986 0.554773 0.928842 0.455544
C21   C     C_R   0.440292 0.429395 0.928644 -0.006148
C22   C     C_3   0.343916 0.432465 0.921579 -0.100172
C23   C     C_R   0.498623 0.739632 0.499951 0.905686
C24   C     C_3   0.344530 0.456514 0.074732 0.575884
C25   C     C_R   0.661801 0.500378 0.499827 0.870477
C26   C     C_3   0.971036 0.429827 0.593817 0.318737
C27   C     C_3   0.026967 0.394503 0.473116 0.343415
C28   C     C_1   0.249996 0.506276 0.499984 -0.163013
C29   C     C_1   0.750444 0.501894 0.499427 -0.132302
C30   C     C_3   0.028161 0.544834 0.621527 0.002577
H1    H     H_    0.465460 0.121707 0.806317 0.135540
H2    H     H_    0.319320 0.508862 0.860636 0.161714
N1    N     N_R   0.499430 0.499140 0.142800 -0.193304
N2    N     N_R   0.499430 0.499180 0.857150 -0.191624
O1    O     O_R   0.500010 0.316790 0.614690 -0.630134
O2    O     O_R   0.500000 0.316760 0.385350 -0.576697
O3    O     O_R   0.376780 0.500010 0.614650 -0.631654
O4    O     O_R   0.376770 0.499970 0.385310 -0.555080
O5    O     O_R   0.500000 0.683240 0.614650 -0.608161
O6    O     O_R   0.499990 0.683210 0.385310 -0.663667
O7    O     O_R   0.623230 0.500030 0.614690 -0.613858
O8    O     O_R   0.623220 0.499990 0.385350 -0.608419
Zn1   Zn    Zn3+2 0.500010 0.500020 0.653130 0.959941
Zn2   Zn    Zn3+2 0.499990 0.499980 0.346870 0.976634
O9    O     O_3   0.056729 0.276716 0.446995 -0.742064
H3    H     H_    0.005062 0.223298 0.434116 0.356461
N3    N     N_2   0.601258 0.884932 0.807862 -0.273987
H4    H     H_    0.654531 0.906848 0.751228 0.217090
C31   C     C_3   0.616048 0.885255 0.951800 -0.616219
H5    H     H_    0.677105 0.841145 0.973126 0.266649
H6    H     H_    0.564508 0.831821 0.002865 0.254083
H7    H     H_    0.619467 0.980508 0.993211 0.210438
N4    N     N_2   0.601946 0.141024 0.809117 -0.303686
H8    H     H_    0.593053 0.206679 0.883290 0.235284
C32   C     C_3   0.671113 0.171723 0.717097 -0.662844
H9    H     H_    0.655947 0.253555 0.657169 0.246529
H10   H     H_    0.684374 0.093421 0.648306 0.222916
H11   H     H_    0.729597 0.193862 0.775932 0.249512
O10   O     O_3   0.630277 0.618980 0.135286 -0.734001
H12   H     H_    0.607789 0.651172 0.220864 0.361176
O11   O     O_3   0.630855 0.616540 0.865318 -0.710539
H13   H     H_    0.608389 0.648051 0.780439 0.382677
N5    N     N_2   0.302954 0.312857 0.891145 -0.306831
H14   H     H_    0.243142 0.303043 0.933361 0.260811
C33   C     C_3   0.301188 0.272226 0.752514 -0.737484
H15   H     H_    0.276418 0.175368 0.747017 0.227295
H16   H     H_    0.365596 0.274663 0.709804 0.281852
H17   H     H_    0.258482 0.330025 0.693543 0.238794
N6    N     N_2   0.323385 0.582289 0.109372 -0.289615
H18   H     H_    0.358961 0.648296 0.058135 0.189909
C34   C     C_3   0.233382 0.606341 0.110822 -0.669366
H19   H     H_    0.223611 0.703789 0.139872 0.242009
H20   H     H_    0.199795 0.547145 0.185871 0.304224
H21   H     H_    0.205360 0.589202 0.009442 0.201219
O12   O     O_3   0.299220 0.369966 0.155013 -0.735659
H22   H     H_    0.325574 0.288895 0.145128 0.332360
O13   O     O_3   0.938412 0.348197 0.690485 -0.747112
H23   H     H_    0.988800 0.315455 0.735797 0.340578
N7    N     N_2   0.940347 0.431390 0.247961 -0.287088
H24   H     H_    0.895875 0.489625 0.210717 0.244861
C35   C     C_3   0.004202 0.400006 0.149456 -0.695211
H25   H     H_    0.972689 0.363506 0.056667 0.231129
H26   H     H_    0.045519 0.327813 0.188679 0.282309
H27   H     H_    0.043765 0.482804 0.123029 0.243730
O14   O     O_3   0.062458 0.667759 0.309743 -0.766913
H28   H     H_    0.012105 0.699570 0.263510 0.346616
O15   O     O_3   0.944141 0.738939 0.553066 -0.742751
H29   H     H_    0.995830 0.792382 0.565621 0.355708
N8    N     N_2   0.061556 0.583614 0.751572 -0.299795
H30   H     H_    0.105371 0.524209 0.788602 0.219358
C36   C     C_3   0.998602 0.617227 0.850520 -0.684579
H31   H     H_    0.030977 0.651445 0.943566 0.221178
H32   H     H_    0.957126 0.536076 0.876109 0.258854
H33   H     H_    0.959131 0.691908 0.812069 0.281263
N9    N     N_2   0.522120 0.123384 0.244319 -0.271024
H34   H     H_    0.582707 0.109626 0.208747 0.214572
C37   C     C_3   0.458023 0.116909 0.140064 -0.702208
H35   H     H_    0.467273 0.036045 0.072946 0.255522
H36   H     H_    0.464910 0.199352 0.076249 0.223057
H37   H     H_    0.393281 0.112164 0.184544 0.244734
N10   N     N_2   0.459434 0.876459 0.253615 -0.294676
H38   H     H_    0.496804 0.814222 0.204600 0.241308
C38   C     C_3   0.368614 0.851714 0.252037 -0.730330
H39   H     H_    0.346336 0.849464 0.146125 0.240615
H40   H     H_    0.334388 0.925597 0.305893 0.238730
H41   H     H_    0.353009 0.762337 0.300877 0.265128
O16   O     O_3   0.450509 0.882793 0.826665 -0.779922
H42   H     H_    0.398897 0.919983 0.789474 0.316743

loop_
_geom_bond_atom_site_label_1
_geom_bond_atom_site_label_2
_ccdc_geom_bond_type
O15   H29   S    
N5    C33   S    
N10   H38   S    
C18   C21   A    
N9    H34   S    
C4    C8    S    
C37   H37   S    
C37   H35   S    
N3    C31   S    
O13   H23   S    
C26   C27   S    
C22   H2    S    
C12   C28   S    
C18   C24   S    
C8    C29   T    
C5    C6    S    
C15   C16   S    
C12   O3    A    
C20   O11   S    
N6    C34   S    
C2    C7    S    
C37   H36   S    
C22   N5    S    
N3    H4    S    
C16   C17   S    
C31   H6    S    
O16   H42   S    
C2    C27   S    
N8    C36   S    
O1    Zn1   S    
C9    C10   A    
C16   O16   S    
C20   N2    A    
C31   H7    S    
O10   H12   S    
N10   C38   S    
C21   C22   S    
O7    Zn1   S    
O11   H13   S    
O8    Zn2   S    
C30   N8    S    
C16   N3    S    
C35   H26   S    
C24   N6    S    
C35   H25   S    
N4    C32   S    
C25   C29   S    
C26   O13   S    
C1    C10   S    
C3    O15   S    
C4    C6    S    
C19   N1    A    
C25   O7    A    
C36   H31   S    
N7    C35   S    
O5    Zn1   S    
C21   N2    A    
C33   H16   S    
O14   H28   S    
C7    C28   T    
N5    H14   S    
C14   C23   S    
O3    Zn1   S    
C3    C30   S    
O12   H22   S    
O4    Zn2   S    
C36   H32   S    
C6    C27   S    
C33   H17   S    
C32   H9    S    
C38   H40   S    
C9    C17   S    
C26   C30   S    
C32   H10   S    
C17   H1    S    
C22   C24   S    
O2    Zn2   S    
C2    C5    S    
C13   N10   S    
C3    C4    S    
C17   N4    S    
C35   H27   S    
C1    O1    A    
C34   H20   S    
C11   N9    S    
N1    Zn2   S    
N2    Zn1   S    
C3    C5    S    
C25   O8    A    
C34   H21   S    
C4    C26   S    
N9    C37   S    
C24   O12   S    
N4    H8    S    
C2    C30   S    
C19   O10   S    
C19   C20   A    
C9    C15   A    
C5    O14   S    
C34   H19   S    
C36   H33   S    
C11   C13   A    
C27   O9    S    
C6    N7    S    
C23   O5    A    
C38   H41   S    
C33   H15   S    
C12   O4    A    
N6    H18   S    
C18   N1    A    
C10   C11   A    
N7    H24   S    
O9    H3    S    
O6    Zn2   S    
C31   H5    S    
C32   H11   S    
C38   H39   S    
C14   C15   A    
N8    H30   S    
C13   C14   A    
C23   O6    A    
C1    O2    A    
