data_mof_unit_25204.cif
_audit_creation_date              2012-12-11T16:29:29-0500
_audit_creation_method            fapswitch 2.2
_symmetry_space_group_name_H-M    P1
_symmetry_Int_Tables_number       1
_space_group_crystal_system       triclinic
_cell_length_a                    6.947881
_cell_length_b                    17.475021
_cell_length_c                    18.626304
_cell_angle_alpha                 106.14741
_cell_angle_beta                  89.297997
_cell_angle_gamma                 90.311019
_cell_volume                      2172.11538122

loop_
_atom_site_label
_atom_site_type_symbol
_atom_type_description
_atom_site_fract_x
_atom_site_fract_y
_atom_site_fract_z
_atom_type_partial_charge
O1    O     O_R   0.494360 0.415680 0.413760 -0.541403
O2    O     O_R   0.818810 0.432910 0.557230 -0.527699
O3    O     O_R   0.994290 0.584320 0.586240 -0.541026
C1    C     C_R   0.649489 0.416001 0.580665 0.707230
O4    O     O_R   0.823740 0.406440 0.412520 -0.510489
O5    O     O_R   0.999250 0.557660 0.440500 -0.505776
C2    C     C_R   0.655674 0.384800 0.383750 0.784717
O6    O     O_R   0.489400 0.442340 0.559500 -0.521963
O7    O     O_3   0.662500 0.549650 0.509350 -0.376676
V1    V     V_3+5 0.935340 0.490790 0.498270 1.476642
O8    O     O_R   0.329270 0.567090 0.442770 -0.539541
C3    C     C_R   0.161135 0.585142 0.420401 0.765424
O9    O     O_R   0.324340 0.593560 0.587480 -0.548046
C4    C     C_R   0.153963 0.616891 0.614742 0.670845
V2    V     V_3+5 0.435970 0.509210 0.501730 1.403790
O10   O     O_3   0.158940 0.450350 0.490650 -0.351876
C5    C     C_R   0.322871 0.609549 0.754098 -0.152554
C6    C     C_R   0.402551 0.603319 0.820447 -0.121093
C7    C     C_R   0.388479 0.666371 0.884839 -0.108242
C8    C     C_R   0.296135 0.736374 0.883199 -0.141371
C9    C     C_R   0.217929 0.745487 0.816106 0.065754
C10   C     C_R   0.229877 0.680302 0.750308 0.067775
C11   C     C_R   0.127618 0.817653 0.814064 -0.132955
C12   C     C_R   0.049479 0.824378 0.745516 -0.043909
C13   C     C_R   0.037098 0.755168 0.683498 0.010911
C14   C     C_R   0.140333 0.685123 0.683655 -0.143236
C15   C     C_R   0.984769 0.898333 0.735754 -0.160773
C16   C     C_R   0.866225 0.898727 0.674904 0.366061
C17   C     C_R   0.821872 0.827141 0.621904 0.342019
C18   C     C_R   0.922527 0.758347 0.622176 -0.337390
H1    H     H_    0.332016 0.557468 0.706554 0.113829
H2    H     H_    0.472890 0.548724 0.822149 0.117133
H3    H     H_    0.448150 0.660834 0.936579 0.121624
H4    H     H_    0.286339 0.782701 0.935424 0.106444
H5    H     H_    0.905479 0.707993 0.573840 0.162261
C19   C     C_1   0.111363 0.865185 0.133817 -0.213990
C20   C     C_1   0.118970 0.823588 0.178286 0.004894
C21   C     C_1   0.128609 0.774533 0.231231 0.017213
C22   C     C_1   0.136801 0.733003 0.275732 0.004330
C23   C     C_1   0.146171 0.683039 0.327844 -0.025095
C24   C     C_1   0.153338 0.639329 0.370432 -0.170056
C25   C     C_1   0.640151 0.364180 0.632781 -0.174331
C26   C     C_1   0.635465 0.321698 0.676472 0.015392
C27   C     C_1   0.631725 0.271646 0.728514 -0.016536
C28   C     C_1   0.629409 0.229460 0.772471 -0.013207
C29   C     C_1   0.627192 0.179345 0.824443 0.042327
C30   C     C_1   0.624004 0.136794 0.868068 -0.149384
C31   C     C_R   0.813161 0.394719 0.236441 0.305683
C32   C     C_R   0.910588 0.394934 0.169432 -0.144547
C33   C     C_R   0.891925 0.329883 0.106159 0.342827
C34   C     C_R   0.792388 0.262433 0.111603 -0.248884
C35   C     C_R   0.712529 0.256600 0.179997 -0.024245
C36   C     C_R   0.724005 0.323455 0.244616 -0.038454
C37   C     C_R   0.619063 0.185334 0.183550 -0.118719
C38   C     C_R   0.540262 0.179575 0.252348 0.082450
C39   C     C_R   0.555252 0.244757 0.317750 0.041333
C40   C     C_R   0.645249 0.317096 0.314250 -0.159006
C41   C     C_R   0.451253 0.108409 0.257849 -0.179647
C42   C     C_R   0.378584 0.101315 0.325648 -0.158944
C43   C     C_R   0.394438 0.164384 0.390648 0.036338
C44   C     C_R   0.483294 0.235242 0.386411 -0.197358
H6    H     H_    0.783156 0.213997 0.061015 0.138022
H7    H     H_    0.438257 0.056784 0.210050 0.116166
H8    H     H_    0.311451 0.045694 0.327192 0.155716
H9    H     H_    0.497908 0.282372 0.437755 0.139951
O11   O     O_R   0.775690 0.057750 0.940570 -0.502659
O12   O     O_R   0.441200 0.093570 0.087490 -0.538166
O13   O     O_R   0.265840 0.942320 0.059480 -0.531633
C45   C     C_R   0.609334 0.115915 0.115603 0.675846
O14   O     O_R   0.446270 0.067110 0.942790 -0.529869
O15   O     O_R   0.270950 0.915660 0.913750 -0.523090
C46   C     C_R   0.615522 0.084527 0.919808 0.744013
O16   O     O_R   0.770580 0.084400 0.086300 -0.537001
O17   O     O_3   0.602640 0.950400 0.990690 -0.365113
V3    V     V_3+5 0.329740 0.009200 0.001730 1.460397
O18   O     O_R   0.940900 0.906360 0.912450 -0.536597
C47   C     C_R   0.111206 0.884452 0.884094 0.718755
O19   O     O_R   0.935830 0.932820 0.057160 -0.527174
C48   C     C_R   0.103763 0.916224 0.080882 0.696176
V4    V     V_3+5 0.829130 0.990680 0.998180 1.469564
O20   O     O_3   0.106100 0.049590 0.009310 -0.353635
O21   O     O_3   0.697857 0.827247 0.564408 -0.549739
C49   C     C_3   0.529187 0.784840 0.572796 0.121349
H10   H     H_    0.464909 0.808181 0.629889 0.136243
H11   H     H_    0.560219 0.720194 0.562066 0.129492
C50   C     C_3   0.381088 0.794244 0.516455 -0.673991
H12   H     H_    0.440172 0.771388 0.458795 0.220978
H13   H     H_    0.249235 0.759999 0.521752 0.157468
H14   H     H_    0.342581 0.858046 0.526891 0.230614
O22   O     O_3   0.799205 0.466116 0.291790 -0.541622
C51   C     C_3   0.637263 0.508065 0.277112 0.082014
H15   H     H_    0.503866 0.484757 0.297101 0.145361
H16   H     H_    0.621264 0.503673 0.216506 0.105206
C52   C     C_3   0.657998 0.595872 0.318057 -0.647824
H17   H     H_    0.785716 0.620583 0.296135 0.224140
H18   H     H_    0.529783 0.628842 0.308295 0.166820
H19   H     H_    0.673418 0.604220 0.378981 0.230438
C53   C     C_2   0.031962 0.463920 0.165982 0.834275
O23   O     O_2   0.035487 0.487130 0.109800 -0.557752
O24   O     O_R   0.147259 0.501019 0.226619 -0.663993
H20   H     H_    0.232681 0.543746 0.215739 0.277180
O25   O     O_3   0.986017 0.329274 0.040090 -0.536180
C54   C     C_3   0.849704 0.341198 0.988618 0.150226
H21   H     H_    0.767402 0.397345 0.012283 0.134826
H22   H     H_    0.747172 0.290329 0.972605 0.094853
C55   C     C_3   0.954448 0.347701 0.918371 -0.661350
H23   H     H_    0.031103 0.291182 0.891473 0.220629
H24   H     H_    0.849424 0.359617 0.878368 0.168688
H25   H     H_    0.060298 0.397342 0.932715 0.235578
C56   C     C_2   0.072456 0.975091 0.777113 0.771424
O26   O     O_2   0.973227 0.034589 0.799921 -0.543013
O27   O     O_R   0.272091 0.980281 0.784842 -0.660910
H26   H     H_    0.316496 0.037054 0.807239 0.293014
O28   O     O_3   0.793326 0.969743 0.667553 -0.524880
C57   C     C_3   0.904266 0.993969 0.613532 0.154880
H27   H     H_    0.871170 0.956133 0.556357 0.162741
H28   H     H_    0.061857 0.991088 0.623385 0.105446
C58   C     C_3   0.855179 0.079771 0.617608 -0.642970
H29   H     H_    0.895928 0.119390 0.673021 0.227568
H30   H     H_    0.935807 0.098537 0.573507 0.197837
H31   H     H_    0.698461 0.085546 0.609259 0.230956
C59   C     C_2   0.319973 0.156269 0.463299 0.736808
O29   O     O_2   0.247027 0.093612 0.467091 -0.571044
O30   O     O_R   0.332970 0.220291 0.527801 -0.672920
H32   H     H_    0.277737 0.207312 0.573694 0.294647

loop_
_geom_bond_atom_site_label_1
_geom_bond_atom_site_label_2
_ccdc_geom_bond_type
C38   C39   A    
C37   C38   A    
C7    C8    A    
C12   C15   A    
C1    O6    A    
O28   C57   S    
C28   C29   S    
C35   C36   A    
O13   V3    S    
C16   C17   A    
C42   H8    S    
C17   C18   A    
C55   H24   S    
C18   H5    S    
C19   C20   T    
O5    C3    A    
C21   C22   T    
O19   V4    S    
C55   H23   S    
C57   H27   S    
C53   O23   D    
C13   C18   A    
C39   C40   A    
C6    C7    A    
C56   O26   D    
O1    C2    A    
C32   C53   S    
C58   H29   S    
O8    V2    S    
O11   C46   A    
C15   C56   S    
C57   H28   S    
C11   C12   A    
C45   O16   A    
O1    V2    S    
O7    V1    S    
C52   H18   S    
C8    H4    S    
O13   C48   A    
C42   C43   A    
C31   O22   S    
O9    C4    A    
O25   C54   S    
C34   H6    S    
O27   H26   S    
C35   C37   A    
C33   C34   A    
C56   O27   S    
O18   C47   A    
C31   C36   A    
O17   V3    S    
C34   C35   A    
C12   C13   A    
C7    H3    S    
C51   H15   S    
O4    C2    A    
C36   C40   A    
O19   C48   A    
V3    O20   S    
C52   H19   S    
C13   C14   A    
O21   C49   S    
C4    C14   S    
C50   H14   S    
C43   C44   A    
O12   C45   A    
C58   H31   S    
O2    C1    A    
C26   C27   S    
C20   C21   S    
C51   H16   S    
C49   H10   S    
C57   C58   S    
C5    C6    A    
C54   H22   S    
C11   C47   S    
C43   C59   S    
O3    C4    A    
C16   O28   S    
C31   C32   A    
C49   H11   S    
C33   O25   S    
O6    V2    S    
C53   O24   S    
C9    C11   A    
C5    H1    S    
O12   V3    S    
C25   C26   T    
C59   O30   S    
O2    V1    S    
O15   C47   A    
C27   C28   T    
C3    C24   S    
C41   H7    S    
C29   C30   T    
C23   C24   T    
C50   H12   S    
O18   V4    S    
V4    O20   S    
O17   V4    S    
C19   C48   S    
O5    V1    S    
O8    C3    A    
O11   V4    S    
C5    C10   A    
O9    V2    S    
C41   C42   A    
C17   O21   S    
O3    V1    S    
V1    O10   S    
C51   C52   S    
O15   V3    S    
O22   C51   S    
C37   C45   S    
C1    C25   S    
O24   H20   S    
O16   V4    S    
C54   C55   S    
C50   H13   S    
O7    V2    S    
C52   H17   S    
C58   H30   S    
C30   C46   S    
C22   C23   S    
C44   H9    S    
O4    V1    S    
C49   C50   S    
C6    H2    S    
C8    C9    A    
O14   V3    S    
C32   C33   A    
C10   C14   A    
C38   C41   A    
C54   H21   S    
C39   C44   A    
O14   C46   A    
C59   O29   D    
C9    C10   A    
C2    C40   S    
V2    O10   S    
O30   H32   S    
C15   C16   A    
C55   H25   S    
