data_mof_unit_8089.cif
_audit_creation_date              2012-12-10T17:54:16-0500
_audit_creation_method            fapswitch 2.2
_symmetry_space_group_name_H-M    P1
_symmetry_Int_Tables_number       1
_space_group_crystal_system       triclinic
_cell_length_a                    27.60857
_cell_length_b                    10.710569
_cell_length_c                    10.028713
_cell_angle_alpha                 90.449097
_cell_angle_beta                  89.877461
_cell_angle_gamma                 92.228042
_cell_volume                      2963.18754351

loop_
_atom_site_label
_atom_site_type_symbol
_atom_type_description
_atom_site_fract_x
_atom_site_fract_y
_atom_site_fract_z
_atom_type_partial_charge
C1    C     C_R   0.498121 0.259430 0.499896 0.980560
C2    C     C_R   0.977314 0.405595 0.599591 -0.017565
C3    C     C_R   0.973506 0.622638 0.523829 0.018082
C4    C     C_R   0.406407 0.499257 0.499951 1.024653
C5    C     C_R   0.949904 0.508706 0.561412 0.048710
C6    C     C_R   0.953399 0.286038 0.610028 0.355293
C7    C     C_R   0.903191 0.274555 0.599372 -0.132705
C8    C     C_R   0.875617 0.378906 0.575963 -0.112476
C9    C     C_R   0.898797 0.497096 0.557669 -0.113437
C10   C     C_R   0.871028 0.602901 0.533410 -0.120809
C11   C     C_R   0.820193 0.586250 0.531571 0.544188
C12   C     C_R   0.273137 0.421422 0.483277 -0.159032
C13   C     C_R   0.825260 0.366347 0.563331 0.632857
C14   C     C_R   0.717428 0.416538 0.630870 0.467194
C15   C     C_R   0.667055 0.416099 0.615613 0.332001
C16   C     C_R   0.506190 0.739022 0.501709 0.927551
C17   C     C_R   0.676930 0.511184 0.395119 0.470687
C18   C     C_R   0.727033 0.493552 0.405828 -0.301111
C19   C     C_R   0.747326 0.455543 0.525206 0.059300
C20   C     C_R   0.027647 0.426513 0.620482 0.009207
C21   C     C_R   0.051533 0.531485 0.562217 0.089295
C22   C     C_R   0.024411 0.627331 0.507312 0.024560
C23   C     C_R   0.254153 0.537632 0.514484 0.084985
C24   C     C_R   0.054360 0.350163 0.703307 -0.176575
C25   C     C_R   0.098996 0.726015 0.420310 0.454838
C26   C     C_R   0.945576 0.727790 0.503582 -0.232812
C27   C     C_R   0.895243 0.719944 0.510668 0.449843
C28   C     C_R   0.593882 0.494063 0.500116 0.888207
C29   C     C_R   0.048895 0.723674 0.436638 -0.222893
C30   C     C_R   0.465728 0.104379 0.734596 0.323402
C31   C     C_R   0.474985 0.053981 0.860214 0.458199
C32   C     C_R   0.499852 0.943678 0.869697 0.308654
C33   C     C_R   0.517045 0.887467 0.755642 -0.228642
C34   C     C_R   0.102700 0.540064 0.558754 -0.153417
C35   C     C_R   0.508253 0.937902 0.629021 -0.076654
C36   C     C_R   0.489721 0.056968 0.619979 -0.141101
C37   C     C_R   0.500124 0.124732 0.500873 -0.232144
C38   C     C_R   0.523593 0.066148 0.392481 0.461769
C39   C     C_R   0.529683 0.938702 0.395135 0.477040
C40   C     C_R   0.180440 0.463765 0.623451 0.559049
C41   C     C_R   0.516769 0.872563 0.509700 -0.284118
C42   C     C_R   0.415124 0.422795 0.123636 0.349240
C43   C     C_R   0.370761 0.454101 0.068379 0.243263
C44   C     C_R   0.370524 0.530560 0.955379 0.324098
C45   C     C_R   0.129645 0.454432 0.632190 -0.093831
C46   C     C_R   0.414316 0.557041 0.886524 0.350859
C47   C     C_R   0.457464 0.504553 0.931719 -0.062191
C48   C     C_R   0.458195 0.474304 0.069133 -0.075198
C49   C     C_R   0.541548 0.517559 0.072220 -0.182955
C50   C     C_R   0.542039 0.513709 0.928609 0.565854
C51   C     C_R   0.177009 0.626450 0.462499 0.671933
C52   C     C_R   0.285421 0.643685 0.532953 0.556385
C53   C     C_R   0.335789 0.628638 0.523970 -0.361166
C54   C     C_R   0.322763 0.406333 0.481049 0.417812
C55   C     C_3   0.289156 0.860356 0.517423 -0.012636
C56   C     C_R   0.104576 0.363293 0.710969 0.450414
C57   C     C_3   0.687626 0.651303 0.219238 -0.357351
C58   C     C_3   0.586777 0.174260 0.294680 -0.284511
C59   C     C_3   0.507748 0.196591 0.000134 -0.123611
C60   C     C_3   0.596435 0.841928 0.316301 -0.277136
C61   C     C_3   0.300286 0.511149 0.839253 0.006919
C62   C     C_3   0.613670 0.628617 0.900371 -0.313155
C63   C     C_3   0.628703 0.239877 0.693240 -0.187271
C64   C     C_3   0.743540 0.473765 0.837357 -0.234624
C65   C     C_R   0.126614 0.633074 0.480424 -0.133435
C66   C     C_R   0.354244 0.510744 0.499748 -0.200062
C67   C     C_R   0.646579 0.473555 0.502673 -0.347384
Cl1   Cl    Cl    0.343368 0.253653 0.466585 -0.454130
Cl2   Cl    Cl    0.983748 0.143683 0.608395 -0.551749
Cl3   Cl    Cl    0.124335 0.853202 0.329301 -0.428890
Cl4   Cl    Cl    0.865767 0.861286 0.484986 -0.485641
Cl5   Cl    Cl    0.418090 0.209602 0.726094 -0.497127
Cl6   Cl    Cl    0.507049 0.870127 0.023025 -0.489868
Cl7   Cl    Cl    0.416606 0.286436 0.219346 -0.392912
Cl8   Cl    Cl    0.316081 0.408177 0.148146 -0.462556
Cl9   Cl    Cl    0.417145 0.695271 0.792730 -0.514744
Cl10  Cl    Cl    0.132759 0.258618 0.818737 -0.415736
H1    H     H_    0.962408 0.819018 0.486546 0.210482
H2    H     H_    0.297890 0.845037 0.410129 0.172803
H3    H     H_    0.322233 0.888787 0.574639 0.175819
H4    H     H_    0.264360 0.939301 0.522722 0.223705
H5    H     H_    0.713874 0.604877 0.153040 0.175739
H6    H     H_    0.706434 0.714954 0.292581 0.207656
H7    H     H_    0.665944 0.710770 0.154890 0.165744
H8    H     H_    0.598344 0.222933 0.202044 0.193736
H9    H     H_    0.611635 0.096785 0.310199 0.156857
H10   H     H_    0.590653 0.243089 0.377408 0.134668
H11   H     H_    0.515609 0.262892 0.917610 0.102339
H12   H     H_    0.751527 0.516650 0.324645 0.184057
H13   H     H_    0.539925 0.139165 0.016495 0.171404
H14   H     H_    0.502498 0.251444 0.091963 0.248264
H15   H     H_    0.620517 0.866703 0.231357 0.187747
H16   H     H_    0.595198 0.739255 0.328376 0.224870
H17   H     H_    0.613184 0.886322 0.407141 0.096667
H18   H     H_    0.283025 0.433237 0.896595 0.225710
H19   H     H_    0.321347 0.472539 0.755106 0.124334
H20   H     H_    0.270725 0.566016 0.797888 0.202696
H21   H     H_    0.635752 0.661872 0.814213 0.184924
H22   H     H_    0.638954 0.600165 0.978664 0.177582
H23   H     H_    0.029444 0.795408 0.386959 0.192831
H24   H     H_    0.592064 0.708380 0.935287 0.167982
H25   H     H_    0.662712 0.187670 0.685926 0.177785
H26   H     H_    0.606464 0.224803 0.602086 0.093239
H27   H     H_    0.607354 0.200853 0.778141 0.164504
H28   H     H_    0.708263 0.513922 0.863840 0.170858
H29   H     H_    0.768844 0.547657 0.797078 0.157427
H30   H     H_    0.759625 0.438905 0.930554 0.192179
H31   H     H_    0.248908 0.340563 0.468167 0.223031
H32   H     H_    0.538735 0.806528 0.768002 0.202213
H33   H     H_    0.575113 0.530891 0.126423 0.200349
H34   H     H_    0.885862 0.182271 0.606287 0.242935
H35   H     H_    0.036197 0.282573 0.767505 0.223030
H36   H     H_    0.360957 0.706898 0.541838 0.200208
N1    N     N_R   0.202751 0.544552 0.535350 -0.339092
N2    N     N_R   0.798786 0.469170 0.541917 -0.327800
N3    N     N_R   0.499540 0.498800 0.142780 -0.103356
N4    N     N_R   0.499520 0.498720 0.857170 -0.122509
O1    O     O_R   0.500000 0.316780 0.614690 -0.618031
O2    O     O_R   0.571250 0.499990 0.614680 -0.531992
O3    O     O_R   0.571240 0.499970 0.385350 -0.616670
O4    O     O_2   0.207739 0.391441 0.699997 -0.513960
O5    O     O_3   0.265650 0.754748 0.575784 -0.599144
O6    O     O_3   0.656390 0.561478 0.281519 -0.605169
O7    O     O_3   0.538162 0.130694 0.279530 -0.551783
O8    O     O_3   0.465511 0.121715 0.973899 -0.500599
O9    O     O_3   0.549557 0.881226 0.285464 -0.505393
O10   O     O_3   0.329069 0.590976 0.921432 -0.536484
O11   O     O_3   0.585184 0.523279 0.859405 -0.536254
O12   O     O_2   0.802902 0.252237 0.570454 -0.500544
O13   O     O_3   0.638289 0.368217 0.717457 -0.514238
O14   O     O_3   0.737297 0.372862 0.747188 -0.554655
O15   O     O_2   0.200143 0.697334 0.369974 -0.448340
O16   O     O_2   0.791886 0.685248 0.519221 -0.502727
O17   O     O_R   0.500000 0.316750 0.385360 -0.546828
O18   O     O_R   0.428760 0.500030 0.614650 -0.574387
O19   O     O_R   0.428750 0.500010 0.385320 -0.591234
O20   O     O_R   0.500000 0.683250 0.614640 -0.593018
O21   O     O_R   0.500000 0.683220 0.385310 -0.559794
Zn1   Zn    Zn3+2 0.500000 0.500020 0.653130 1.050141
Zn2   Zn    Zn3+2 0.500000 0.499980 0.346870 1.045944

loop_
_geom_bond_atom_site_label_1
_geom_bond_atom_site_label_2
_ccdc_geom_bond_type
C10   C27   A    
C6    Cl2   S    
C4    C66   S    
C44   O10   S    
C8    C13   A    
C22   C29   A    
C50   N4    A    
C35   C36   A    
C24   H35   S    
O19   Zn2   S    
C58   H10   S    
C46   Cl9   S    
C61   H19   S    
C7    C8    A    
C39   C41   A    
C2    C6    A    
O18   Zn1   S    
C40   O4    S    
O20   Zn1   S    
C12   C23   A    
C26   C27   A    
C26   H1    S    
C36   C37   A    
C11   O16   S    
O17   Zn2   S    
C30   C31   A    
C31   C32   A    
C54   Cl1   S    
C18   C19   A    
C51   C65   A    
C63   O13   S    
C59   H11   S    
C62   H21   S    
C52   O5    S    
C17   O6    S    
C40   N1    A    
C20   C24   A    
C45   C56   A    
C44   C46   A    
C8    C9    A    
C57   H6    S    
O3    Zn2   S    
C55   H4    S    
C11   N2    A    
C9    C10   A    
C1    C37   S    
C48   N3    A    
C62   H24   S    
C60   H16   S    
C55   O5    S    
C39   O9    S    
C21   C22   A    
C43   Cl8   S    
N4    Zn1   S    
C63   H25   S    
C58   H9    S    
C34   C65   A    
C53   H36   S    
C14   O14   S    
C60   H15   S    
C25   C29   A    
C40   C45   A    
C16   O21   A    
C42   Cl7   S    
C51   N1    A    
C17   C67   A    
C2    C20   A    
C64   H28   S    
C28   C67   S    
C25   C65   A    
C63   H26   S    
C28   O3    A    
C32   Cl6   S    
C12   H31   S    
C42   C48   A    
C21   C34   A    
C56   Cl10  S    
C59   H13   S    
C43   C44   A    
C5    C9    A    
C37   C38   A    
C57   O6    S    
C55   H2    S    
C47   C48   A    
C64   O14   S    
C19   N2    S    
C15   C67   A    
C17   C18   A    
C57   H7    S    
C61   O10   S    
C34   C45   A    
C59   H14   S    
C53   C66   A    
C13   N2    A    
O21   Zn2   S    
C4    O18   A    
C2    C5    A    
C33   H32   S    
C42   C43   A    
C31   O8    S    
O1    Zn1   S    
C58   H8    S    
C27   Cl4   S    
C52   C53   A    
C64   H30   S    
C46   C47   A    
C16   O20   A    
C29   H23   S    
C57   H5    S    
C18   H12   S    
C14   C19   A    
C3    C26   A    
C61   H20   S    
C63   H27   S    
C3    C5    A    
C28   O2    A    
C30   Cl5   S    
C51   O15   S    
C61   H18   S    
C64   H29   S    
C6    C7    A    
C54   C66   A    
C24   C56   A    
C58   O7    S    
C30   C36   A    
O2    Zn1   S    
C32   C33   A    
C60   O9    S    
C59   O8    S    
C23   N1    S    
C62   O11   S    
C55   H3    S    
C23   C52   A    
C38   C39   A    
C15   O13   S    
C33   C35   A    
C7    H34   S    
C1    O1    A    
C35   C41   A    
C12   C54   A    
C10   C11   A    
C62   H22   S    
C4    O19   A    
C47   N4    A    
C49   N3    A    
C50   O11   S    
C20   C21   A    
C49   C50   A    
C13   O12   S    
C14   C15   A    
C3    C22   A    
C25   Cl3   S    
C16   C41   S    
C38   O7    S    
C1    O17   A    
C49   H33   S    
N3    Zn2   S    
C60   H17   S    
