data_mof_unit_8191.cif
_audit_creation_date              2012-12-10T19:45:39-0500
_audit_creation_method            fapswitch 2.2
_symmetry_space_group_name_H-M    P1
_symmetry_Int_Tables_number       1
_space_group_crystal_system       triclinic
_cell_length_a                    10.783683
_cell_length_b                    14.852095
_cell_length_c                    14.988166
_cell_angle_alpha                 64.045842
_cell_angle_beta                  105.451771
_cell_angle_gamma                 102.620292
_cell_volume                      2065.96206353

loop_
_atom_site_label
_atom_site_type_symbol
_atom_type_description
_atom_site_fract_x
_atom_site_fract_y
_atom_site_fract_z
_atom_type_partial_charge
C1    C     C_R   0.479441 0.119529 0.312942 0.787700
C2    C     C_R   0.523491 0.880360 0.687215 0.820601
C3    C     C_R   0.870029 0.002620 0.494869 -0.073010
C4    C     C_R   0.129296 0.998761 0.503027 -0.048687
C5    C     C_R   0.903331 0.968964 0.430450 0.024943
C6    C     C_R   0.095659 0.033060 0.566670 0.051849
C7    C     C_R   0.468976 0.187218 0.205725 -0.009544
C8    C     C_R   0.546447 0.812076 0.794650 -0.062909
C9    C     C_R   0.393666 0.219785 0.028868 -0.225674
C10   C     C_R   0.643322 0.778547 0.969539 -0.204494
C11   C     C_R   0.408669 0.152484 0.129835 -0.201669
C12   C     C_R   0.613926 0.846870 0.869347 -0.216623
C13   C     C_R   0.518198 0.288723 0.179722 -0.203109
C14   C     C_R   0.505353 0.709314 0.821481 -0.235288
C15   C     C_R   0.500338 0.359109 0.078678 0.078428
C16   C     C_R   0.539754 0.638180 0.920817 0.091413
C17   C     C_R   0.436194 0.322738 0.003030 0.169541
C18   C     C_R   0.608382 0.674688 0.995504 0.165420
C19   C     C_R   0.539843 0.464507 0.051023 0.062315
C20   C     C_R   0.508020 0.532340 0.947782 0.067429
C21   C     C_R   0.447123 0.491978 0.874804 -0.214666
C22   C     C_R   0.608905 0.504533 0.122921 -0.177338
C23   C     C_R   0.263234 0.998994 0.501939 0.790111
C24   C     C_R   0.736548 0.001288 0.497559 0.822487
C25   C     C_R   0.412832 0.389394 0.902300 -0.245903
C26   C     C_R   0.642461 0.607413 0.095242 -0.244627
C27   C     C_R   0.734403 0.290213 0.654479 -0.320454
C28   C     C_R   0.266345 0.711269 0.343535 -0.315273
C29   C     C_R   0.688693 0.204126 0.635224 0.059608
C30   C     C_R   0.312080 0.796804 0.363878 0.048635
C31   C     C_R   0.516320 0.287060 0.506988 0.133169
C32   C     C_R   0.483662 0.712694 0.492211 0.143756
C33   C     C_R   0.548473 0.371759 0.533425 -0.007458
C34   C     C_R   0.451706 0.629094 0.464271 -0.085647
C35   C     C_R   0.666812 0.374965 0.601760 0.136704
C36   C     C_R   0.333569 0.626307 0.395788 0.147107
C37   C     C_R   0.472647 0.455260 0.491547 0.125385
C38   C     C_R   0.527091 0.545469 0.506174 0.062498
C39   C     C_R   0.656727 0.550250 0.558512 -0.198386
C40   C     C_R   0.342789 0.450654 0.439292 -0.121871
C41   C     C_R   0.721117 0.464995 0.611498 -0.217789
C42   C     C_R   0.278865 0.536272 0.386043 -0.202932
C43   C     C_R   0.353752 0.023301 0.798457 -0.228015
C44   C     C_R   0.639233 0.964974 0.204492 -0.166496
C45   C     C_R   0.257817 0.990782 0.731230 0.302294
C46   C     C_R   0.732633 0.003536 0.268599 0.300788
C47   C     C_R   0.192175 0.062902 0.642871 0.047671
C48   C     C_R   0.806008 0.935499 0.356658 -0.003480
C49   C     C_R   0.218974 0.165254 0.625775 -0.231111
C50   C     C_R   0.789096 0.832775 0.374972 -0.152461
C51   C     C_R   0.311494 0.197126 0.695141 0.325526
C52   C     C_R   0.699723 0.795977 0.307884 0.309422
C53   C     C_R   0.380588 0.125494 0.780433 -0.232897
C54   C     C_R   0.623001 0.862701 0.223909 -0.264141
C55   C     C_R   0.966117 0.036198 0.560505 -0.263821
C56   C     C_R   0.033247 0.966809 0.435991 -0.243188
Cu1   Cu    Cu3+1 0.466270 0.918260 0.475690 0.974839
Cu2   Cu    Cu3+1 0.533730 0.081740 0.524310 0.938010
H1    H     H_    0.454226 0.148681 0.833835 0.131233
H2    H     H_    0.550905 0.835603 0.172619 0.140070
H3    H     H_    0.345546 0.191817 0.970993 0.137315
H4    H     H_    0.695717 0.806694 0.026516 0.135015
H5    H     H_    0.424656 0.537026 0.794961 0.131697
H6    H     H_    0.640907 0.458796 0.201633 0.163828
H7    H     H_    0.817384 0.471130 0.656123 0.146837
H8    H     H_    0.182635 0.530421 0.341272 0.138707
H9    H     H_    0.260195 0.862416 0.323797 0.122984
H10   H     H_    0.740913 0.138698 0.675564 0.124936
H11   H     H_    0.823377 0.291214 0.708967 0.139343
H12   H     H_    0.177550 0.710792 0.288735 0.137617
H13   H     H_    0.712414 0.620067 0.557601 0.183902
H14   H     H_    0.286905 0.380959 0.439590 0.123773
H15   H     H_    0.406475 0.969073 0.865750 0.142997
H16   H     H_    0.578010 0.014037 0.139016 0.146539
H17   H     H_    0.169185 0.220001 0.557169 0.131691
H18   H     H_    0.844832 0.781496 0.442786 0.152347
H19   H     H_    0.940136 0.061067 0.610568 0.153039
H20   H     H_    0.059513 0.942020 0.385996 0.147365
H21   H     H_    0.364843 0.362094 0.844274 0.153018
H22   H     H_    0.695877 0.634598 0.152556 0.151511
H23   H     H_    0.445809 0.687183 0.762857 0.140226
H24   H     H_    0.567800 0.310873 0.240491 0.180988
H25   H     H_    0.645527 0.926392 0.850221 0.153246
H26   H     H_    0.371239 0.073866 0.148477 0.148389
N1    N     N_R   0.584450 0.204570 0.560790 -0.210459
N2    N     N_R   0.415550 0.795430 0.439210 -0.195017
O1    O     O_R   0.455540 0.022090 0.338120 -0.590535
O2    O     O_R   0.544460 0.977910 0.661880 -0.590027
O3    O     O_R   0.512510 0.160150 0.379180 -0.593110
O4    O     O_R   0.487490 0.839850 0.620820 -0.568319
O5    O     O_R   0.291160 0.930970 0.479480 -0.589851
O6    O     O_R   0.708840 0.069030 0.520520 -0.601593
O7    O     O_R   0.348130 0.069020 0.520540 -0.609789
O8    O     O_R   0.651870 0.930980 0.479460 -0.514669
C57   C     C_2   0.565641 0.698421 0.592476 0.397013
H27   H     H_    0.538131 0.635346 0.658768 0.021742
O9    O     O_2   0.668761 0.750129 0.601976 -0.544087
C58   C     C_2   0.427300 0.294944 0.410884 0.360744
H28   H     H_    0.345652 0.238701 0.408221 0.099198
O10   O     O_2   0.443853 0.367105 0.332282 -0.583176
N3    N     N_2   0.228704 0.886085 0.752212 -0.446147
H29   H     H_    0.306322 0.845758 0.793477 0.248921
C59   C     C_3   0.114354 0.838094 0.795765 -0.674357
H30   H     H_    0.096159 0.757985 0.805881 0.235765
H31   H     H_    0.027942 0.875425 0.745474 0.246050
H32   H     H_    0.128540 0.840841 0.870805 0.216735
N4    N     N_2   0.748949 0.109113 0.245520 -0.443966
H33   H     H_    0.804762 0.131263 0.301427 0.242010
C60   C     C_3   0.776735 0.176186 0.146511 -0.695374
H34   H     H_    0.789165 0.255555 0.138175 0.230972
H35   H     H_    0.695620 0.168532 0.085744 0.234662
H36   H     H_    0.867535 0.160171 0.137424 0.223864
N5    N     N_2   0.339718 0.301231 0.677261 -0.442214
H37   H     H_    0.420273 0.318679 0.724851 0.245990
C61   C     C_3   0.230507 0.352813 0.659903 -0.731007
H38   H     H_    0.265196 0.432251 0.649619 0.227640
H39   H     H_    0.180935 0.315257 0.725558 0.222784
H40   H     H_    0.160511 0.354239 0.590174 0.235809
N6    N     N_2   0.682012 0.691644 0.326501 -0.422889
H41   H     H_    0.606406 0.670948 0.277647 0.260968
C62   C     C_3   0.797821 0.645775 0.347440 -0.717321
H42   H     H_    0.770390 0.566414 0.355407 0.239912
H43   H     H_    0.861328 0.644361 0.419544 0.232894
H44   H     H_    0.851830 0.687473 0.284564 0.212934

loop_
_geom_bond_atom_site_label_1
_geom_bond_atom_site_label_2
_ccdc_geom_bond_type
C43   H15   S    
C1    O1    A    
N3    H29   S    
C31   N1    A    
C27   C29   A    
C61   H39   S    
C5    C56   A    
C36   C42   A    
C57   H27   S    
C18   C26   A    
C6    C55   A    
C53   H1    S    
C39   C41   A    
C54   H2    S    
C15   C19   A    
C51   N5    S    
C9    H3    S    
Cu2   O7    S    
C37   C40   A    
C24   O8    A    
C60   H35   S    
C38   C39   A    
C55   H19   S    
C61   H38   S    
C56   H20   S    
Cu1   N2    S    
C31   C58   S    
C2    O4    A    
C62   H44   S    
C3    C55   A    
C43   C53   A    
C19   C20   A    
C44   C46   A    
C49   C51   A    
C50   C52   A    
N4    H33   S    
C49   H17   S    
Cu1   O1    S    
C2    O2    A    
C14   C16   A    
C30   N2    A    
C40   H14   S    
C29   N1    A    
C30   H9    S    
C27   H11   S    
C8    C12   A    
C40   C42   A    
N3    C59   S    
C1    C7    S    
C4    C56   A    
N4    C60   S    
C3    C24   S    
C10   H4    S    
C25   H21   S    
C24   O6    A    
C1    O3    A    
C52   C54   A    
C10   C12   A    
C45   C47   A    
C5    C48   S    
C46   C48   A    
C62   H43   S    
Cu1   O4    S    
C19   C22   A    
C4    C6    A    
C6    C47   S    
C60   H36   S    
C4    C23   S    
C41   H7    S    
C27   C35   A    
C13   H24   S    
C33   C37   A    
C23   O7    A    
C12   H25   S    
C51   C53   A    
C32   C34   A    
C7    C11   A    
C37   C38   A    
C50   H18   S    
C29   H10   S    
C43   C45   A    
C16   C20   A    
C61   H40   S    
C32   N2    A    
C46   N4    S    
C31   C33   A    
C59   H31   S    
C44   H16   S    
C9    C11   A    
C62   H42   S    
N6    C62   S    
C45   N3    S    
C9    C17   A    
C58   O10   D    
Cu1   O8    S    
C13   C15   A    
C23   O5    A    
Cu2   N1    S    
N5    H37   S    
C15   C17   A    
C21   C25   A    
C8    C14   A    
Cu1   O5    S    
C34   C38   A    
C28   H12   S    
C3    C5    A    
Cu2   O2    S    
N6    H41   S    
C57   O9    D    
C11   H26   S    
C47   C49   A    
C17   C25   A    
C28   C30   A    
C60   H34   S    
Cu1   Cu2   S    
C10   C18   A    
C48   C50   A    
C33   C35   A    
C59   H32   S    
C34   C36   A    
C35   C41   A    
Cu2   O3    S    
C26   H22   S    
C21   H5    S    
C22   H6    S    
C52   N6    S    
C44   C54   A    
C7    C13   A    
C32   C57   S    
C20   C21   A    
C28   C36   A    
C16   C18   A    
C58   H28   S    
C22   C26   A    
C2    C8    S    
C59   H30   S    
C42   H8    S    
C39   H13   S    
C14   H23   S    
Cu2   O6    S    
N5    C61   S    
