data_mof_unit_27813.cif
_audit_creation_date              2012-12-10T17:59:17-0500
_audit_creation_method            fapswitch 2.2
_symmetry_space_group_name_H-M    P1
_symmetry_Int_Tables_number       1
_space_group_crystal_system       triclinic
_cell_length_a                    10.807425
_cell_length_b                    9.676708
_cell_length_c                    10.733001
_cell_angle_alpha                 90.540522
_cell_angle_beta                  95.525441
_cell_angle_gamma                 90.488051
_cell_volume                      1117.1451349

loop_
_atom_site_label
_atom_site_type_symbol
_atom_type_description
_atom_site_fract_x
_atom_site_fract_y
_atom_site_fract_z
_atom_type_partial_charge
C1    C     C_R   0.262530 0.499517 0.498511 0.791491
C2    C     C_3   0.620552 0.505126 0.941709 -0.416700
C3    C     C_R   0.058262 0.386442 0.445807 -0.158766
C4    C     C_R   0.069780 0.613171 0.545563 -0.172856
C5    C     C_R   0.929669 0.388166 0.443383 -0.167560
C6    C     C_R   0.941783 0.613751 0.544721 -0.196087
C7    C     C_R   0.871175 0.501288 0.494306 -0.013832
C8    C     C_R   0.128461 0.499175 0.496930 -0.014661
C9    C     C_R   0.419453 0.071967 0.419798 -0.068766
C10   C     C_R   0.419770 0.924770 0.419463 -0.061494
C11   C     C_R   0.581202 0.927289 0.585497 0.194661
C12   C     C_R   0.584334 0.076923 0.582023 0.200470
C13   C     C_R   0.492382 0.499237 0.260041 0.768019
C14   C     C_R   0.737284 0.500448 0.497941 0.767708
C15   C     C_R   0.493365 0.499835 0.738977 0.756185
C16   C     C_3   0.415789 0.627575 0.063651 -0.154440
C17   C     C_3   0.424754 0.360506 0.062676 -0.152089
C18   C     C_3   0.408104 0.619988 0.919269 -0.405421
C19   C     C_3   0.424337 0.362397 0.918222 -0.392413
C20   C     C_3   0.620305 0.504204 0.084821 -0.421254
C21   C     C_3   0.485172 0.497642 0.121091 0.067619
C22   C     C_3   0.486730 0.497693 0.876625 0.133399
Cu1   Cu    Cu3+1 0.500020 0.640660 0.500000 0.924879
Cu2   Cu    Cu3+1 0.500020 0.359340 0.500000 0.921479
H1    H     H_    0.470816 0.721764 0.094399 0.139329
H2    H     H_    0.482500 0.271683 0.097782 0.136500
H3    H     H_    0.310268 0.606144 0.877424 0.162654
H4    H     H_    0.328280 0.353449 0.870568 0.164165
H5    H     H_    0.440331 0.719942 0.883976 0.160572
H6    H     H_    0.475950 0.270611 0.888487 0.163281
H7    H     H_    0.668782 0.598711 0.125431 0.176510
H8    H     H_    0.673848 0.413788 0.123335 0.172486
H9    H     H_    0.666054 0.600454 0.914353 0.190596
H10   H     H_    0.675985 0.416727 0.911077 0.164917
H11   H     H_    0.102552 0.298362 0.406370 0.153513
H12   H     H_    0.122920 0.700688 0.586251 0.147661
H13   H     H_    0.876063 0.301644 0.401586 0.141704
H14   H     H_    0.898808 0.700656 0.585922 0.137529
H15   H     H_    0.354040 0.125104 0.354668 0.140362
H16   H     H_    0.354975 0.869048 0.353702 0.144887
N1    N     N_R   0.500030 0.852070 0.500030 -0.191754
N2    N     N_R   0.500030 0.147930 0.500030 -0.191286
O1    O     O_R   0.319660 0.618740 0.499990 -0.577340
O2    O     O_R   0.319660 0.381260 0.499990 -0.581053
O3    O     O_R   0.499990 0.618790 0.317690 -0.580361
O4    O     O_R   0.499990 0.381210 0.317690 -0.583811
O5    O     O_R   0.680370 0.618830 0.500010 -0.607367
O6    O     O_R   0.680370 0.381170 0.500010 -0.594206
O7    O     O_R   0.500030 0.618780 0.682310 -0.602820
O8    O     O_R   0.500030 0.381220 0.682310 -0.617094
C23   C     C_3   0.683002 0.851786 0.667833 -0.359235
C24   C     C_3   0.698927 0.868718 0.812167 -0.437416
C25   C     C_3   0.819316 0.799652 0.866476 -0.873071
H17   H     H_    0.828475 0.694210 0.826767 0.244942
H18   H     H_    0.901419 0.861495 0.844918 0.258085
H19   H     H_    0.820467 0.792682 0.969804 0.256259
H20   H     H_    0.706020 0.973755 0.849293 0.237830
H21   H     H_    0.618333 0.821572 0.852060 0.218680
H22   H     H_    0.668241 0.743167 0.661843 0.272074
H23   H     H_    0.771014 0.867073 0.625660 0.161508
C26   C     C_3   0.674950 0.157922 0.676089 -0.347622
C27   C     C_3   0.816119 0.142851 0.666258 -0.403657
C28   C     C_3   0.891442 0.254659 0.742891 -0.837288
H24   H     H_    0.860615 0.359721 0.714795 0.247813
H25   H     H_    0.880475 0.242084 0.844037 0.252046
H26   H     H_    0.991466 0.245115 0.728646 0.253699
H27   H     H_    0.853221 0.045451 0.704753 0.238396
H28   H     H_    0.835322 0.148520 0.566779 0.228368
H29   H     H_    0.663415 0.265383 0.666778 0.276610
H30   H     H_    0.646854 0.149639 0.771487 0.134673
C29   C     C_1   0.291232 0.646752 0.106812 0.227861
N3    N     N_1   0.193812 0.662112 0.140824 -0.281342
C30   C     C_1   0.298659 0.333728 0.099661 0.229953
N4    N     N_1   0.199987 0.312354 0.128808 -0.298312

loop_
_geom_bond_atom_site_label_1
_geom_bond_atom_site_label_2
_ccdc_geom_bond_type
C26   H30   S    
C2    C22   S    
C17   C30   S    
Cu1   Cu2   S    
C6    H14   S    
C16   C21   S    
Cu1   O3    S    
C5    H13   S    
C1    C8    S    
Cu2   N2    S    
C9    C10   A    
C1    O2    A    
Cu1   N1    S    
C3    H11   S    
C11   C12   A    
Cu2   O4    S    
C16   C18   S    
C2    H10   S    
C27   C28   S    
C28   H25   S    
C28   H26   S    
C13   C21   S    
C29   N3    T    
C18   H5    S    
C18   C22   S    
C25   H17   S    
C24   C25   S    
C10   N1    A    
C13   O3    A    
C19   H4    S    
C19   H6    S    
C9    N2    A    
C6    C7    A    
C16   C29   S    
C24   H21   S    
C27   H27   S    
C15   O8    A    
C17   H2    S    
C2    H9    S    
C10   H16   S    
C17   C19   S    
C20   H8    S    
C11   N1    A    
C27   H28   S    
C15   C22   S    
Cu2   O8    S    
C26   C27   S    
Cu2   O2    S    
Cu1   O7    S    
C23   H22   S    
C24   H20   S    
Cu1   O5    S    
C25   H18   S    
C2    C20   S    
C23   C24   S    
Cu2   O6    S    
C9    H15   S    
C19   C22   S    
C11   C23   S    
C4    H12   S    
C4    C6    A    
C3    C8    A    
C30   N4    T    
C25   H19   S    
C26   H29   S    
C16   H1    S    
C5    C7    A    
C14   O6    A    
C13   O4    A    
C12   N2    A    
C23   H23   S    
C12   C26   S    
C4    C8    A    
C20   C21   S    
Cu1   O1    S    
C14   O5    A    
C1    O1    A    
C7    C14   S    
C17   C21   S    
C18   H3    S    
C28   H24   S    
C15   O7    A    
C3    C5    A    
C20   H7    S    
