data_mof_unit_66140.cif
_audit_creation_date              2012-12-10T20:21:30-0500
_audit_creation_method            fapswitch 2.2
_symmetry_space_group_name_H-M    P1
_symmetry_Int_Tables_number       1
_space_group_crystal_system       triclinic
_cell_length_a                    36.239759
_cell_length_b                    25.690708
_cell_length_c                    25.676243
_cell_angle_alpha                 90.000024
_cell_angle_beta                  89.999562
_cell_angle_gamma                 89.999695
_cell_volume                      23905.2258445

loop_
_atom_site_label
_atom_site_type_symbol
_atom_type_description
_atom_site_fract_x
_atom_site_fract_y
_atom_site_fract_z
_atom_type_partial_charge
C1    C     C_R   0.749995 0.349069 0.599085 0.827029
C2    C     C_R   0.773518 0.504422 0.707031 -0.177812
C3    C     C_R   0.480755 0.796733 0.001192 -0.266910
C4    C     C_R   0.038510 0.249537 0.499984 -0.080331
C5    C     C_R   0.961490 0.249537 0.499984 -0.080328
C6    C     C_R   0.538510 0.749537 0.999984 -0.080329
C7    C     C_R   0.461490 0.749537 0.999984 -0.080330
C8    C     C_R   0.019271 0.202225 0.498782 0.561329
C9    C     C_R   0.980729 0.202225 0.498782 0.561325
C10   C     C_R   0.519271 0.702225 0.998773 0.561331
C11   C     C_R   0.480729 0.702225 0.998773 0.561334
C12   C     C_1   0.078007 0.249826 0.499992 0.070221
C13   C     C_R   0.773620 0.504322 0.292868 -0.177776
C14   C     C_1   0.921993 0.249825 0.499992 0.070216
C15   C     C_1   0.578006 0.749826 0.999992 0.070216
C16   C     C_1   0.421993 0.749825 0.999992 0.070221
C17   C     C_1   0.888872 0.249960 0.499997 -0.121210
C18   C     C_1   0.111128 0.249961 0.499997 -0.121203
C19   C     C_1   0.388872 0.749960 0.999997 -0.121202
C20   C     C_1   0.611128 0.749961 0.999997 -0.121209
C21   C     C_R   0.849537 0.249982 0.500000 0.821625
C22   C     C_R   0.150463 0.249982 0.500000 0.821628
C23   C     C_R   0.349537 0.749982 0.000000 0.821630
C24   C     C_R   0.226393 0.504335 0.292881 -0.177787
C25   C     C_R   0.650463 0.749982 0.000000 0.821625
C26   C     C_R   0.650296 0.249993 0.500000 0.827360
C27   C     C_R   0.349704 0.249993 0.500000 0.827363
C28   C     C_R   0.150296 0.749993 0.000000 0.827364
C29   C     C_R   0.849704 0.749993 1.000000 0.827360
C30   C     C_3   0.521431 0.220937 0.548474 -0.386513
C31   C     C_3   0.478568 0.220937 0.548474 -0.386513
C32   C     C_3   0.478569 0.222575 0.450578 -0.386485
C33   C     C_3   0.521432 0.222576 0.450579 -0.386489
C34   C     C_3   0.021431 0.720815 0.048401 -0.386523
C35   C     C_R   0.726184 0.004126 0.207329 -0.177812
C36   C     C_3   0.978568 0.720814 0.048400 -0.386522
C37   C     C_3   0.978569 0.722700 0.950509 -0.386475
C38   C     C_3   0.021432 0.722700 0.950510 -0.386472
C39   C     C_1   0.389400 0.249997 0.499999 -0.139281
C40   C     C_1   0.610599 0.249998 0.500000 -0.139287
C41   C     C_1   0.889400 0.749997 0.999999 -0.139287
C42   C     C_1   0.110600 0.749998 0.000000 -0.139281
C43   C     C_3   0.536498 0.250000 0.500000 0.340838
C44   C     C_3   0.463502 0.250000 0.499999 0.340836
C45   C     C_3   0.036498 0.750000 0.000000 0.340834
C46   C     C_R   0.273518 0.004423 0.207030 -0.177821
C47   C     C_3   0.963502 0.750000 0.999999 0.340838
C48   C     C_3   0.478568 0.306488 0.500946 -0.386827
C49   C     C_3   0.521431 0.306488 0.500946 -0.386826
C50   C     C_3   0.978568 0.806485 0.001089 -0.386832
C51   C     C_3   0.021431 0.806485 0.001089 -0.386829
C52   C     C_1   0.422737 0.249999 0.499999 -0.123143
C53   C     C_1   0.577263 0.250000 0.500000 -0.123148
C54   C     C_1   0.922737 0.749999 0.999999 -0.123149
C55   C     C_1   0.077263 0.750000 0.000000 -0.123145
C56   C     C_R   0.273543 0.004398 0.792944 -0.177780
C57   C     C_R   0.726452 0.004393 0.792940 -0.177771
C58   C     C_R   0.250028 0.461383 0.711425 0.160895
C59   C     C_R   0.749971 0.461383 0.711425 0.160890
C60   C     C_R   0.749971 0.461384 0.288575 0.160918
C61   C     C_R   0.250004 0.349069 0.599085 0.827027
C62   C     C_R   0.250029 0.461383 0.288575 0.160925
C63   C     C_R   0.750028 0.961383 0.211425 0.160891
C64   C     C_R   0.249971 0.961383 0.211425 0.160895
C65   C     C_R   0.249971 0.961383 0.788575 0.160925
C66   C     C_R   0.750028 0.961383 0.788574 0.160917
C67   C     C_R   0.273303 0.456762 0.754759 -0.177510
C68   C     C_R   0.726427 0.457026 0.754496 -0.177516
C69   C     C_R   0.726325 0.457127 0.245606 -0.177576
C70   C     C_R   0.273661 0.457114 0.245592 -0.177587
C71   C     C_R   0.773869 0.957323 0.254198 -0.177529
C72   C     C_R   0.250005 0.349069 0.400915 0.827133
C73   C     C_R   0.226428 0.957026 0.254497 -0.177525
C74   C     C_R   0.226402 0.957051 0.745530 -0.177587
C75   C     C_R   0.773602 0.957055 0.745533 -0.177577
C76   C     C_R   0.773866 0.995839 0.292708 -0.173432
C77   C     C_R   0.226432 0.995542 0.293007 -0.173445
C78   C     C_R   0.226406 0.995567 0.707019 -0.173651
C79   C     C_R   0.773598 0.995571 0.707023 -0.173641
C80   C     C_R   0.273300 0.495279 0.793269 -0.173449
C81   C     C_R   0.726431 0.495543 0.793006 -0.173434
C82   C     C_R   0.726329 0.495644 0.207096 -0.173645
C83   C     C_R   0.749995 0.349069 0.400915 0.827131
C84   C     C_R   0.273658 0.495630 0.207082 -0.173658
C85   C     C_R   0.750022 0.038581 0.288612 0.159895
C86   C     C_R   0.249978 0.038582 0.288612 0.159912
C87   C     C_R   0.249978 0.038582 0.711388 0.159954
C88   C     C_R   0.750022 0.038582 0.711388 0.159946
C89   C     C_R   0.250022 0.538582 0.788612 0.159921
C90   C     C_R   0.749978 0.538582 0.788611 0.159906
C91   C     C_R   0.749978 0.538582 0.211388 0.159945
C92   C     C_R   0.250022 0.538582 0.211389 0.159952
C93   C     C_R   0.726181 0.042642 0.245839 -0.179298
C94   C     C_R   0.249995 0.849069 0.099085 0.827027
C95   C     C_R   0.273521 0.042939 0.245540 -0.179287
C96   C     C_R   0.273546 0.042914 0.754434 -0.179274
C97   C     C_R   0.726449 0.042910 0.754430 -0.179264
C98   C     C_R   0.226748 0.543203 0.745278 -0.179266
C99   C     C_R   0.773522 0.542938 0.745541 -0.179279
C100  C     C_R   0.773623 0.542838 0.254357 -0.179263
C101  C     C_R   0.226390 0.542851 0.254371 -0.179274
C102  C     C_1   0.250029 0.421749 0.671796 -0.073889
C103  C     C_1   0.749971 0.421749 0.671797 -0.073885
C104  C     C_1   0.749971 0.421749 0.328204 -0.073869
C105  C     C_R   0.750004 0.849069 0.099085 0.827026
C106  C     C_1   0.250029 0.421749 0.328203 -0.073882
C107  C     C_1   0.750028 0.921749 0.171796 -0.073891
C108  C     C_1   0.249971 0.921749 0.171797 -0.073895
C109  C     C_1   0.249971 0.921749 0.828204 -0.073880
C110  C     C_1   0.750029 0.921749 0.828203 -0.073867
C111  C     C_1   0.750019 0.078215 0.328241 -0.071598
C112  C     C_1   0.249982 0.078216 0.328240 -0.071601
C113  C     C_1   0.249981 0.078215 0.671759 -0.071750
C114  C     C_1   0.750018 0.078215 0.671759 -0.071737
C115  C     C_1   0.250019 0.578215 0.828241 -0.071593
C116  C     C_R   0.750005 0.849069 0.900915 0.827137
C117  C     C_1   0.749982 0.578215 0.828240 -0.071590
C118  C     C_1   0.749981 0.578215 0.171759 -0.071739
C119  C     C_1   0.250018 0.578216 0.171760 -0.071753
C120  C     C_1   0.750018 0.111410 0.361436 -0.133906
C121  C     C_1   0.249983 0.111410 0.361436 -0.133911
C122  C     C_1   0.249982 0.111410 0.638564 -0.134066
C123  C     C_1   0.750018 0.111410 0.638564 -0.134055
C124  C     C_1   0.250018 0.611410 0.861436 -0.133906
C125  C     C_1   0.749983 0.611410 0.861436 -0.133902
C126  C     C_1   0.749982 0.611410 0.138564 -0.134055
C127  C     C_R   0.249995 0.849069 0.900915 0.827128
C128  C     C_1   0.250018 0.611410 0.138564 -0.134070
C129  C     C_1   0.250022 0.388557 0.638598 -0.138381
C130  C     C_1   0.749977 0.388557 0.638598 -0.138378
C131  C     C_1   0.749977 0.388557 0.361402 -0.138347
C132  C     C_1   0.250022 0.388557 0.361402 -0.138361
C133  C     C_1   0.750022 0.888557 0.138598 -0.138382
C134  C     C_1   0.249977 0.888557 0.138598 -0.138386
C135  C     C_1   0.249977 0.888557 0.861402 -0.138358
C136  C     C_1   0.750022 0.888557 0.861402 -0.138348
C137  C     C_R   0.750022 0.150905 0.400942 0.825308
C138  C     C_R   0.226751 0.504687 0.706768 -0.177823
C139  C     C_R   0.249978 0.150906 0.400942 0.825308
C140  C     C_R   0.249978 0.150906 0.599058 0.825145
C141  C     C_R   0.750022 0.150906 0.599058 0.825157
C142  C     C_R   0.250022 0.650906 0.900942 0.825309
C143  C     C_R   0.749978 0.650906 0.900941 0.825312
C144  C     C_R   0.749978 0.650906 0.099058 0.825149
C145  C     C_R   0.250022 0.650906 0.099058 0.825150
C146  C     C_R   0.019245 0.296733 0.501182 -0.266904
C147  C     C_R   0.980755 0.296733 0.501182 -0.266906
C148  C     C_R   0.519245 0.796733 0.001192 -0.266914
F1    F     F_    0.037796 0.156292 0.497616 -0.614507
F2    F     F_    0.962205 0.156291 0.497616 -0.614512
F3    F     F_    0.537796 0.656292 0.997597 -0.614501
F4    F     F_    0.462205 0.656292 0.997597 -0.614497
H1    H     H_    0.468326 0.180094 0.548712 0.168512
H2    H     H_    0.468327 0.242790 0.415069 0.171418
H3    H     H_    0.468325 0.239952 0.584641 0.171457
H4    H     H_    0.531673 0.239952 0.584642 0.171455
H5    H     H_    0.031675 0.743005 0.915052 0.171426
H6    H     H_    0.968327 0.743004 0.915051 0.171424
H7    H     H_    0.968325 0.739737 0.084615 0.171445
H8    H     H_    0.031673 0.739738 0.084616 0.171447
H9    H     H_    0.531673 0.327116 0.536218 0.170125
H10   H     H_    0.468325 0.327115 0.536218 0.170128
H11   H     H_    0.468326 0.328284 0.466386 0.169986
H12   H     H_    0.531674 0.180095 0.548712 0.168511
H13   H     H_    0.531674 0.328285 0.466386 0.169985
H14   H     H_    0.031673 0.827024 0.036413 0.170124
H15   H     H_    0.968325 0.827023 0.036413 0.170120
H16   H     H_    0.968326 0.828369 0.966584 0.169983
H17   H     H_    0.031674 0.828369 0.966584 0.169982
H18   H     H_    0.707631 0.075523 0.242279 0.143134
H19   H     H_    0.291841 0.076051 0.241748 0.143143
H20   H     H_    0.291885 0.076007 0.758206 0.143157
H21   H     H_    0.708107 0.075999 0.758199 0.143165
H22   H     H_    0.208638 0.576519 0.741281 0.143156
H23   H     H_    0.531675 0.181764 0.448973 0.168564
H24   H     H_    0.791842 0.576049 0.741749 0.143148
H25   H     H_    0.792022 0.575870 0.258070 0.143163
H26   H     H_    0.208002 0.575894 0.258095 0.143157
H27   H     H_    0.208644 0.508654 0.673427 0.143297
H28   H     H_    0.791836 0.508184 0.673895 0.143298
H29   H     H_    0.792017 0.508005 0.325924 0.143329
H30   H     H_    0.208007 0.508029 0.325949 0.143323
H31   H     H_    0.707636 0.007658 0.174425 0.143291
H32   H     H_    0.291834 0.008186 0.173893 0.143292
H33   H     H_    0.291880 0.008142 0.826061 0.143325
H34   H     H_    0.468327 0.181764 0.448972 0.168567
H35   H     H_    0.708112 0.008133 0.826053 0.143333
H36   H     H_    0.291412 0.423445 0.758755 0.144793
H37   H     H_    0.708108 0.423915 0.758288 0.144805
H38   H     H_    0.707927 0.424094 0.241894 0.144751
H39   H     H_    0.292049 0.424071 0.241869 0.144745
H40   H     H_    0.792420 0.924441 0.257757 0.144812
H41   H     H_    0.208109 0.923914 0.258289 0.144800
H42   H     H_    0.208064 0.923958 0.741757 0.144741
H43   H     H_    0.791944 0.923965 0.741764 0.144748
H44   H     H_    0.792414 0.992307 0.325613 0.147992
H45   H     H_    0.968326 0.679972 0.048535 0.168507
H46   H     H_    0.208115 0.991779 0.326144 0.147943
H47   H     H_    0.208069 0.991823 0.673902 0.147814
H48   H     H_    0.791938 0.991831 0.673909 0.147822
H49   H     H_    0.291407 0.491311 0.826610 0.147903
H50   H     H_    0.708114 0.491781 0.826143 0.147950
H51   H     H_    0.707932 0.491960 0.174039 0.147829
H52   H     H_    0.292044 0.491936 0.174014 0.147821
H53   H     H_    0.966032 0.333433 0.502114 0.183170
H54   H     H_    0.033967 0.333434 0.502114 0.183172
H55   H     H_    0.466032 0.833433 0.002132 0.183168
H56   H     H_    0.031674 0.679972 0.048535 0.168507
H57   H     H_    0.533967 0.833433 0.002132 0.183166
H58   H     H_    0.031675 0.681894 0.948801 0.168580
H59   H     H_    0.968327 0.681893 0.948800 0.168577
H60   H     H_    0.531675 0.242790 0.415069 0.171417
O1    O     O_3   0.750020 0.249980 0.500000 -0.483043
O2    O     O_R   0.771480 0.810110 0.102800 -0.636215
O3    O     O_R   0.771480 0.810110 0.897200 -0.636232
O4    O     O_R   0.228520 0.810110 0.897200 -0.636235
O5    O     O_R   0.728520 0.189860 0.397190 -0.638264
O6    O     O_R   0.271480 0.189860 0.397190 -0.638268
O7    O     O_R   0.271480 0.189860 0.602810 -0.638231
O8    O     O_R   0.728520 0.189860 0.602810 -0.638228
O9    O     O_R   0.228520 0.689860 0.897190 -0.638268
O10   O     O_R   0.771480 0.689860 0.897190 -0.638268
O11   O     O_R   0.771480 0.689860 0.102810 -0.638221
O12   O     O_3   0.249980 0.249980 0.500000 -0.483042
O13   O     O_R   0.228520 0.689860 0.102810 -0.638227
O14   O     O_R   0.771490 0.352810 0.439870 -0.636109
O15   O     O_R   0.228510 0.352810 0.439870 -0.636113
O16   O     O_R   0.228510 0.352810 0.560130 -0.636187
O17   O     O_R   0.771490 0.352810 0.560130 -0.636185
O18   O     O_R   0.271490 0.852810 0.939870 -0.636107
O19   O     O_R   0.728510 0.852810 0.939870 -0.636103
O20   O     O_R   0.728510 0.852810 0.060130 -0.636188
O21   O     O_R   0.271490 0.852810 0.060130 -0.636188
O22   O     O_R   0.771530 0.147160 0.560090 -0.631221
O23   O     O_3   0.250020 0.749980 0.000000 -0.483042
O24   O     O_R   0.228470 0.147160 0.560090 -0.631226
O25   O     O_R   0.228470 0.147160 0.439910 -0.631030
O26   O     O_R   0.771530 0.147160 0.439910 -0.631033
O27   O     O_R   0.271530 0.647160 0.060090 -0.631233
O28   O     O_R   0.728470 0.647160 0.060090 -0.631228
O29   O     O_R   0.728470 0.647160 0.939910 -0.631026
O30   O     O_R   0.271530 0.647160 0.939910 -0.631027
O31   O     O_R   0.832000 0.292700 0.500000 -0.643242
O32   O     O_R   0.168000 0.292700 0.500000 -0.643241
O33   O     O_R   0.332000 0.792700 0.000000 -0.643245
O34   O     O_3   0.749980 0.749980 0.000000 -0.483043
O35   O     O_R   0.668000 0.792700 0.000000 -0.643249
O36   O     O_R   0.668030 0.249990 0.542720 -0.637208
O37   O     O_R   0.331970 0.249990 0.542720 -0.637203
O38   O     O_R   0.331970 0.249990 0.457280 -0.637259
O39   O     O_R   0.668030 0.249990 0.457280 -0.637260
O40   O     O_R   0.168030 0.749990 0.042720 -0.637215
O41   O     O_R   0.831970 0.749990 0.042720 -0.637217
O42   O     O_R   0.831970 0.749990 0.957280 -0.637253
O43   O     O_R   0.168030 0.749990 0.957280 -0.637249
O44   O     O_R   0.832010 0.207260 0.500000 -0.618868
O45   O     O_R   0.728520 0.310110 0.602800 -0.636217
O46   O     O_R   0.167990 0.207260 0.500000 -0.618861
O47   O     O_R   0.332010 0.707260 0.000000 -0.618857
O48   O     O_R   0.667990 0.707260 0.000000 -0.618859
O49   O     O_R   0.271480 0.310110 0.602800 -0.636215
O50   O     O_R   0.271480 0.310110 0.397200 -0.636231
O51   O     O_R   0.728520 0.310110 0.397200 -0.636226
O52   O     O_R   0.228520 0.810110 0.102800 -0.636217
Zn1   Zn    Zn3+2 0.719300 0.249980 0.438970 0.977249
Zn2   Zn    Zn3+2 0.219280 0.311020 0.500000 0.978940
Zn3   Zn    Zn3+2 0.280720 0.811020 0.000000 0.978938
Zn4   Zn    Zn3+2 0.719280 0.811020 0.000000 0.978942
Zn5   Zn    Zn3+2 0.780730 0.188950 0.500000 0.997934
Zn6   Zn    Zn3+2 0.219270 0.188950 0.500000 0.997933
Zn7   Zn    Zn3+2 0.280730 0.688950 0.000000 0.997936
Zn8   Zn    Zn3+2 0.719270 0.688950 0.000000 0.997938
Zn9   Zn    Zn3+2 0.280700 0.249980 0.438970 0.977246
Zn10  Zn    Zn3+2 0.280700 0.249980 0.561030 0.977192
Zn11  Zn    Zn3+2 0.719300 0.249980 0.561030 0.977195
Zn12  Zn    Zn3+2 0.219300 0.749980 0.938970 0.977248
Zn13  Zn    Zn3+2 0.780700 0.749980 0.938970 0.977252
Zn14  Zn    Zn3+2 0.780700 0.749980 0.061030 0.977190
Zn15  Zn    Zn3+2 0.219300 0.749980 0.061030 0.977187
Zn16  Zn    Zn3+2 0.780720 0.311020 0.500000 0.978943

loop_
_geom_bond_atom_site_label_1
_geom_bond_atom_site_label_2
_ccdc_geom_bond_type
C78   C87   A    
C94   O52   A    
C122  C140  S    
C74   H42   S    
C23   O33   A    
C5    C147  A    
C45   C55   S    
C73   H41   S    
C109  C135  T    
C110  C136  T    
C102  C129  T    
C30   H12   S    
C57   C66   A    
C4    C8    A    
C26   C40   S    
C143  O10   A    
C89   C115  S    
C114  C123  T    
O11   Zn14  S    
C105  O2    A    
C22   O46   A    
C66   C110  S    
C108  C134  T    
O12   Zn9   S    
C62   C70   A    
C5    C9    A    
C37   C38   S    
C36   C47   S    
C68   C81   A    
C68   H37   S    
O40   Zn15  S    
C127  C135  S    
O46   Zn6   S    
C3    C7    A    
C16   C19   T    
C141  O8    A    
O12   Zn2   S    
C82   H51   S    
C98   H22   S    
C33   H60   S    
C128  C145  S    
C48   H10   S    
C20   C25   S    
C45   C51   S    
C35   H31   S    
C56   C65   A    
C69   H38   S    
O1    Zn1   S    
C80   C89   A    
O52   Zn15  S    
C137  O5    A    
C144  O28   A    
O9    Zn12  S    
C147  H53   S    
C24   C101  A    
O38   Zn9   S    
C46   H32   S    
C137  O26   A    
O34   Zn14  S    
C37   H59   S    
C144  O11   A    
C138  H27   S    
C101  H26   S    
C76   H44   S    
C36   H7    S    
C6    C15   S    
C25   O48   A    
C85   C93   A    
C43   C53   S    
C113  C122  T    
O1    Zn11  S    
C27   C39   S    
C8    C9    A    
C38   C45   S    
C72   O15   A    
C64   C73   A    
C28   O43   A    
C72   C132  S    
O25   Zn6   S    
C58   C102  S    
C29   O41   A    
C91   C100  A    
C4    C12   S    
C70   C84   A    
C77   H46   S    
O39   Zn1   S    
C142  O9    A    
C49   H9    S    
C88   C97   A    
C146  H54   S    
C95   H19   S    
C21   O31   A    
C119  C128  T    
C44   C52   S    
C30   H4    S    
C39   C52   T    
O1    Zn16  S    
C23   O47   A    
C3    C148  A    
O19   Zn4   S    
O8    Zn11  S    
C48   H11   S    
O23   Zn12  S    
C28   C42   S    
C14   C17   T    
C124  C142  S    
O33   Zn3   S    
C2    H28   S    
O1    Zn5   S    
C116  O3    A    
O34   Zn4   S    
C100  H25   S    
O24   Zn6   S    
C79   C88   A    
C31   H1    S    
C26   O36   A    
C70   H39   S    
C64   C108  S    
C47   C50   S    
C1    O45   A    
O18   Zn3   S    
C35   C93   A    
O23   Zn3   S    
C15   C20   T    
C93   H18   S    
C96   H20   S    
C9    F2    S    
O45   Zn11  S    
C61   O16   A    
C97   H21   S    
C31   C44   S    
C46   C95   A    
C24   H30   S    
C33   C43   S    
C105  O20   A    
C51   H17   S    
C36   H45   S    
O36   Zn11  S    
C1    C130  S    
C10   C11   A    
C13   C60   A    
O37   Zn10  S    
C2    C59   A    
C141  O22   A    
O49   Zn10  S    
C34   H56   S    
C142  O30   A    
C145  O13   A    
C104  C131  T    
C10   F3    S    
C17   C21   S    
C82   C91   A    
O20   Zn4   S    
C46   C64   A    
C111  C120  T    
C37   H6    S    
O48   Zn8   S    
O34   Zn13  S    
C86   C112  S    
C28   O40   A    
C90   C117  S    
C6    C10   A    
C83   C131  S    
C22   O32   A    
C1    O17   A    
C59   C68   A    
O21   Zn3   S    
C6    C148  A    
C58   C67   A    
C140  O7    A    
C7    C11   A    
C80   H49   S    
C57   C97   A    
C87   C96   A    
C123  C141  S    
C69   C82   A    
C143  O29   A    
C50   C51   S    
O4    Zn12  S    
C91   C118  S    
O41   Zn14  S    
C94   O21   A    
C34   C45   S    
O14   Zn16  S    
C29   O42   A    
C38   H58   S    
O10   Zn13  S    
C84   C92   A    
C65   C109  S    
C5    C14   S    
O7    Zn10  S    
O16   Zn2   S    
C92   C101  A    
C47   C54   S    
C32   H2    S    
O35   Zn4   S    
C25   O35   A    
C7    C16   S    
C98   C138  A    
C49   H13   S    
C40   C53   T    
O6    Zn9   S    
C13   H29   S    
O2    Zn14  S    
C116  O19   A    
C50   H16   S    
C71   H40   S    
O5    Zn1   S    
C30   C43   S    
C37   C47   S    
C78   H47   S    
C81   C90   A    
C63   C107  S    
C90   C99   A    
C115  C124  T    
O47   Zn7   S    
C67   H36   S    
C19   C23   S    
O22   Zn5   S    
C105  C133  S    
C146  C147  A    
O43   Zn12  S    
C56   C96   A    
O50   Zn9   S    
C48   C49   S    
C24   C62   A    
C79   H48   S    
O17   Zn16  S    
C29   C41   S    
C18   C22   S    
C72   O50   A    
C92   C119  S    
C43   C49   S    
C67   C80   A    
C38   H5    S    
C63   C71   A    
C2    C99   A    
C85   C111  S    
O31   Zn16  S    
C77   C86   A    
C31   H3    S    
O15   Zn2   S    
C81   H50   S    
C116  C136  S    
C61   O49   A    
O27   Zn7   S    
O13   Zn15  S    
O12   Zn10  S    
O44   Zn5   S    
C74   C78   A    
C33   H23   S    
O34   Zn8   S    
O29   Zn8   S    
C32   H34   S    
C89   C98   A    
C61   C129  S    
C59   C103  S    
O30   Zn7   S    
C121  C139  S    
C13   C100  A    
C27   O38   A    
C99   H24   S    
C27   O37   A    
O23   Zn15  S    
C112  C121  T    
C107  C133  T    
O51   Zn1   S    
C148  H57   S    
C32   C33   S    
C21   O44   A    
C139  O6    A    
O28   Zn8   S    
C30   C31   S    
C75   C79   A    
C60   C69   A    
C125  C143  S    
C42   C55   T    
C66   C75   A    
C145  O27   A    
C126  C144  S    
C3    H55   S    
C94   C134  S    
C34   C36   S    
C8    F1    S    
C58   C138  A    
O32   Zn2   S    
C127  O18   A    
C88   C114  S    
C127  O4    A    
C103  C130  T    
C41   C54   T    
C87   C113  S    
C83   O51   A    
C65   C74   A    
O12   Zn6   S    
O26   Zn5   S    
C106  C132  T    
C71   C76   A    
C11   F4    S    
C57   H35   S    
C56   H33   S    
C32   C44   S    
C139  O25   A    
C62   C106  S    
O3    Zn13  S    
C12   C18   T    
C50   H15   S    
C140  O24   A    
C73   C77   A    
C4    C146  A    
C51   H14   S    
C35   C63   A    
C120  C137  S    
C118  C126  T    
C86   C95   A    
C84   H52   S    
C60   C104  S    
C117  C125  T    
O23   Zn7   S    
C76   C85   A    
O42   Zn13  S    
C26   O39   A    
C44   C48   S    
C75   H43   S    
C83   O14   A    
C34   H8    S    
