data_mof_unit_12328.cif
_audit_creation_date              2012-12-10T19:27:31-0500
_audit_creation_method            fapswitch 2.2
_symmetry_space_group_name_H-M    P1
_symmetry_Int_Tables_number       1
_space_group_crystal_system       triclinic
_cell_length_a                    23.375358
_cell_length_b                    10.537243
_cell_length_c                    9.742718
_cell_angle_alpha                 89.408985
_cell_angle_beta                  90.204296
_cell_angle_gamma                 90.252309
_cell_volume                      2399.58087044

loop_
_atom_site_label
_atom_site_type_symbol
_atom_type_description
_atom_site_fract_x
_atom_site_fract_y
_atom_site_fract_z
_atom_type_partial_charge
C1    C     C_R   0.501454 0.258012 0.500710 0.896643
C2    C     C_R   0.702159 0.585556 0.433303 -0.291016
C3    C     C_R   0.238016 0.421394 0.567610 0.010989
C4    C     C_R   0.761296 0.584855 0.432654 0.011402
C5    C     C_R   0.209281 0.523167 0.504305 0.231606
C6    C     C_R   0.790861 0.484417 0.496197 0.231510
C7    C     C_3   0.515221 0.037665 0.625990 -0.030350
C8    C     C_3   0.484793 0.962357 0.374056 -0.030443
C9    C     C_3   0.551844 0.955049 0.531711 -0.058760
C10   C     C_3   0.448169 0.044971 0.468349 -0.058696
C11   C     C_3   0.498379 0.876287 0.498033 -0.138728
C12   C     C_R   0.498571 0.741993 0.499298 0.895889
C13   C     C_3   0.501636 0.123724 0.502016 -0.138584
C14   C     C_3   0.461617 0.958351 0.592509 0.120913
C15   C     C_3   0.538399 0.041666 0.407552 0.120914
C16   C     C_R   0.389749 0.502674 0.499660 0.900846
C17   C     C_R   0.610253 0.497487 0.500332 0.900576
C18   C     C_3   0.493653 0.386232 0.049792 -0.064570
C19   C     C_3   0.506350 0.613765 0.950206 -0.064568
C20   C     C_3   0.541186 0.431381 0.952427 -0.057267
C21   C     C_3   0.458817 0.568616 0.047564 -0.057120
C22   C     C_3   0.452434 0.454898 0.951490 -0.070623
C23   C     C_R   0.239913 0.623572 0.440312 0.225404
C24   C     C_3   0.547568 0.545099 0.048508 -0.070648
C25   C     C_R   0.878883 0.527736 0.615694 0.518925
C26   C     C_R   0.121208 0.482866 0.383910 0.518907
C27   C     C_R   0.881006 0.456122 0.383831 0.522854
C28   C     C_R   0.119134 0.554412 0.615803 0.522791
C29   C     C_R   0.940483 0.464312 0.381606 -0.048855
C30   C     C_R   0.059623 0.547277 0.617697 -0.048827
C31   C     C_R   0.969931 0.502569 0.500697 -0.056024
C32   C     C_R   0.030161 0.509205 0.498551 -0.055939
C33   C     C_R   0.939204 0.533790 0.621521 -0.028161
C34   C     C_R   0.761049 0.382820 0.560305 0.225280
C35   C     C_R   0.060883 0.477848 0.377766 -0.028055
C36   C     C_R   0.970490 0.435772 0.262024 -0.152495
C37   C     C_R   0.029600 0.576370 0.737095 -0.152628
C38   C     C_R   0.030096 0.442697 0.257356 0.161783
C39   C     C_R   0.969986 0.569536 0.741738 0.161887
C40   C     C_3   0.058246 0.413525 0.121803 -0.764630
C41   C     C_3   0.941825 0.599316 0.877116 -0.765134
C42   C     C_3   0.208364 0.735693 0.378272 -0.822881
C43   C     C_3   0.793506 0.272116 0.622603 -0.823464
C44   C     C_3   0.335803 0.719344 0.363930 -0.856021
C45   C     C_R   0.300303 0.617261 0.435172 0.138314
C46   C     C_3   0.665891 0.283090 0.636380 -0.856859
C47   C     C_1   0.207000 0.318152 0.632011 0.228570
C48   C     C_1   0.791452 0.689309 0.368175 0.229194
C49   C     C_1   0.608406 0.903158 0.566217 0.166731
C50   C     C_1   0.391610 0.096945 0.433952 0.166769
C51   C     C_1   0.532333 0.078093 0.764165 0.215550
C52   C     C_1   0.467688 0.921952 0.235871 0.215435
C53   C     C_3   0.418255 0.911379 0.698068 -0.842042
C54   C     C_3   0.581781 0.088742 0.302107 -0.841922
C55   C     C_R   0.700598 0.386537 0.565176 0.138688
C56   C     C_R   0.328024 0.513031 0.499038 -0.084382
C57   C     C_R   0.672042 0.489390 0.500907 -0.084586
C58   C     C_R   0.297137 0.418101 0.566654 -0.291814
H1    H     H_    0.947202 0.408205 0.170572 0.190306
H2    H     H_    0.679300 0.663104 0.383917 0.166380
H3    H     H_    0.026481 0.393298 0.039685 0.206789
H4    H     H_    0.083891 0.496396 0.086202 0.267174
H5    H     H_    0.085554 0.328069 0.132509 0.276353
H6    H     H_    0.973575 0.620511 0.958974 0.206862
H7    H     H_    0.914303 0.684372 0.865772 0.276171
H8    H     H_    0.916399 0.516388 0.913465 0.267244
H9    H     H_    0.216982 0.741756 0.266393 0.253949
H10   H     H_    0.161382 0.730276 0.391615 0.234564
H11   H     H_    0.222612 0.824476 0.428647 0.239783
H12   H     H_    0.052886 0.604080 0.828496 0.190285
H13   H     H_    0.840445 0.279432 0.609345 0.234401
H14   H     H_    0.784894 0.265873 0.734473 0.253906
H15   H     H_    0.780019 0.182692 0.572374 0.239911
H16   H     H_    0.355959 0.679316 0.271229 0.250752
H17   H     H_    0.311178 0.803576 0.330502 0.249216
H18   H     H_    0.369878 0.753805 0.433827 0.216672
H19   H     H_    0.645117 0.322483 0.728634 0.250655
H20   H     H_    0.632316 0.246824 0.566140 0.216798
H21   H     H_    0.691238 0.200170 0.670539 0.249592
H22   H     H_    0.398047 0.993893 0.748165 0.244702
H23   H     H_    0.575897 0.373842 0.907545 0.135075
H24   H     H_    0.384665 0.853854 0.647312 0.236117
H25   H     H_    0.440037 0.852616 0.777402 0.250650
H26   H     H_    0.602117 0.006284 0.252200 0.244672
H27   H     H_    0.559992 0.147313 0.222618 0.250642
H28   H     H_    0.615259 0.146513 0.352969 0.235668
H29   H     H_    0.424109 0.626176 0.092400 0.134915
H30   H     H_    0.488063 0.290448 0.096422 0.141446
H31   H     H_    0.511940 0.709549 0.903576 0.141456
H32   H     H_    0.412433 0.416838 0.905585 0.139126
H33   H     H_    0.587568 0.583163 0.094414 0.139161
H34   H     H_    0.319357 0.339523 0.615816 0.166475
N1    N     N_R   0.851921 0.488423 0.498958 -0.351308
N2    N     N_1   0.454233 0.890580 0.126942 -0.230842
N3    N     N_R   0.148209 0.521346 0.500924 -0.351330
N4    N     N_3   0.499960 0.500030 0.863290 -0.084944
N5    N     N_3   0.500040 0.499970 0.136710 -0.084923
N6    N     N_1   0.182094 0.235465 0.683587 -0.182105
N7    N     N_1   0.815669 0.772972 0.316538 -0.182154
N8    N     N_1   0.652938 0.862378 0.593498 -0.196185
N9    N     N_1   0.347083 0.137819 0.406792 -0.196961
N10   N     N_1   0.545792 0.109480 0.873086 -0.230805
O1    O     O_R   0.500000 0.313960 0.616610 -0.622874
O2    O     O_2   0.153302 0.449304 0.275624 -0.550734
O3    O     O_2   0.852060 0.416777 0.271727 -0.553954
O4    O     O_2   0.148123 0.593261 0.728048 -0.553909
O5    O     O_R   0.500000 0.686040 0.383390 -0.622894
O6    O     O_R   0.500030 0.313950 0.383350 -0.617341
O7    O     O_R   0.499970 0.686050 0.616650 -0.617272
O8    O     O_R   0.416140 0.499970 0.616650 -0.621234
O9    O     O_R   0.583860 0.500030 0.383350 -0.621318
O10   O     O_R   0.416170 0.499960 0.383400 -0.610298
O11   O     O_R   0.583830 0.500040 0.616600 -0.610418
O12   O     O_2   0.846757 0.560848 0.724091 -0.550596
Zn1   Zn    Zn3+2 0.499980 0.500010 0.655740 0.952186
Zn2   Zn    Zn3+2 0.500020 0.499990 0.344260 0.952069

loop_
_geom_bond_atom_site_label_1
_geom_bond_atom_site_label_2
_ccdc_geom_bond_type
C43   H15   S    
C30   C32   A    
C21   H29   S    
C25   N1    A    
C43   H14   S    
C23   C45   A    
C27   C29   A    
O1    Zn1   S    
C36   H1    S    
C54   H26   S    
C2    C57   A    
C16   O8    A    
C39   C41   S    
C51   N10   T    
C29   C36   A    
C33   C39   A    
C23   C42   S    
C28   N3    A    
C21   C22   S    
C19   C21   S    
C40   H5    S    
C46   H21   S    
C11   C14   S    
C2    H2    S    
C27   O3    S    
C40   H4    S    
C3    C47   S    
C44   H18   S    
C26   O2    S    
C7    C14   S    
C20   C24   S    
C45   C56   A    
C28   O4    S    
C46   C55   S    
C31   C33   A    
N4    Zn1   S    
C52   N2    T    
O9    Zn2   S    
C18   N5    S    
C8    C52   S    
C9    C11   S    
C20   N4    S    
C34   C55   A    
C20   H23   S    
C42   H10   S    
C17   O9    A    
C12   O7    A    
C5    N3    S    
C17   O11   A    
C24   N5    S    
C32   C35   A    
C53   H22   S    
C9    C49   S    
C4    C6    A    
C15   C54   S    
C10   C14   S    
C46   H20   S    
C41   H7    S    
C42   H11   S    
C18   H30   S    
C40   H3    S    
C6    C34   A    
C30   C37   A    
C53   H24   S    
C44   H17   S    
C2    C4    A    
C16   C56   S    
C19   H31   S    
C54   H27   S    
C21   N5    S    
C31   C32   A    
C5    C23   A    
C6    N1    S    
C35   C38   A    
C22   H32   S    
N5    Zn2   S    
C44   H16   S    
C47   N6    T    
C8    C10   S    
C8    C15   S    
C55   C57   A    
C42   H9    S    
C27   N1    A    
C1    C13   S    
C10   C50   S    
C24   H33   S    
O10   Zn2   S    
C44   C45   S    
C16   O10   A    
C54   H28   S    
C4    C48   S    
C26   N3    A    
C7    C9    S    
C48   N7    T    
C1    O1    A    
C43   H13   S    
C18   C22   S    
C22   N4    S    
C34   C43   S    
C3    C5    A    
C10   C13   S    
C12   O5    A    
C11   C12   S    
C41   H8    S    
C46   H19   S    
C53   H25   S    
O6    Zn2   S    
C13   C15   S    
C19   C24   S    
C9    C15   S    
C7    C51   S    
C28   C30   A    
C29   C31   A    
C25   O12   S    
C49   N8    T    
C38   C40   S    
C8    C11   S    
C36   C38   A    
C56   C58   A    
C18   C20   S    
O5    Zn2   S    
O7    Zn1   S    
C1    O6    A    
C3    C58   A    
C26   C35   A    
C7    C13   S    
C14   C53   S    
C50   N9    T    
C37   C39   A    
C17   C57   S    
C41   H6    S    
C37   H12   S    
C58   H34   S    
O8    Zn1   S    
C19   N4    S    
C25   C33   A    
O11   Zn1   S    
