data_mof_unit_45560.cif
_audit_creation_date              2012-12-10T20:35:49-0500
_audit_creation_method            fapswitch 2.2
_symmetry_space_group_name_H-M    P1
_symmetry_Int_Tables_number       1
_space_group_crystal_system       triclinic
_cell_length_a                    15.729609
_cell_length_b                    10.671637
_cell_length_c                    9.873639
_cell_angle_alpha                 89.750383
_cell_angle_beta                  90.609854
_cell_angle_gamma                 90.659598
_cell_volume                      1657.17716731

loop_
_atom_site_label
_atom_site_type_symbol
_atom_type_description
_atom_site_fract_x
_atom_site_fract_y
_atom_site_fract_z
_atom_type_partial_charge
C1    C     C_R   0.500024 0.260427 0.500145 0.882560
C2    C     C_3   0.949041 0.478633 0.636706 -0.388929
C3    C     C_3   0.916553 0.489126 0.486902 -0.054222
C4    C     C_3   0.951218 0.618574 0.427650 0.775408
C5    C     C_3   0.049670 0.612577 0.418765 0.196946
C6    C     C_1   0.825190 0.493670 0.494892 -0.037110
C7    C     C_1   0.174360 0.496127 0.497248 -0.062469
C8    C     C_1   0.249618 0.497806 0.498037 -0.202885
C9    C     C_R   0.554944 0.062794 0.583037 0.055127
C10   C     C_R   0.500997 0.128809 0.497371 -0.053934
C11   C     C_R   0.455301 0.066839 0.394829 -0.271797
C12   C     C_R   0.338371 0.499550 0.499425 0.896745
C13   C     C_R   0.452741 0.936986 0.392884 -0.024606
C14   C     C_R   0.498462 0.871517 0.494816 -0.095852
C15   C     C_R   0.554477 0.935442 0.580409 0.013355
C16   C     C_3   0.572893 0.923997 0.728663 -0.516484
C17   C     C_3   0.572808 0.066649 0.732137 0.270874
C18   C     C_R   0.427113 0.474394 0.069939 0.216465
C19   C     C_R   0.568906 0.540650 0.073864 -0.148601
C20   C     C_R   0.568327 0.544860 0.930443 0.428485
C21   C     C_R   0.426986 0.474793 0.927830 0.128390
C22   C     C_3   0.372586 0.359859 0.921104 -0.462881
C23   C     C_R   0.498176 0.739521 0.499229 0.873720
C24   C     C_3   0.373949 0.358049 0.075281 -0.496251
C25   C     C_R   0.661571 0.500540 0.500488 0.898999
C26   C     C_3   0.047310 0.484236 0.645163 0.794784
C27   C     C_3   0.050876 0.378792 0.413630 -0.554250
C28   C     C_3   0.949859 0.367729 0.406728 0.021640
C29   C     C_1   0.750143 0.497807 0.500400 -0.177717
C30   C     C_3   0.082657 0.494349 0.496737 -0.043534
H1    H     H_    0.924936 0.390886 0.684242 0.193748
H2    H     H_    0.921166 0.552844 0.700931 0.200610
H3    H     H_    0.417634 0.119067 0.321736 0.160396
H4    H     H_    0.519963 0.878967 0.785542 0.227336
H5    H     H_    0.636795 0.884254 0.748985 0.170079
H6    H     H_    0.635133 0.111356 0.758336 0.090793
H7    H     H_    0.624496 0.573087 0.129444 0.171960
H8    H     H_    0.308651 0.379567 0.877469 0.199305
H9    H     H_    0.405276 0.279541 0.875100 0.265460
H10   H     H_    0.310607 0.375074 0.120095 0.205889
H11   H     H_    0.408886 0.277161 0.119042 0.208791
H12   H     H_    0.077549 0.390694 0.310258 0.179045
H13   H     H_    0.082882 0.292654 0.447666 0.205125
H14   H     H_    0.066013 0.599308 0.310195 0.176728
N1    N     N_R   0.499430 0.499140 0.142800 -0.136086
N2    N     N_R   0.499430 0.499180 0.857150 -0.153572
O1    O     O_R   0.500010 0.316790 0.614690 -0.571230
O2    O     O_R   0.500000 0.316760 0.385350 -0.633707
O3    O     O_R   0.377150 0.500020 0.614720 -0.617874
O4    O     O_R   0.377140 0.499990 0.385380 -0.609390
O5    O     O_R   0.500000 0.683240 0.614650 -0.646529
O6    O     O_R   0.499990 0.683210 0.385310 -0.606867
O7    O     O_R   0.622860 0.500010 0.614620 -0.593924
O8    O     O_R   0.622850 0.499980 0.385280 -0.634302
Zn1   Zn    Zn3+2 0.500010 0.500020 0.653130 0.961676
Zn2   Zn    Zn3+2 0.499990 0.499980 0.346870 0.945333
O9    O     O_3   0.071012 0.588554 0.724949 -0.813809
H15   H     H_    0.133469 0.586957 0.739903 0.322437
O10   O     O_3   0.919949 0.639717 0.295586 -0.772279
H16   H     H_    0.862679 0.677338 0.302317 0.358344
C31   C     C_R   0.398706 0.874117 0.288913 0.133546
C32   C     C_R   0.419094 0.885632 0.151172 -0.136292
C33   C     C_R   0.370356 0.822757 0.052990 -0.141986
C34   C     C_R   0.300582 0.749075 0.091473 -0.132301
C35   C     C_R   0.279215 0.738565 0.228133 -0.075013
C36   C     C_R   0.327950 0.800933 0.326764 -0.100026
H17   H     H_    0.473453 0.941593 0.120195 0.127404
H18   H     H_    0.386883 0.830723 0.947136 0.142788
H19   H     H_    0.263146 0.700003 0.015421 0.138006
H20   H     H_    0.225163 0.681500 0.257629 0.159257
H21   H     H_    0.311098 0.791443 0.432426 0.116903
O11   O     O_3   0.503959 0.112305 0.804801 -0.748993
H22   H     H_    0.521495 0.108764 0.901557 0.322261
O12   O     O_3   0.075366 0.373817 0.710120 -0.792840
H23   H     H_    0.137849 0.379672 0.723661 0.326124
O13   O     O_3   0.637040 0.599283 0.868254 -0.776026
H24   H     H_    0.614410 0.646369 0.789735 0.366922
C37   C     C_R   0.913387 0.245408 0.474824 0.130605
C38   C     C_R   0.827685 0.209209 0.448122 -0.143473
C39   C     C_R   0.791632 0.101704 0.505914 -0.158645
C40   C     C_R   0.839461 0.026999 0.592914 -0.068287
C41   C     C_R   0.923507 0.059835 0.622290 -0.104952
C42   C     C_R   0.960250 0.167191 0.564588 -0.149306
H25   H     H_    0.787716 0.263676 0.381176 0.130855
H26   H     H_    0.726341 0.076268 0.482671 0.129511
H27   H     H_    0.811350 0.943776 0.637767 0.145315
H28   H     H_    0.960509 0.002017 0.690748 0.147651
H29   H     H_    0.024614 0.186758 0.595172 0.186188
C43   C     C_R   0.924565 0.354809 0.253574 0.137892
C44   C     C_R   0.854708 0.415618 0.190843 -0.096475
C45   C     C_R   0.832391 0.392665 0.055631 -0.134565
C46   C     C_R   0.877029 0.305715 0.980383 -0.096237
C47   C     C_R   0.943503 0.240181 0.040661 -0.087816
C48   C     C_R   0.966009 0.262616 0.175768 -0.162864
H30   H     H_    0.814224 0.478016 0.244329 0.147551
H31   H     H_    0.779018 0.440835 0.009911 0.169126
H32   H     H_    0.858728 0.286864 0.876427 0.132317
H33   H     H_    0.976902 0.170298 0.983287 0.145483
H34   H     H_    0.015770 0.206118 0.220507 0.143757
O14   O     O_3   0.089673 0.727498 0.453095 -0.748870
H35   H     H_    0.107315 0.726429 0.549240 0.362613
O15   O     O_3   0.925357 0.720376 0.509068 -0.753415
H36   H     H_    0.960815 0.724899 0.592334 0.350853

loop_
_geom_bond_atom_site_label_1
_geom_bond_atom_site_label_2
_ccdc_geom_bond_type
C47   C48   A    
C18   C21   A    
C19   C20   A    
C3    C6    S    
C12   O3    A    
O9    H15   S    
C7    C8    T    
C32   C33   A    
C32   H17   S    
C18   C24   S    
C3    C28   S    
C25   O7    A    
C21   N2    A    
C16   H5    S    
C38   H25   S    
C39   C40   A    
C35   H20   S    
C22   H8    S    
C20   O13   S    
C2    H2    S    
C43   C48   A    
O14   H35   S    
C19   H7    S    
C16   H4    S    
C45   H31   S    
C31   C36   A    
N1    Zn2   S    
C16   C17   S    
C4    O15   S    
N2    Zn1   S    
C28   C43   S    
C17   H6    S    
C28   C37   S    
C9    C10   A    
C40   H27   S    
C42   H29   S    
O10   H16   S    
C7    C30   S    
C21   C22   S    
C27   C30   S    
C24   H11   S    
C31   C32   A    
C37   C42   A    
C46   H32   S    
C40   C41   A    
O7    Zn1   S    
C25   C29   S    
O8    Zn2   S    
O12   H23   S    
C11   H3    S    
C25   O8    A    
C45   C46   A    
C37   C38   A    
C1    O1    A    
O3    Zn1   S    
C41   C42   A    
C15   C16   S    
O4    Zn2   S    
C33   C34   A    
C2    H1    S    
C14   C23   S    
C23   O6    A    
C39   H26   S    
C27   H13   S    
C23   O5    A    
C36   H21   S    
C5    O14   S    
C8    C12   S    
C2    C26   S    
C34   H19   S    
O13   H24   S    
C9    C17   S    
C5    H14   S    
C26   C30   S    
C22   C24   S    
C3    C4    S    
C18   N1    A    
O1    Zn1   S    
C5    C30   S    
O2    Zn2   S    
C33   H18   S    
C24   H10   S    
C1    C10   S    
O11   H22   S    
C44   H30   S    
C12   O4    A    
C19   N1    A    
C1    O2    A    
C34   C35   A    
C2    C3    S    
C9    C15   A    
C11   C13   A    
C27   H12   S    
C44   C45   A    
C48   H34   S    
C22   H9    S    
C4    O10   S    
C46   C47   A    
C26   O12   S    
O5    Zn1   S    
O15   H36   S    
C26   O9    S    
C10   C11   A    
C38   C39   A    
O6    Zn2   S    
C4    C5    S    
C6    C29   T    
C13   C31   S    
C17   O11   S    
C35   C36   A    
C27   C28   S    
C14   C15   A    
C43   C44   A    
C13   C14   A    
C47   H33   S    
C20   N2    A    
C41   H28   S    
