data_mof_unit_54038.cif
_audit_creation_date              2012-10-26T18:43:30-0400
_audit_creation_method            fapswitch 2.2
_symmetry_space_group_name_H-M    P1
_symmetry_Int_Tables_number       1
_space_group_crystal_system       triclinic
_cell_length_a                    10.82888
_cell_length_b                    10.834235
_cell_length_c                    9.590756
_cell_angle_alpha                 90.349719
_cell_angle_beta                  89.646005
_cell_angle_gamma                 91.892749
_cell_volume                      1124.55775521

loop_
_atom_site_label
_atom_site_type_symbol
_atom_type_description
_atom_site_fract_x
_atom_site_fract_y
_atom_site_fract_z
_atom_type_partial_charge
C1    C     C_R   0.490198 0.262671 0.499777 0.533051
C2    C     C_R   0.492508 0.938864 0.622759 0.016074
C3    C     C_3   0.592592 0.941954 0.729468 0.080749
C4    C     C_R   0.260327 0.494908 0.500287 0.537360
C5    C     C_3   0.585668 0.081636 0.730616 -0.184021
C6    C     C_R   0.530545 0.605487 0.074624 0.119860
C7    C     C_R   0.452831 0.402660 0.075042 0.059246
C8    C     C_R   0.447860 0.403842 0.927561 0.325651
C9    C     C_R   0.538862 0.602300 0.927424 0.118450
C10   C     C_3   0.667329 0.658250 0.935318 0.088877
C11   C     C_3   0.647662 0.678215 0.090162 -0.223370
C12   C     C_3   0.879352 0.497202 0.498250 0.084699
C13   C     C_R   0.495351 0.737737 0.500090 0.589096
C14   C     C_R   0.740333 0.499614 0.499256 0.544575
C15   C     C_3   0.067570 0.380846 0.585886 0.146245
C16   C     C_3   0.923159 0.386095 0.591952 0.410931
C17   C     C_3   0.078691 0.616967 0.559967 -0.126077
C18   C     C_3   0.074242 0.477509 0.349455 -0.248567
C19   C     C_3   0.122978 0.492448 0.500840 -0.122988
C20   C     C_3   0.936715 0.626190 0.549645 0.403550
C21   C     C_3   0.931935 0.472186 0.347279 0.073637
C22   C     C_R   0.487653 0.065133 0.623156 -0.027464
C23   C     C_R   0.466426 0.129514 0.501262 -0.020073
C24   C     C_R   0.420288 0.061877 0.384248 0.216217
C25   C     C_R   0.429160 0.931304 0.381803 0.260468
C26   C     C_R   0.475990 0.870615 0.500163 0.035320
Cu1   Cu    Cu3+1 0.499990 0.499980 0.640670 1.008424
Cu2   Cu    Cu3+1 0.500010 0.500020 0.359330 0.979804
H1    H     H_    0.125089 0.694156 0.501321 0.173633
H2    H     H_    0.324067 0.192226 0.308737 0.328306
H3    H     H_    0.366987 0.916251 0.190750 0.375581
H4    H     H_    0.563515 0.898164 0.829311 0.111402
H5    H     H_    0.767610 0.920314 0.746523 0.348679
H6    H     H_    0.549017 0.118389 0.830472 0.171789
H7    H     H_    0.670250 0.130476 0.690656 0.184080
H8    H     H_    0.092400 0.296123 0.526943 0.194719
H9    H     H_    0.343926 0.338359 0.783714 0.394379
H10   H     H_    0.739967 0.495448 0.960454 0.343355
H11   H     H_    0.785164 0.269624 0.553194 0.343297
H12   H     H_    0.415013 0.323712 0.130507 0.179336
H13   H     H_    0.925241 0.464152 0.777953 0.377684
H14   H     H_    0.109317 0.630161 0.669570 0.138015
H15   H     H_    0.808493 0.692804 0.670889 0.378854
H16   H     H_    0.109029 0.391682 0.300705 0.108828
H17   H     H_    0.899334 0.378435 0.311871 0.164487
H18   H     H_    0.682377 0.744331 0.876688 0.164641
H19   H     H_    0.713248 0.633026 0.157920 0.230288
H20   H     H_    0.630902 0.775962 0.118424 0.132849
H21   H     H_    0.110217 0.556240 0.285014 0.211707
H22   H     H_    0.125662 0.447856 0.766356 0.328335
H23   H     H_    0.911187 0.525250 0.156436 0.338341
H24   H     H_    0.821885 0.727779 0.445086 0.348069
N1    N     N_R   0.500800 0.500930 0.147930 -0.278838
N2    N     N_R   0.500800 0.500890 0.852020 -0.234249
O1    O     O_R   0.500000 0.319640 0.618810 -0.493024
O2    O     O_3   0.892304 0.558582 0.250652 -0.677822
O3    O     O_3   0.912676 0.721224 0.453996 -0.610030
O4    O     O_3   0.367408 0.119375 0.272635 -0.702896
O5    O     O_3   0.392389 0.861652 0.267003 -0.676260
O6    O     O_3   0.704619 0.902459 0.673824 -0.700417
O7    O     O_3   0.387143 0.305619 0.864736 -0.684240
O8    O     O_3   0.759198 0.572496 0.907734 -0.641241
O9    O     O_3   0.875724 0.273194 0.537105 -0.689276
O10   O     O_3   0.880048 0.395399 0.730752 -0.599499
O11   O     O_3   0.892022 0.659962 0.682102 -0.662306
O12   O     O_R   0.500010 0.319680 0.381230 -0.507285
O13   O     O_R   0.317690 0.499960 0.618790 -0.517463
O14   O     O_R   0.317700 0.500000 0.381210 -0.509519
O15   O     O_R   0.499990 0.680320 0.618770 -0.513693
O16   O     O_R   0.500000 0.680360 0.381190 -0.451132
O17   O     O_R   0.682300 0.500000 0.618790 -0.440754
O18   O     O_R   0.682310 0.500040 0.381210 -0.489983
O19   O     O_3   0.119808 0.366576 0.718899 -0.670454

loop_
_geom_bond_atom_site_label_1
_geom_bond_atom_site_label_2
_ccdc_geom_bond_type
C10   H18   S    
C4    O13   A    
H9    O7    S    
C7    H12   S    
C2    C22   A    
C9    N2    A    
C16   O9    S    
C18   H16   S    
C21   O2    S    
C18   C21   S    
H11   O9    S    
C9    C10   S    
C20   O11   S    
C11   H19   S    
Cu1   O15   S    
H15   O11   S    
C8    O7    S    
C23   C24   A    
C14   O18   A    
C3    O6    S    
C12   C20   S    
C6    C9    A    
C1    O12   A    
C1    O1    A    
Cu1   N2    S    
Cu1   O17   S    
C7    C8    A    
C2    C26   A    
C10   O8    S    
C13   O16   A    
C5    H6    S    
Cu2   N1    S    
C15   C19   S    
C11   H20   S    
Cu2   O18   S    
C13   O15   A    
C12   C16   S    
H2    O4    S    
Cu2   O14   S    
C12   C14   S    
C2    C3    S    
H5    O6    S    
C21   H17   S    
C3    H4    S    
Cu1   O1    S    
C13   C26   S    
Cu1   O13   S    
C10   C11   S    
C7    N1    A    
C6    N1    A    
H3    O5    S    
H24   O3    S    
C3    C5    S    
C17   C19   S    
C5    H7    S    
C15   H8    S    
Cu1   Cu2   S    
C17   C20   S    
C17   H1    S    
C24   C25   A    
C24   O4    S    
H23   O2    S    
C14   O17   A    
H22   O19   S    
C8    N2    A    
C6    C11   S    
C4    O14   A    
C17   H14   S    
C18   C19   S    
Cu2   O12   S    
C25   O5    S    
C1    C23   S    
C16   O10   S    
H13   O10   S    
C15   O19   S    
C25   C26   A    
C22   C23   A    
C4    C19   S    
C20   O3    S    
C12   C21   S    
Cu2   O16   S    
C5    C22   S    
C15   C16   S    
C18   H21   S    
H10   O8    S    
