data_mof_unit_35296.cif
_audit_creation_date              2012-10-26T21:21:06-0400
_audit_creation_method            fapswitch 2.2
_symmetry_space_group_name_H-M    P1
_symmetry_Int_Tables_number       1
_space_group_crystal_system       triclinic
_cell_length_a                    10.858356
_cell_length_b                    10.900444
_cell_length_c                    9.702723
_cell_angle_alpha                 89.796487
_cell_angle_beta                  88.104275
_cell_angle_gamma                 90.681361
_cell_volume                      1147.70439156

loop_
_atom_site_label
_atom_site_type_symbol
_atom_type_description
_atom_site_fract_x
_atom_site_fract_y
_atom_site_fract_z
_atom_type_partial_charge
C1    C     C_R   0.505459 0.265353 0.500240 0.572914
C2    C     C_2   0.522034 0.133523 0.504101 -0.123748
C3    C     C_2   0.442284 0.417368 0.925600 0.425622
C4    C     C_R   0.261782 0.506579 0.503472 0.563108
C5    C     C_2   0.426314 0.431968 0.080750 0.035421
C6    C     C_R   0.504042 0.734656 0.499525 0.526116
C7    C     C_R   0.737521 0.491913 0.497511 0.576350
C8    C     C_R   0.090744 0.498220 0.771100 0.251462
C9    C     C_R   0.019772 0.442596 0.880815 0.238383
C10   C     C_R   0.909853 0.378088 0.852636 0.215508
C11   C     C_R   0.872011 0.369420 0.716233 0.259934
C12   C     C_R   0.053034 0.484201 0.632553 -0.044689
C13   C     C_R   0.932167 0.441853 0.612825 -0.084312
C14   C     C_3   0.640699 0.643259 0.882289 -0.045068
C15   C     C_3   0.101139 0.344712 0.063826 -0.122282
C16   C     C_3   0.910984 0.674978 0.214338 -0.089985
C17   C     C_3   0.724351 0.159627 0.276273 -0.053497
C18   C     C_R   0.126374 0.513953 0.511267 -0.022773
C19   C     C_R   0.068516 0.534196 0.386472 -0.153996
C20   C     C_R   0.940992 0.526506 0.378697 0.233295
C21   C     C_R   0.871990 0.479628 0.492872 0.025795
C22   C     C_2   0.574124 0.933213 0.401973 0.228235
C23   C     C_2   0.508718 0.867308 0.498636 -0.136785
C24   C     C_2   0.564148 0.068250 0.394790 0.282705
Cu1   Cu    Cu3+1 0.500020 0.500020 0.638630 1.109765
Cu2   Cu    Cu3+1 0.499980 0.499980 0.361370 0.998596
H1    H     H_    0.122433 0.558057 0.294222 0.165089
H2    H     H_    0.200125 0.581790 0.898471 0.364259
H3    H     H_    0.027363 0.274104 0.078411 0.145885
H4    H     H_    0.140828 0.359843 0.166151 0.135744
H5    H     H_    0.174583 0.308891 0.993326 0.122655
H6    H     H_    0.847808 0.376446 0.042929 0.367715
H7    H     H_    0.749012 0.240998 0.760480 0.373183
H8    H     H_    0.906087 0.740758 0.301977 0.099787
H9    H     H_    0.841512 0.703330 0.139639 0.145896
H10   H     H_    0.002627 0.680953 0.160318 0.153504
H11   H     H_    0.684167 0.803061 0.340663 0.319757
H12   H     H_    0.507915 0.091704 0.604838 0.072640
H13   H     H_    0.783920 0.078350 0.289311 0.139101
H14   H     H_    0.740870 0.227340 0.359412 0.128222
H15   H     H_    0.752258 0.203668 0.176967 0.174390
H16   H     H_    0.354826 0.379026 0.134675 0.105927
H17   H     H_    0.580263 0.527506 0.107209 0.248873
H18   H     H_    0.451235 0.909849 0.577605 0.073033
H19   H     H_    0.373233 0.253222 0.938254 0.289619
H20   H     H_    0.658689 0.686257 0.780190 0.155936
H21   H     H_    0.703300 0.564139 0.895780 0.121474
H22   H     H_    0.664732 0.712712 0.960554 0.121212
N1    N     N_2   0.498640 0.498660 0.846910 0.003700
N2    N     N_2   0.498610 0.498630 0.153040 -0.331283
O1    O     O_R   0.500020 0.321960 0.617040 -0.435939
O2    O     O_3   0.515243 0.610433 0.903207 -0.500409
O3    O     O_3   0.183677 0.581488 0.798757 -0.647048
O4    O     O_3   0.055229 0.457094 0.015689 -0.585101
O5    O     O_3   0.832575 0.331517 0.956484 -0.742420
O6    O     O_3   0.776065 0.292274 0.680402 -0.689309
O7    O     O_3   0.883844 0.553212 0.256396 -0.543050
O8    O     O_3   0.648724 0.878504 0.301900 -0.670261
O9    O     O_3   0.598608 0.125974 0.271678 -0.505959
O10   O     O_R   0.499980 0.321920 0.382900 -0.474113
O11   O     O_R   0.319670 0.500020 0.617100 -0.411805
O12   O     O_R   0.319630 0.499980 0.382950 -0.532768
O13   O     O_R   0.500020 0.678080 0.617100 -0.485415
O14   O     O_R   0.499980 0.678040 0.382960 -0.471013
O15   O     O_R   0.680370 0.500020 0.617050 -0.504666
O16   O     O_R   0.680330 0.499980 0.382900 -0.478127
O17   O     O_3   0.396535 0.313126 0.864603 -0.684993

loop_
_geom_bond_atom_site_label_1
_geom_bond_atom_site_label_2
_ccdc_geom_bond_type
C6    O13   A    
C22   O8    S    
C14   H22   S    
C5    H16   S    
Cu1   O1    S    
H17   N2    S    
C15   H5    S    
H19   O17   S    
C7    O15   A    
C19   H1    S    
C9    C10   A    
C2    H12   S    
H6    O5    S    
C19   C20   A    
C8    C12   A    
H2    O3    S    
N1    O2    S    
C4    C18   S    
C16   H8    S    
H7    O6    S    
C3    N1    D    
C8    O3    S    
C13   C21   A    
C14   H20   S    
Cu1   O11   S    
C16   H10   S    
C7    O16   A    
C10   O5    S    
C1    O1    A    
C14   H21   S    
C3    O17   S    
C17   O9    S    
C24   O9    S    
C6    C23   S    
C1    C2    S    
Cu1   Cu2   S    
C15   H3    S    
Cu2   O12   S    
C16   O7    S    
Cu2   N2    S    
C16   H9    S    
C2    C24   D    
C22   C24   S    
C5    N2    D    
C17   H15   S    
C10   C11   A    
C11   O6    S    
C12   C18   A    
Cu2   O16   S    
C15   O4    S    
C4    O12   A    
C11   C13   A    
Cu1   O15   S    
C20   C21   A    
C15   H4    S    
C18   C19   A    
Cu1   O13   S    
C1    O10   A    
C6    O14   A    
C17   H13   S    
C22   C23   D    
Cu2   O14   S    
C9    O4    S    
C12   C13   A    
C20   O7    S    
C7    C21   S    
Cu2   O10   S    
C4    O11   A    
C17   H14   S    
C14   O2    S    
C23   H18   S    
H11   O8    S    
C8    C9    A    
C3    C5    S    
Cu1   N1    S    
