data_mof_unit_13218.cif
_audit_creation_date              2013-03-05T15:50:44-0500
_audit_creation_method            fapswitch 2.2
_symmetry_space_group_name_H-M    P1
_symmetry_Int_Tables_number       1
_space_group_crystal_system       triclinic
_cell_length_a                    10.664721
_cell_length_b                    12.022377
_cell_length_c                    12.88546
_cell_angle_alpha                 93.538135
_cell_angle_beta                  90.161712
_cell_angle_gamma                 85.526409
_cell_volume                      1643.93701556

loop_
_atom_site_label
_atom_site_type_symbol
_atom_site_description
_atom_site_fract_x
_atom_site_fract_y
_atom_site_fract_z
_atom_type_partial_charge
O1    O     O_R   0.506240 0.421700 0.658830 -0.624104
O2    O     O_R   0.491240 0.609310 0.646410 -0.638537
C1    C     C_R   0.497794 0.522350 0.699981 0.893469
O3    O     O_R   0.692710 0.406190 0.506230 -0.611726
O4    O     O_R   0.677700 0.593810 0.493810 -0.618004
C2    C     C_R   0.742264 0.499397 0.498613 0.855292
Zn1   Zn    Zn3+2 0.510020 0.374730 0.508290 1.008233
Zn2   Zn    Zn3+2 0.489980 0.625270 0.491710 1.006262
O5    O     O_R   0.508760 0.390690 0.353590 -0.567468
O6    O     O_R   0.493760 0.578300 0.341170 -0.535713
O7    O     O_R   0.322300 0.406190 0.506190 -0.638200
O8    O     O_R   0.307290 0.593810 0.493770 -0.644605
C3    C     C_R   0.504273 0.477683 0.299392 0.980061
C4    C     C_R   0.257771 0.499900 0.498475 0.843313
C5    C     C_3   0.930359 0.488286 0.611395 -0.183605
H1    H     H_    0.894550 0.565659 0.657611 0.136345
C6    C     C_3   0.075419 0.486149 0.610104 -0.447550
H2    H     H_    0.106001 0.555902 0.662736 0.160139
H3    H     H_    0.119856 0.407378 0.639721 0.202072
H4    H     H_    0.913277 0.318622 0.454158 0.192805
H5    H     H_    0.122204 0.318545 0.455604 0.197467
C7    C     C_3   0.937867 0.398715 0.423767 -0.184832
C8    C     C_3   0.918739 0.610173 0.459532 -0.359667
C9    C     C_3   0.879031 0.497779 0.497666 -0.044040
H6    H     H_    0.880421 0.625888 0.381206 0.266373
H7    H     H_    0.881026 0.681680 0.512527 0.183228
C10   C     C_3   0.121592 0.498816 0.498016 0.088248
C11   C     C_3   0.082352 0.399017 0.426159 -0.405921
C12   C     C_3   0.061129 0.608993 0.457426 -0.337784
H8    H     H_    0.089367 0.681691 0.507328 0.217807
H9    H     H_    0.092637 0.617240 0.376289 0.222022
H10   H     H_    0.122952 0.403618 0.347160 0.213079
C13   C     C_R   0.506823 0.463890 0.187188 -0.282021
C14   C     C_R   0.501213 0.537001 0.810483 -0.022674
C15   C     C_R   0.575257 0.632348 0.964769 -0.105469
C16   C     C_R   0.558314 0.627183 0.858336 -0.178614
C17   C     C_R   0.457161 0.453981 0.867696 -0.211935
C18   C     C_R   0.473896 0.457987 0.973773 0.069431
C19   C     C_R   0.533233 0.547876 0.023713 0.048575
C20   C     C_R   0.550604 0.550516 0.130805 0.236189
C21   C     C_R   0.452029 0.372521 0.135658 0.293416
C22   C     C_R   0.434837 0.371258 0.029265 -0.244981
H11   H     H_    0.623748 0.701114 0.999308 0.193403
H12   H     H_    0.391059 0.301925 0.989900 0.184788
H13   H     H_    0.594347 0.690808 0.813105 0.154372
H14   H     H_    0.412555 0.384596 0.829044 0.152780
N1    N     N_R   0.523380 0.207800 0.519350 -0.116100
N2    N     N_R   0.476620 0.792180 0.480650 -0.136170
C23   C     C_R   0.369917 0.960918 0.418841 -0.283658
C24   C     C_R   0.381658 0.844397 0.423509 0.149237
C25   C     C_R   0.560089 0.856096 0.533477 -0.038739
C26   C     C_R   0.550059 0.974494 0.530201 0.083655
C27   C     C_R   0.453375 0.026447 0.471684 0.058011
C28   C     C_R   0.441554 0.143613 0.467155 0.045673
C29   C     C_R   0.617820 0.159507 0.577257 0.047715
C30   C     C_R   0.633009 0.042668 0.583786 -0.283007
H15   H     H_    0.367631 0.183852 0.421596 0.156802
H16   H     H_    0.682185 0.211731 0.618259 0.163807
H17   H     H_    0.294885 0.000536 0.373619 0.186189
H18   H     H_    0.708793 0.006292 0.629984 0.159298
H19   H     H_    0.633628 0.815212 0.578898 0.126672
C31   C     C_2   0.885735 0.391546 0.667962 0.919102
O9    O     O_2   0.922938 0.295069 0.641997 -0.641611
O10   O     O_R   0.802057 0.413803 0.751328 -0.812657
H20   H     H_    0.777776 0.343287 0.782827 0.346938
C32   C     C_2   0.888331 0.399210 0.313158 0.938746
O11   O     O_2   0.809379 0.335304 0.284965 -0.584205
O12   O     O_R   0.934866 0.469873 0.242658 -0.777194
H21   H     H_    0.896795 0.459545 0.170851 0.370143
N3    N     N_R   0.611427 0.641355 0.182228 0.221948
O13   O     O_R   0.558633 0.742770 0.183848 -0.341025
O14   O     O_R   0.714118 0.621516 0.234649 -0.402826
N4    N     N_R   0.408940 0.282511 0.190285 0.211216
O15   O     O_R   0.290429 0.263792 0.187193 -0.406855
O16   O     O_R   0.490360 0.205729 0.222005 -0.338364
C33   C     C_2   0.283953 0.784892 0.367256 0.941652
O17   O     O_2   0.173465 0.814263 0.385395 -0.667207
O18   O     O_R   0.315178 0.708382 0.283977 -0.742160
H22   H     H_    0.238772 0.678618 0.248205 0.333258

loop_
_geom_bond_atom_site_label_1
_geom_bond_atom_site_label_2
_geom_bond_distance
_ccdc_geom_bond_type
C32   O12   1.398865 S    
C29   C30   1.409061 A    
C10   C12   1.547338 S    
C14   C17   1.387922 A    
C21   C22   1.381924 A    
C15   C16   1.381008 A    
C25   H19   1.082585 S    
C27   C28   1.409210 A    
Zn1   O7    2.008619 S    
C17   C18   1.376335 A    
C20   N3    1.439190 S    
C8    C12   1.517814 S    
C33   O18   1.393155 S    
C18   C22   1.390497 A    
O4    C2    1.285622 A    
O7    C4    1.282665 A    
C5    H1    1.115016 S    
C5    C6    1.545344 S    
N4    O15   1.301007 A    
C8    H7    1.114581 S    
O5    C3    1.290737 A    
C7    C32   1.518801 S    
C31   O10   1.398068 S    
N2    C25   1.372939 A    
O12   H21   1.013874 S    
C8    C9    1.555320 S    
N3    O13   1.301477 A    
C4    C10   1.453387 S    
C12   H8    1.112935 S    
C15   H11   1.081196 S    
N2    C24   1.384022 A    
C32   O11   1.223090 D    
C7    C11   1.541400 S    
N4    O16   1.301037 A    
C22   H12   1.085009 S    
O3    Zn1   2.014017 S    
C13   C20   1.414783 A    
C25   C26   1.422325 A    
C6    C10   1.547423 S    
C11   H10   1.113515 S    
C33   O17   1.222389 D    
O3    C2    1.284860 A    
C19   C20   1.390538 A    
O18   H22   1.013649 S    
C1    C14   1.424610 S    
C30   H18   1.083088 S    
O1    C1    1.287465 A    
Zn1   N1    2.014651 S    
C15   C19   1.406134 A    
Zn2   N2    2.014412 S    
C3    C13   1.445164 S    
C31   O9    1.223005 D    
C24   C33   1.473426 S    
Zn2   O8    2.014018 S    
C2    C9    1.457271 S    
C6    H2    1.113904 S    
C16   H13   1.083799 S    
N1    C28   1.359058 A    
C5    C9    1.570531 S    
H5    C11   1.113927 S    
H4    C7    1.111680 S    
C7    C9    1.570251 S    
C26   C27   1.405395 A    
N1    C29   1.366108 A    
Zn1   O5    2.014254 S    
O1    Zn1   1.986183 S    
O2    Zn2   2.014255 S    
O8    C4    1.287982 A    
O6    C3    1.290133 A    
O4    Zn2   2.008618 S    
C23   H17   1.085767 S    
C13   C21   1.413123 A    
O10   H20   1.013814 S    
O2    C1    1.285223 A    
C12   H9    1.111651 S    
C18   C19   1.414548 A    
C23   C27   1.384292 A    
C6    H3    1.113846 S    
C5    C31   1.517686 S    
C14   C16   1.394592 A    
C8    H6    1.109267 S    
C21   N4    1.432156 S    
Zn2   O6    1.986184 S    
C23   C24   1.401675 A    
C29   H16   1.081106 S    
C10   C11   1.552745 S    
N3    O14   1.299036 A    
C17   H14   1.086040 S    
C26   C30   1.403890 A    
C28   H15   1.083113 S    
