data_mof_unit_22001.cif
_audit_creation_date              2012-12-10T18:44:29-0500
_audit_creation_method            fapswitch 2.2
_symmetry_space_group_name_H-M    P1
_symmetry_Int_Tables_number       1
_space_group_crystal_system       triclinic
_cell_length_a                    12.791556
_cell_length_b                    10.791839
_cell_length_c                    9.862377
_cell_angle_alpha                 90.284371
_cell_angle_beta                  99.702094
_cell_angle_gamma                 90.601467
_cell_volume                      1341.86845904

loop_
_atom_site_label
_atom_site_type_symbol
_atom_type_description
_atom_site_fract_x
_atom_site_fract_y
_atom_site_fract_z
_atom_type_partial_charge
C1    C     C_R   0.507366 0.260033 0.501737 0.998159
C2    C     C_R   0.702823 0.490700 0.529573 0.996292
C3    C     C_R   0.817950 0.477859 0.551510 -0.281196
C4    C     C_R   0.183349 0.528955 0.445437 -0.279148
C5    C     C_R   0.014122 0.466012 0.317618 -0.202374
C6    C     C_R   0.986197 0.550780 0.674699 -0.236238
C7    C     C_R   0.120592 0.492536 0.320513 0.462590
C8    C     C_R   0.880970 0.517112 0.675184 0.493322
C9    C     C_R   0.134160 0.575018 0.551540 0.280023
C10   C     C_R   0.866799 0.438047 0.441601 0.275578
C11   C     C_R   0.029732 0.537942 0.554637 -0.064112
C12   C     C_R   0.505851 0.740447 0.501954 1.042666
C13   C     C_R   0.970224 0.478322 0.437743 -0.063670
C14   C     C_R   0.535568 0.061755 0.387426 0.408254
C15   C     C_R   0.510523 0.939273 0.628490 0.343735
C16   C     C_R   0.556816 0.936503 0.398396 0.312957
C17   C     C_R   0.535698 0.065054 0.634169 0.319466
C18   C     C_3   0.888080 0.438394 0.890344 -0.252993
C19   C     C_3   0.159665 0.600222 0.140126 -0.223511
C20   C     C_3   0.433512 0.095002 0.181109 -0.110320
C21   C     C_3   0.494312 0.859006 0.840675 0.075710
C22   C     C_3   0.734658 0.685362 0.976564 -0.233466
C23   C     C_R   0.524335 0.873046 0.508939 -0.391041
C24   C     C_3   0.264235 0.316045 0.022373 -0.277348
C25   C     C_R   0.526396 0.128128 0.507746 -0.389169
C26   C     C_R   0.579611 0.556612 0.089715 -0.141821
C27   C     C_R   0.422795 0.438553 0.910333 -0.208987
C28   C     C_R   0.580121 0.558974 0.944381 0.517494
C29   C     C_R   0.421514 0.437704 0.055794 0.596832
C30   C     C_R   0.297598 0.510539 0.470076 0.930292
H1    H     H_    0.967022 0.435800 0.221347 0.197853
H2    H     H_    0.206707 0.669788 0.209534 0.178577
H3    H     H_    0.076657 0.632164 0.108848 0.144364
H4    H     H_    0.196026 0.594311 0.046297 0.194633
H5    H     H_    0.433505 0.135238 0.078556 0.223726
H6    H     H_    0.368754 0.138121 0.226805 0.142180
H7    H     H_    0.417309 0.994101 0.165406 0.147804
H8    H     H_    0.577279 0.830853 0.839634 0.159238
H9    H     H_    0.451990 0.778295 0.875802 0.189551
H10   H     H_    0.491156 0.934808 0.916070 0.199559
H11   H     H_    0.765124 0.751439 0.300830 0.358666
H12   H     H_    0.033211 0.585683 0.768863 0.183017
H13   H     H_    0.682131 0.307122 0.841809 0.399089
H14   H     H_    0.789214 0.732795 0.916845 0.237596
H15   H     H_    0.783397 0.623714 0.051372 0.154673
H16   H     H_    0.697066 0.759049 0.029581 0.198356
H17   H     H_    0.295255 0.243732 0.959759 0.146579
H18   H     H_    0.217283 0.385271 0.955719 0.147735
H19   H     H_    0.209309 0.268508 0.081485 0.227530
H20   H     H_    0.642539 0.598535 0.161787 0.207289
H21   H     H_    0.363270 0.390426 0.838023 0.164664
H22   H     H_    0.769296 0.198255 0.489121 0.357235
H23   H     H_    0.229672 0.566292 0.820134 0.303700
H24   H     H_    0.968064 0.471542 0.939561 0.144779
H25   H     H_    0.893284 0.345155 0.842907 0.189396
H26   H     H_    0.839821 0.427145 0.972867 0.223614
N1    N     N_R   0.499970 0.499970 0.857200 -0.121106
N2    N     N_R   0.500030 0.500030 0.142800 -0.122989
O1    O     O_R   0.499990 0.316750 0.614620 -0.584254
O2    O     O_2   0.891122 0.231991 0.292591 -0.263919
O3    O     O_3   0.724333 0.234201 0.407481 -0.483442
O4    O     O_2   0.266827 0.769587 0.578937 -0.248996
O5    O     O_2   0.112501 0.785871 0.693076 -0.260964
O6    O     O_3   0.266119 0.644335 0.802558 -0.552304
O7    O     O_3   0.838647 0.525735 0.794675 -0.565497
O8    O     O_3   0.162211 0.482000 0.201074 -0.585040
O9    O     O_3   0.533143 0.119985 0.262500 -0.466029
O10   O     O_3   0.440751 0.894107 0.710453 -0.557445
O11   O     O_2   0.546546 0.812142 0.162723 -0.396269
O12   O     O_R   0.500010 0.683250 0.385380 -0.576088
O13   O     O_2   0.691497 0.963358 0.218384 -0.182024
O14   O     O_3   0.706491 0.757116 0.354508 -0.583438
O15   O     O_2   0.516735 0.180282 0.869615 -0.335711
O16   O     O_2   0.666475 0.039081 0.878831 -0.275541
O17   O     O_3   0.680613 0.249705 0.762846 -0.544795
O18   O     O_3   0.658840 0.616899 0.884208 -0.567098
O19   O     O_3   0.346182 0.373580 0.116510 -0.560247
O20   O     O_R   0.499990 0.316780 0.385290 -0.531495
O21   O     O_R   0.500010 0.683220 0.614710 -0.570459
O22   O     O_R   0.346360 0.499970 0.595710 -0.609640
O23   O     O_R   0.653640 0.500030 0.404290 -0.574784
O24   O     O_R   0.346360 0.499990 0.366380 -0.558381
O25   O     O_R   0.653640 0.500010 0.633620 -0.539165
O26   O     O_2   0.748048 0.371684 0.199439 -0.292539
S1    S     S_3+6 0.807841 0.317398 0.329177 0.068528
S2    S     S_3+6 0.194889 0.698938 0.657129 0.048917
S3    S     S_3+6 0.625898 0.867354 0.277019 0.029263
S4    S     S_3+6 0.599737 0.132602 0.792335 0.050626
Zn1   Zn    Zn3+2 0.500000 0.499980 0.653120 1.078992
Zn2   Zn    Zn3+2 0.500000 0.500020 0.346880 1.113955

loop_
_geom_bond_atom_site_label_1
_geom_bond_atom_site_label_2
_ccdc_geom_bond_type
C10   S1    S    
C27   C29   A    
C17   S4    S    
C20   O9    S    
C22   O18   S    
C28   N1    A    
O20   Zn2   S    
C18   O7    S    
O4    S2    D    
C12   C23   S    
N1    Zn1   S    
H22   O3    S    
C26   H20   S    
H23   O6    S    
C12   O21   A    
C19   O8    S    
O1    Zn1   S    
O22   Zn1   S    
C20   H5    S    
C22   H14   S    
C21   H8    S    
C16   S3    S    
C14   O9    S    
C5    C13   A    
O11   S3    D    
C18   H26   S    
C30   O22   A    
C15   C23   A    
C8    O7    S    
C1    C25   S    
C1    O20   A    
C2    O25   A    
O12   Zn2   S    
C4    C7    A    
C19   H2    S    
O6    S2    S    
C27   H21   S    
H13   O17   S    
O25   Zn1   S    
C24   H18   S    
O26   S1    D    
C3    C8    A    
C27   N1    A    
C6    C11   A    
C5    C7    A    
C6    C8    A    
C10   C13   A    
C30   O24   A    
O15   S4    D    
C9    S2    S    
C26   N2    A    
O17   S4    S    
C21   H9    S    
C9    C11   A    
O3    S1    S    
C18   H25   S    
N2    Zn2   S    
H11   O14   S    
O13   S3    D    
O23   Zn2   S    
C22   H16   S    
C16   C23   A    
O5    S2    D    
C19   H3    S    
C14   C16   A    
C28   O18   S    
O14   S3    S    
C24   H19   S    
C15   C17   A    
C12   O12   A    
C24   H17   S    
C19   H4    S    
O2    S1    D    
C26   C28   A    
O24   Zn2   S    
C17   C25   A    
C1    O1    A    
C2    C3    S    
C21   O10   S    
C3    C10   A    
C7    O8    S    
C20   H7    S    
C11   C13   A    
C21   H10   S    
C15   O10   S    
C14   C25   A    
O21   Zn1   S    
C18   H24   S    
C20   H6    S    
C24   O19   S    
C22   H15   S    
C29   O19   S    
C29   N2    A    
C6    H12   S    
C2    O23   A    
O16   S4    D    
C4    C9    A    
C4    C30   S    
C5    H1    S    
