data_mof_unit_12893.cif
_audit_creation_date              2012-12-10T16:55:44-0500
_audit_creation_method            fapswitch 2.2
_symmetry_space_group_name_H-M    P1
_symmetry_Int_Tables_number       1
_space_group_crystal_system       triclinic
_cell_length_a                    7.785736
_cell_length_b                    8.574548
_cell_length_c                    10.477329
_cell_angle_alpha                 91.022462
_cell_angle_beta                  85.749263
_cell_angle_gamma                 93.722246
_cell_volume                      696.00256268

loop_
_atom_site_label
_atom_site_type_symbol
_atom_type_description
_atom_site_fract_x
_atom_site_fract_y
_atom_site_fract_z
_atom_type_partial_charge
C1    C     C_R   0.545772 0.794672 0.496694 0.960197
C2    C     C_R   0.454228 0.205328 0.503306 0.960198
C3    C     C_R   0.501917 0.500163 0.742447 0.858303
C4    C     C_R   0.498082 0.499837 0.257553 0.858303
C5    C     C_3   0.443393 0.635225 0.962034 -0.180952
C6    C     C_3   0.556607 0.364775 0.037966 -0.180952
C7    C     C_3   0.602507 0.620705 0.039455 -0.179497
C8    C     C_3   0.397493 0.379295 0.960545 -0.179497
C9    C     C_3   0.495619 0.500182 0.122640 0.035972
C10   C     C_3   0.504381 0.499818 0.877360 0.035972
C11   C     C_3   0.336423 0.514705 0.047956 -0.141937
C12   C     C_3   0.663577 0.485295 0.952044 -0.141937
C13   C     C_2   0.569778 0.958246 0.494777 -0.388172
C14   C     C_2   0.430222 0.041754 0.505223 -0.388172
N1    N     N_2   0.950320 0.457950 0.465730 -0.176147
N2    N     N_2   0.049680 0.542050 0.534270 -0.176147
O1    O     O_R   0.389250 0.738570 0.508410 -0.612010
O2    O     O_R   0.610750 0.261430 0.491590 -0.612010
O3    O     O_R   0.678390 0.711620 0.486450 -0.630619
O4    O     O_R   0.321610 0.288380 0.513550 -0.630619
O5    O     O_R   0.355460 0.513510 0.697030 -0.621168
O6    O     O_R   0.644540 0.486490 0.302970 -0.621168
O7    O     O_R   0.644600 0.486560 0.675070 -0.633194
O8    O     O_R   0.355400 0.513440 0.324930 -0.633194
Zn1   Zn    Zn3+2 0.306940 0.517990 0.514670 0.932695
Zn2   Zn    Zn3+2 0.693060 0.482010 0.485330 0.932694
H1    H     H_    0.685232 0.719089 0.076619 0.132467
H2    H     H_    0.314768 0.280911 0.923380 0.132467
H3    H     H_    0.398088 0.745325 0.926095 0.131518
H4    H     H_    0.601912 0.254675 0.073905 0.131518
H5    H     H_    0.203251 0.526606 0.091176 0.142966
H6    H     H_    0.796749 0.473394 0.908824 0.142966
H7    H     H_    0.013402 0.382390 0.403927 0.189287
H8    H     H_    0.986598 0.617610 0.596073 0.189287
H9    H     H_    0.701548 0.009411 0.484786 0.180290
H10   H     H_    0.298452 0.990589 0.515214 0.180290

loop_
_geom_bond_atom_site_label_1
_geom_bond_atom_site_label_2
_ccdc_geom_bond_type
C13   H9    S    
C2    O2    A    
C4    O6    A    
C1    O1    A    
O2    Zn2   S    
O1    Zn1   S    
C6    C9    S    
C11   H5    S    
C5    C10   S    
C3    C10   S    
C13   C14   D    
C12   H6    S    
C6    C12   S    
C9    C11   S    
C10   C12   S    
C8    C11   S    
C4    O8    A    
C6    H4    S    
C5    C11   S    
C5    H3    S    
C14   H10   S    
C7    C12   S    
C2    C14   S    
C3    O5    A    
C1    C13   S    
O4    Zn1   S    
C2    O4    A    
N1    N2    D    
C7    C9    S    
C7    H1    S    
O8    Zn1   S    
C8    H2    S    
C8    C10   S    
O6    Zn2   S    
O7    Zn2   S    
N2    Zn1   S    
C5    C7    S    
O3    Zn2   S    
O5    Zn1   S    
N1    Zn2   S    
C6    C8    S    
N2    H8    S    
C4    C9    S    
C1    O3    A    
C3    O7    A    
N1    H7    S    
