data_mof_unit_33299.cif
_audit_creation_date              2013-03-05T16:02:40-0500
_audit_creation_method            fapswitch 2.2
_symmetry_space_group_name_H-M    P1
_symmetry_Int_Tables_number       1
_space_group_crystal_system       triclinic
_cell_length_a                    6.953887
_cell_length_b                    17.37221
_cell_length_c                    18.706963
_cell_angle_alpha                 106.304701
_cell_angle_beta                  89.90375
_cell_angle_gamma                 90.585895
_cell_volume                      2168.88070206

loop_
_atom_site_label
_atom_site_type_symbol
_atom_site_description
_atom_site_fract_x
_atom_site_fract_y
_atom_site_fract_z
_atom_type_partial_charge
O1    O     O_R   0.494360 0.415680 0.413760 -0.585992
O2    O     O_R   0.818810 0.432910 0.557230 -0.575522
O3    O     O_R   0.994290 0.584320 0.586240 -0.585018
C1    C     C_R   0.649920 0.415990 0.580638 0.954382
O4    O     O_R   0.823740 0.406440 0.412520 -0.587840
O5    O     O_R   0.999250 0.557660 0.440500 -0.573236
C2    C     C_R   0.654513 0.383680 0.384868 0.937728
O6    O     O_R   0.489400 0.442340 0.559500 -0.571544
O7    O     O_3   0.662500 0.549650 0.509350 -0.263999
V1    V     V_3+5 0.935340 0.490790 0.498270 1.153413
O8    O     O_R   0.329270 0.567090 0.442770 -0.574060
C3    C     C_R   0.161043 0.584175 0.419508 0.954682
O9    O     O_R   0.324340 0.593560 0.587480 -0.588948
C4    C     C_R   0.155913 0.616236 0.615206 0.931508
V2    V     V_3+5 0.435970 0.509210 0.501730 1.153322
O10   O     O_3   0.158940 0.450350 0.490650 -0.264046
C5    C     C_R   0.044650 0.594348 0.756972 -0.187211
C6    C     C_R   0.991553 0.581373 0.824491 -0.091261
C7    C     C_R   0.981569 0.645427 0.888443 -0.082768
C8    C     C_R   0.023369 0.722982 0.885247 -0.178145
C9    C     C_R   0.075077 0.738377 0.817190 0.117793
C10   C     C_R   0.087361 0.672532 0.751887 0.123440
C11   C     C_R   0.115071 0.817636 0.813766 -0.294908
C12   C     C_R   0.165470 0.831168 0.744012 -0.038247
C13   C     C_R   0.192422 0.763984 0.680366 0.095750
C14   C     C_R   0.146927 0.685211 0.683630 -0.268239
C15   C     C_R   0.188900 0.909656 0.734703 0.297101
C16   C     C_R   0.262534 0.919633 0.668110 -0.221727
C17   C     C_R   0.300068 0.853658 0.607073 0.157250
C18   C     C_R   0.259941 0.776935 0.613280 -0.248973
H1    H     H_    0.053515 0.542233 0.709137 0.116805
H2    H     H_    0.959494 0.521172 0.827287 0.139626
H3    H     H_    0.941676 0.634988 0.940932 0.135972
H4    H     H_    0.014628 0.770416 0.936855 0.098212
H5    H     H_    0.280133 0.980013 0.663682 0.152060
H6    H     H_    0.282465 0.727298 0.564182 0.122834
C19   C     C_1   0.112111 0.864261 0.132913 -0.319371
C20   C     C_1   0.119632 0.821890 0.176667 0.059232
C21   C     C_1   0.128923 0.771849 0.228719 -0.003369
C22   C     C_1   0.136762 0.729587 0.272563 -0.001228
C23   C     C_1   0.145852 0.679247 0.324349 0.060315
C24   C     C_1   0.153134 0.636456 0.367732 -0.332408
C25   C     C_1   0.641515 0.364081 0.632696 -0.326250
C26   C     C_1   0.637421 0.321518 0.676309 0.064485
C27   C     C_1   0.634097 0.271323 0.728251 0.010011
C28   C     C_1   0.631587 0.229046 0.772124 0.028539
C29   C     C_1   0.628162 0.178881 0.824079 0.149634
C30   C     C_1   0.623881 0.136322 0.867681 -0.147451
H7    H     H_    0.341116 0.151658 0.438864 0.118998
C31   C     C_R   0.807236 0.396084 0.244379 -0.224483
C32   C     C_R   0.882167 0.404427 0.177859 -0.230058
C33   C     C_R   0.871591 0.341019 0.112541 0.413883
C34   C     C_R   0.784258 0.268683 0.115040 -0.286899
C35   C     C_R   0.709815 0.258157 0.182239 0.077076
C36   C     C_R   0.721215 0.323255 0.248241 0.134524
C37   C     C_R   0.621271 0.184700 0.183977 -0.274249
C38   C     C_R   0.544155 0.176555 0.251820 0.111875
C39   C     C_R   0.555448 0.241791 0.317858 0.113373
C40   C     C_R   0.643610 0.315253 0.316084 -0.303487
C41   C     C_R   0.459032 0.103426 0.255775 -0.166931
C42   C     C_R   0.385605 0.095089 0.322562 -0.117091
C43   C     C_R   0.396915 0.158668 0.386964 -0.115806
C44   C     C_R   0.481574 0.231097 0.385062 -0.149144
H8    H     H_    0.816734 0.447885 0.292523 0.141535
H9    H     H_    0.947515 0.461169 0.177552 0.174064
H10   H     H_    0.773711 0.221025 0.063656 0.151707
H11   H     H_    0.449603 0.051574 0.207677 0.115620
H12   H     H_    0.320961 0.038726 0.324448 0.121887
H13   H     H_    0.489883 0.278071 0.437059 0.106534
O11   O     O_R   0.775690 0.057750 0.940570 -0.528483
O12   O     O_R   0.441200 0.093570 0.087490 -0.592778
O13   O     O_R   0.265840 0.942320 0.059480 -0.582304
C45   C     C_R   0.610362 0.116249 0.115241 0.918704
O14   O     O_R   0.446270 0.067110 0.942790 -0.547667
O15   O     O_R   0.270950 0.915660 0.913750 -0.589793
C46   C     C_R   0.615232 0.084283 0.919610 0.993573
O16   O     O_R   0.770580 0.084400 0.086300 -0.596331
O17   O     O_3   0.602640 0.950400 0.990690 -0.277760
V3    V     V_3+5 0.329740 0.009200 0.001730 1.217025
O18   O     O_R   0.940900 0.906360 0.912450 -0.567572
C47   C     C_R   0.109009 0.884897 0.883732 1.018471
O19   O     O_R   0.935830 0.932820 0.057160 -0.582353
C48   C     C_R   0.104060 0.916014 0.080662 0.930169
V4    V     V_3+5 0.829130 0.990680 0.998180 1.214068
O20   O     O_3   0.106100 0.049590 0.009310 -0.241683
C49   C     C_3   0.374245 0.860898 0.532733 -0.404018
C50   C     C_3   0.408904 0.946859 0.527965 -0.260456
C51   C     C_3   0.483510 0.946859 0.451147 -0.911732
H14   H     H_    0.622049 0.914453 0.439339 0.265520
H15   H     H_    0.377084 0.917707 0.407428 0.260000
H16   H     H_    0.507479 0.009593 0.449376 0.249287
H17   H     H_    0.271950 0.980669 0.538242 0.200539
H18   H     H_    0.516853 0.977721 0.570425 0.209042
H19   H     H_    0.511648 0.827549 0.520359 0.196264
H20   H     H_    0.268763 0.830812 0.488856 0.188518
N1    N     N_R   0.948067 0.350144 0.043706 0.238262
O21   O     O_R   0.027727 0.417500 0.041301 -0.398199
O22   O     O_R   0.939780 0.291119 0.982842 -0.404538
N2    N     N_R   0.113128 0.979409 0.787006 0.217615
O23   O     O_R   0.928027 0.984135 0.796903 -0.427964
O24   O     O_R   0.216057 0.044911 0.806651 -0.418689

loop_
_geom_bond_atom_site_label_1
_geom_bond_atom_site_label_2
_geom_bond_distance
_ccdc_geom_bond_type
C50   C51   1.526989 S    
C36   C40   1.420034 A    
C31   H8    1.081315 S    
C23   C24   1.246374 T    
C30   C46   1.502104 S    
C7    C8    1.393001 A    
C12   C15   1.429936 A    
O18   V4    2.005455 S    
O12   V3    1.995862 S    
C27   C28   1.245579 T    
C26   C27   1.476595 S    
C15   N2    1.431421 S    
C17   C18   1.395356 A    
O14   C46   1.311984 A    
C16   C17   1.398505 A    
O13   V3    1.845821 S    
O5    C3    1.312135 A    
C20   C21   1.478077 S    
V2    O10   2.154468 S    
C13   C18   1.414357 A    
C37   C38   1.419612 A    
C6    C7    1.388563 A    
C32   H9    1.082686 S    
C3    C24   1.503713 S    
C49   H19   1.112413 S    
C28   C29   1.476388 S    
O8    V2    1.849005 S    
C29   C30   1.245362 T    
C41   H11   1.081295 S    
N1    O22   1.301766 A    
C11   C12   1.431731 A    
O1    V2    2.005734 S    
O11   V4    1.836411 S    
O7    V1    2.146536 S    
C1    O6    1.313576 A    
C8    H4    1.081165 S    
C51   H14   1.111022 S    
O1    C2    1.297449 A    
C9    C10   1.423079 A    
C37   C45   1.487677 S    
C2    C40   1.488011 S    
C5    C6    1.392509 A    
C35   C37   1.419785 A    
C32   C33   1.398108 A    
C44   H13   1.081191 S    
C12   C13   1.427716 A    
C16   H5    1.080841 S    
C7    H3    1.082607 S    
C21   C22   1.246504 T    
O4    C2    1.298623 A    
C49   C50   1.537332 S    
O15   C47   1.300153 A    
C38   C41   1.416709 A    
O16   V4    2.009550 S    
C39   C40   1.418915 A    
C34   C35   1.416562 A    
C4    C14   1.489362 S    
C41   C42   1.393056 A    
O2    C1    1.311851 A    
C25   C26   1.245553 T    
C19   C20   1.246479 T    
N2    O23   1.300247 A    
C51   H16   1.110471 S    
N1    O21   1.301654 A    
C43   C44   1.393172 A    
C31   C32   1.392323 A    
V4    O20   2.154444 S    
C34   H10   1.080268 S    
C17   C49   1.519989 S    
O3    C4    1.298005 A    
C22   C23   1.477946 S    
N2    O24   1.300626 A    
C51   H15   1.111247 S    
O6    V2    1.835906 S    
O19   V4    1.849037 S    
O14   V3    1.867507 S    
C9    C11   1.420903 A    
O11   C46   1.313281 A    
C5    H1    1.081792 S    
C6    H2    1.082642 S    
O2    V1    1.867419 S    
V3    O20   1.701967 S    
C50   H17   1.111919 S    
C33   C34   1.402647 A    
O12   C45   1.298541 A    
C39   C44   1.416313 A    
C35   C36   1.422718 A    
H7    C43   1.082672 S    
C11   C47   1.490728 S    
O17   V3    2.146459 S    
C5    C10   1.416419 A    
O18   C47   1.299445 A    
O5    V1    1.845986 S    
O8    C3    1.314271 A    
C1    C25   1.502259 S    
C31   C36   1.414032 A    
C18   H6    1.081340 S    
O9    V2    2.005559 S    
C13   C14   1.419331 A    
O4    V1    1.995944 S    
O3    V1    2.000887 S    
V1    O10   1.702032 S    
C42   H12   1.082772 S    
C38   C39   1.424454 A    
C50   H18   1.111988 S    
C33   N1    1.441070 S    
O7    V2    1.707987 S    
C42   C43   1.388868 A    
O13   C48   1.311925 A    
C49   H20   1.112755 S    
O17   V4    1.706757 S    
C8    C9    1.417519 A    
O19   C48   1.314484 A    
C10   C14   1.415897 A    
C15   C16   1.400493 A    
C45   O16   1.297278 A    
C19   C48   1.503849 S    
O9    C4    1.299477 A    
O15   V3    2.000875 S    
