data_mof_unit_16373.cif
_audit_creation_date              2012-12-11T14:38:25-0500
_audit_creation_method            fapswitch 2.2
_symmetry_space_group_name_H-M    P1
_symmetry_Int_Tables_number       1
_space_group_crystal_system       triclinic
_cell_length_a                    19.485595
_cell_length_b                    11.136062
_cell_length_c                    19.632822
_cell_angle_alpha                 89.984255
_cell_angle_beta                  96.627741
_cell_angle_gamma                 89.933295
_cell_volume                      4231.7068839

loop_
_atom_site_label
_atom_site_type_symbol
_atom_type_description
_atom_site_fract_x
_atom_site_fract_y
_atom_site_fract_z
_atom_type_partial_charge
C1    C     C_R   0.724417 0.955024 0.360818 0.545752
C2    C     C_3   0.175724 0.483787 0.469198 -0.209010
C3    C     C_3   0.324262 0.983546 0.530743 -0.208984
C4    C     C_3   0.675724 0.983786 0.469198 -0.209095
C5    C     C_3   0.763034 0.293583 0.553934 -0.263112
C6    C     C_3   0.237016 0.293576 0.446127 -0.263206
C7    C     C_3   0.263034 0.793583 0.553934 -0.263136
C8    C     C_3   0.737016 0.793576 0.446127 -0.263153
C9    C     C_3   0.762890 0.428311 0.566402 0.065709
C10   C     C_3   0.237117 0.428299 0.433589 0.065356
C11   C     C_3   0.262890 0.928311 0.566401 0.065726
C12   C     C_R   0.275589 0.955025 0.639168 0.545282
C13   C     C_3   0.737116 0.928299 0.433589 0.065486
C14   C     C_3   0.747148 0.393138 0.435001 0.053364
C15   C     C_3   0.252826 0.393143 0.564999 0.053621
C16   C     C_3   0.247149 0.893139 0.435000 0.053186
C17   C     C_3   0.752826 0.893143 0.564999 0.053638
C18   C     C_3   0.808018 0.479305 0.452378 -0.257731
C19   C     C_3   0.191948 0.479539 0.547568 -0.257960
C20   C     C_3   0.308018 0.979306 0.452378 -0.257918
C21   C     C_3   0.691948 0.979539 0.547568 -0.257933
C22   C     C_3   0.764824 0.275917 0.476987 -0.221608
C23   C     C_R   0.224417 0.455024 0.360818 0.546067
C24   C     C_3   0.235169 0.275971 0.523069 -0.221459
C25   C     C_3   0.264824 0.775917 0.476986 -0.221554
C26   C     C_3   0.735169 0.775971 0.523069 -0.221569
C27   C     C_3   0.427708 0.234791 0.969074 -0.221489
C28   C     C_3   0.444988 0.236268 0.046997 -0.244260
C29   C     C_3   0.033683 0.795988 0.952977 -0.232037
C30   C     C_3   0.051061 0.800282 0.030188 -0.235120
C31   C     C_3   0.491871 0.039723 0.960767 -0.234567
C32   C     C_3   0.572286 0.234393 0.030897 -0.221656
C33   C     C_3   0.936050 0.653977 0.972969 -0.231785
C34   C     C_R   0.775589 0.455025 0.639168 0.545332
C35   C     C_3   0.078756 0.578851 0.026368 -0.239946
C36   C     C_3   0.555024 0.235748 0.952974 -0.244321
C37   C     C_3   0.507935 0.039773 0.039368 -0.234443
C38   C     C_3   0.051853 0.573056 0.948811 -0.237748
C39   C     C_3   0.960355 0.647926 0.050092 -0.220628
C40   C     C_R   0.536037 0.180367 0.338523 0.537043
C41   C     C_R   0.463964 0.180324 0.661477 0.536968
C42   C     C_R   0.036039 0.680367 0.338523 0.544113
C43   C     C_R   0.963966 0.680324 0.661478 0.534741
C44   C     C_3   0.485739 0.171291 0.933878 0.054119
C45   C     C_3   0.680483 0.449429 0.457284 -0.233318
C46   C     C_3   0.514211 0.171369 0.066145 0.054125
C47   C     C_3   0.998233 0.674398 0.931234 0.055373
C48   C     C_3   0.038426 0.676270 0.062627 0.045504
C49   C     C_1   0.757548 0.413920 0.900728 -0.013165
C50   C     C_1   0.242457 0.414001 0.099277 -0.016721
C51   C     C_1   0.258416 0.915144 0.901107 -0.015176
C52   C     C_1   0.742824 0.913052 0.099441 -0.011427
C53   C     C_1   0.736409 0.365467 0.026979 -0.051693
C54   C     C_1   0.263429 0.365775 0.972965 -0.053953
C55   C     C_1   0.238949 0.867913 0.027773 -0.056381
C56   C     C_3   0.319492 0.449174 0.542699 -0.233188
C57   C     C_1   0.764708 0.862820 0.973472 -0.051758
C58   C     C_1   0.745928 0.389472 0.958097 -0.046848
C59   C     C_1   0.253994 0.389663 0.041872 -0.049419
C60   C     C_1   0.247743 0.891428 0.958780 -0.050904
C61   C     C_1   0.754827 0.887660 0.042263 -0.045043
C62   C     C_1   0.730016 0.344084 0.086122 -0.020740
C63   C     C_1   0.269835 0.344390 0.913829 -0.023208
C64   C     C_1   0.232062 0.846377 0.086738 -0.024542
C65   C     C_1   0.771001 0.841580 0.914243 -0.018108
C66   C     C_R   0.738874 0.360457 0.362078 0.549848
C67   C     C_3   0.180483 0.949430 0.457283 -0.233281
C68   C     C_R   0.261108 0.360439 0.637929 0.549055
C69   C     C_R   0.238875 0.860458 0.362077 0.550626
C70   C     C_R   0.761108 0.860439 0.637929 0.549171
C71   C     C_R   0.722812 0.952620 0.163903 0.538107
C72   C     C_R   0.277293 0.952706 0.836068 0.537721
C73   C     C_R   0.222816 0.452610 0.163962 0.531515
C74   C     C_R   0.777194 0.452586 0.836055 0.538251
C75   C     C_R   0.534093 0.178953 0.140139 0.534070
C76   C     C_R   0.465888 0.178885 0.859874 0.534067
C77   C     C_R   0.061114 0.682365 0.136940 0.529874
C78   C     C_3   0.819492 0.949173 0.542699 -0.233270
C79   C     C_R   0.970078 0.679233 0.858184 0.529698
C80   C     C_R   0.723027 0.312760 0.155892 0.552141
C81   C     C_R   0.276926 0.312936 0.844103 0.551763
C82   C     C_R   0.223556 0.813842 0.155864 0.537308
C83   C     C_R   0.777316 0.811785 0.844040 0.556862
C84   C     C_1   0.485430 0.172839 0.594365 -0.029947
C85   C     C_1   0.514559 0.172898 0.405630 -0.029838
C86   C     C_1   0.985437 0.672839 0.594368 -0.029660
C87   C     C_1   0.014566 0.672898 0.405633 -0.031083
C88   C     C_1   0.504299 0.169691 0.464877 -0.069368
C89   C     C_3   0.824262 0.483546 0.530743 -0.209138
C90   C     C_1   0.495683 0.169664 0.535116 -0.069408
C91   C     C_1   0.004309 0.669692 0.464880 -0.069582
C92   C     C_1   0.995692 0.669664 0.535120 -0.069201
C93   C     C_3   0.690433 0.473013 0.534540 -0.237558
C94   C     C_3   0.309553 0.472781 0.465437 -0.237642
C95   C     C_3   0.190433 0.973014 0.534540 -0.237500
C96   C     C_3   0.809552 0.972781 0.465438 -0.237640
Cr1   Cr    Cr6+3 0.765780 0.160710 0.267420 1.014072
Cr2   Cr    Cr6+3 0.383970 0.323720 0.751490 1.013387
Cr3   Cr    Cr6+3 0.116030 0.823720 0.248510 1.012288
Cr4   Cr    Cr6+3 0.883970 0.823720 0.751490 1.013089
Cr5   Cr    Cr6+3 0.234220 0.160710 0.732580 1.010153
Cr6   Cr    Cr6+3 0.265780 0.660710 0.267420 1.008250
Cr7   Cr    Cr6+3 0.734220 0.660710 0.732580 1.011575
Cr8   Cr    Cr6+3 0.612200 0.009560 0.248850 1.011122
Cr9   Cr    Cr6+3 0.387800 0.009560 0.751150 1.010984
Cr10  Cr    Cr6+3 0.112200 0.509560 0.248850 1.012416
Cr11  Cr    Cr6+3 0.887800 0.509560 0.751150 1.011953
Cr12  Cr    Cr6+3 0.616030 0.323720 0.248510 1.014031
H1    H     H_    0.682375 0.567570 0.545013 0.131825
H2    H     H_    0.128697 0.428107 0.455240 0.139809
H3    H     H_    0.371298 0.927692 0.544719 0.139758
H4    H     H_    0.628696 0.928107 0.455240 0.139854
H5    H     H_    0.854643 0.448636 0.429368 0.131518
H6    H     H_    0.145322 0.449067 0.570587 0.130781
H7    H     H_    0.354644 0.948635 0.429368 0.131072
H8    H     H_    0.645322 0.949066 0.570587 0.131010
H9    H     H_    0.377984 0.186527 0.955729 0.106843
H10   H     H_    0.447983 0.330970 0.065283 0.143664
H11   H     H_    0.999781 0.874553 0.938325 0.154639
H12   H     H_    0.317570 0.567315 0.454929 0.131943
H13   H     H_    0.105066 0.828584 0.042679 0.119993
H14   H     H_    0.420403 0.329216 0.951023 0.147811
H15   H     H_    0.403226 0.191135 0.071597 0.121204
H16   H     H_    0.081494 0.807039 0.927529 0.127930
H17   H     H_    0.018288 0.870557 0.050774 0.153499
H18   H     H_    0.442669 0.990272 0.946528 0.150205
H19   H     H_    0.579618 0.328820 0.048845 0.147448
H20   H     H_    0.898378 0.728781 0.963129 0.118608
H21   H     H_    0.134848 0.600699 0.032724 0.107284
H22   H     H_    0.466292 0.992040 0.062779 0.130654
H23   H     H_    0.182376 0.067571 0.545013 0.131831
H24   H     H_    0.552110 0.330436 0.934585 0.143431
H25   H     H_    0.930263 0.713172 0.077773 0.140921
H26   H     H_    0.095764 0.583029 0.917720 0.123237
H27   H     H_    0.596761 0.190255 0.928429 0.120437
H28   H     H_    0.557069 0.989942 0.053649 0.149838
H29   H     H_    0.027725 0.483986 0.936566 0.140651
H30   H     H_    0.950136 0.556692 0.069765 0.141032
H31   H     H_    0.621997 0.185912 0.044313 0.105907
H32   H     H_    0.533454 0.991576 0.937403 0.130121
H33   H     H_    0.072663 0.489240 0.049970 0.149549
H34   H     H_    0.817570 0.067315 0.454930 0.131895
H35   H     H_    0.908566 0.569275 0.956745 0.132332
H36   H     H_    0.649091 0.425881 0.558825 0.117383
H37   H     H_    0.350919 0.425525 0.441178 0.117488
H38   H     H_    0.149091 0.925882 0.558824 0.117208
H39   H     H_    0.850918 0.925524 0.441178 0.117833
H40   H     H_    0.667758 0.534699 0.429136 0.117991
H41   H     H_    0.332205 0.534403 0.570812 0.117950
H42   H     H_    0.167759 0.034701 0.429135 0.118094
H43   H     H_    0.832205 0.034403 0.570812 0.117935
H44   H     H_    0.341695 0.072994 0.549168 0.108114
H45   H     H_    0.818694 0.250799 0.469830 0.132360
H46   H     H_    0.658302 0.073296 0.450712 0.108017
H47   H     H_    0.841695 0.572993 0.549168 0.108271
H48   H     H_    0.158303 0.573296 0.450712 0.107671
H49   H     H_    0.294475 0.068230 0.430984 0.111383
H50   H     H_    0.705475 0.068433 0.568903 0.111298
H51   H     H_    0.794474 0.568230 0.430985 0.111604
H52   H     H_    0.205475 0.568434 0.568903 0.111153
H53   H     H_    0.808293 0.248379 0.582962 0.128531
H54   H     H_    0.191800 0.248479 0.417092 0.128831
H55   H     H_    0.308292 0.748379 0.582962 0.128551
H56   H     H_    0.181287 0.251104 0.530201 0.132393
H57   H     H_    0.691800 0.748479 0.417092 0.128753
H58   H     H_    0.715424 0.255085 0.570738 0.108814
H59   H     H_    0.284670 0.254930 0.429401 0.108954
H60   H     H_    0.215424 0.755086 0.570737 0.108623
H61   H     H_    0.784669 0.754930 0.429401 0.109281
H62   H     H_    0.729947 0.204492 0.457912 0.123540
H63   H     H_    0.270018 0.204396 0.542218 0.123742
H64   H     H_    0.229947 0.704493 0.457911 0.123630
H65   H     H_    0.770017 0.704395 0.542218 0.123728
H66   H     H_    0.636145 0.386951 0.445268 0.145780
H67   H     H_    0.318694 0.750799 0.469830 0.132346
H68   H     H_    0.363836 0.386525 0.554742 0.145871
H69   H     H_    0.136145 0.886953 0.445267 0.145520
H70   H     H_    0.863836 0.886524 0.554742 0.145991
H71   H     H_    0.681286 0.751103 0.530202 0.132389
H72   H     H_    0.871298 0.427692 0.544720 0.139753
O1    O     O_R   0.783100 0.287550 0.345460 -0.527635
O2    O     O_R   0.454350 0.284910 0.836260 -0.529719
O3    O     O_R   0.045650 0.784910 0.163740 -0.522887
O4    O     O_R   0.954350 0.784910 0.836260 -0.531703
O5    O     O_R   0.677950 0.374280 0.185410 -0.490661
O6    O     O_R   0.322050 0.374280 0.814590 -0.490939
O7    O     O_R   0.177950 0.874280 0.185410 -0.498971
O8    O     O_R   0.822050 0.874280 0.814590 -0.487687
O9    O     O_3   0.664670 0.164660 0.254930 -0.277686
O10   O     O_3   0.335330 0.164660 0.745070 -0.276557
O11   O     O_3   0.164670 0.664660 0.254930 -0.291062
O12   O     O_R   0.216900 0.287550 0.654540 -0.528133
O13   O     O_3   0.835330 0.664660 0.745070 -0.276011
O14   O     O_R   0.760020 0.037400 0.337700 -0.514146
O15   O     O_R   0.239980 0.037400 0.662300 -0.514390
O16   O     O_R   0.260020 0.537400 0.337700 -0.513098
O17   O     O_R   0.739980 0.537400 0.662300 -0.514463
O18   O     O_R   0.666600 0.921990 0.332020 -0.522929
O19   O     O_R   0.333400 0.921990 0.667980 -0.523177
O20   O     O_R   0.166600 0.421990 0.332020 -0.522516
O21   O     O_R   0.833400 0.421990 0.667980 -0.523418
O22   O     O_R   0.557260 0.082670 0.312540 -0.496165
O23   O     O_R   0.283100 0.787550 0.345460 -0.526930
O24   O     O_R   0.442740 0.082670 0.687460 -0.496288
O25   O     O_R   0.057260 0.582670 0.312540 -0.492251
O26   O     O_R   0.942740 0.582670 0.687460 -0.497646
O27   O     O_R   0.548410 0.285740 0.316480 -0.512276
O28   O     O_R   0.451590 0.285740 0.683520 -0.512224
O29   O     O_R   0.048410 0.785740 0.316480 -0.508872
O30   O     O_R   0.951590 0.785740 0.683520 -0.513540
O31   O     O_R   0.680500 0.375040 0.327000 -0.500534
O32   O     O_R   0.319500 0.375040 0.673000 -0.500504
O33   O     O_R   0.180500 0.875040 0.327000 -0.500081
O34   O     O_R   0.716900 0.787550 0.654540 -0.528106
O35   O     O_R   0.819500 0.875040 0.673000 -0.500755
O36   O     O_R   0.780350 0.286720 0.192720 -0.498136
O37   O     O_R   0.219650 0.286720 0.807280 -0.501178
O38   O     O_R   0.280350 0.786720 0.192720 -0.496512
O39   O     O_R   0.719650 0.786720 0.807280 -0.501817
O40   O     O_R   0.757470 0.036630 0.196110 -0.508587
O41   O     O_R   0.242530 0.036630 0.803890 -0.509918
O42   O     O_R   0.257470 0.536630 0.196110 -0.510023
O43   O     O_R   0.742530 0.536630 0.803890 -0.510157
O44   O     O_R   0.663840 0.921160 0.179280 -0.510367
O45   O     O_R   0.554710 0.081900 0.170950 -0.508452
O46   O     O_R   0.336160 0.921160 0.820720 -0.510149
O47   O     O_R   0.163840 0.421160 0.179280 -0.514351
O48   O     O_R   0.836160 0.421160 0.820720 -0.506567
O49   O     O_R   0.445290 0.081900 0.829050 -0.508494
O50   O     O_R   0.054710 0.581900 0.170950 -0.500379
O51   O     O_R   0.945290 0.581900 0.829050 -0.505219
O52   O     O_R   0.545650 0.284910 0.163740 -0.529800

loop_
_geom_bond_atom_site_label_1
_geom_bond_atom_site_label_2
_ccdc_geom_bond_type
Cr1   O14   S    
C4    H46   S    
C7    H60   S    
Cr4   O35   S    
C8    C13   S    
C53   C58   S    
C87   C91   T    
C43   O30   A    
C45   H40   S    
C8    C26   S    
C21   H50   S    
C14   C18   S    
C1    O18   A    
C47   C79   S    
Cr2   O10   S    
Cr5   O12   S    
C45   C93   S    
Cr10  O25   S    
Cr3   O7    S    
C28   H15   S    
Cr8   O45   S    
C80   O36   A    
C26   H71   S    
C33   H35   S    
C56   C94   S    
C29   H11   S    
C28   C46   S    
C3    H44   S    
C33   C39   S    
C73   O42   A    
C56   H68   S    
C17   C26   S    
C32   C36   S    
C32   H19   S    
C30   C48   S    
Cr4   O8    S    
Cr11  O21   S    
Cr11  O51   S    
C52   C61   T    
C21   H8    S    
C39   H25   S    
C65   C83   S    
C54   C63   T    
C10   C94   S    
C34   O21   A    
Cr5   O41   S    
C29   H16   S    
C79   O4    A    
C42   O25   A    
Cr7   O17   S    
C89   H72   S    
C4    C13   S    
C44   C76   S    
C24   H63   S    
Cr11  O26   S    
C74   O48   A    
C18   H51   S    
Cr7   O43   S    
C94   H12   S    
C27   C44   S    
C38   H29   S    
C86   C92   T    
C5    C22   S    
C6    H54   S    
C78   C96   S    
Cr1   O36   S    
C23   O16   A    
C64   C82   S    
Cr4   O4    S    
C80   O5    A    
C31   H32   S    
C35   H21   S    
Cr3   O3    S    
C94   H37   S    
Cr1   O9    S    
C4    H4    S    
C30   H17   S    
C6    C24   S    
C17   C70   S    
C49   C74   S    
C72   O46   A    
C55   C60   S    
Cr11  O48   S    
C43   O26   A    
C67   C95   S    
C18   C89   S    
Cr2   O28   S    
C24   H56   S    
C95   H38   S    
C84   C90   T    
Cr10  O11   S    
Cr12  O27   S    
C76   O2    A    
C35   C48   S    
C18   H5    S    
C46   C75   S    
Cr3   O29   S    
C27   H14   S    
C78   H43   S    
C7    C11   S    
C14   C45   S    
C54   C59   S    
C27   H9    S    
C14   C66   S    
C37   H28   S    
Cr9   O49   S    
C31   C44   S    
C13   C96   S    
C70   O34   A    
Cr12  O5    S    
C75   O45   A    
C35   C38   S    
C69   O33   A    
C32   H31   S    
Cr5   O10   S    
C67   H69   S    
C50   C73   S    
C9    C89   S    
C91   C92   S    
C73   O47   A    
Cr6   O38   S    
Cr9   O24   S    
Cr3   O33   S    
C19   H6    S    
C5    H58   S    
C41   C84   S    
Cr2   O32   S    
C74   O43   A    
C95   H23   S    
C33   H20   S    
C17   C21   S    
C49   C58   T    
C31   C37   S    
Cr10  O50   S    
C5    H53   S    
C40   C85   S    
Cr2   O2    S    
C15   C19   S    
Cr6   O23   S    
C51   C60   T    
C5    C9    S    
C29   C30   S    
C29   C47   S    
C83   O39   A    
C53   C62   T    
C25   H67   S    
C82   O38   A    
C30   H13   S    
C16   C20   S    
C81   O37   A    
C55   C64   T    
C48   C77   S    
Cr6   O11   S    
C77   O50   A    
Cr1   O40   S    
C3    C20   S    
C16   C67   S    
Cr9   O46   S    
C41   O24   A    
Cr1   O1    S    
C93   H36   S    
Cr7   O34   S    
C79   O51   A    
C38   C47   S    
C22   H62   S    
C42   O29   A    
C35   H33   S    
C70   O35   A    
C25   H64   S    
C15   C24   S    
C37   H22   S    
C88   C90   S    
C62   C80   S    
C20   H49   S    
C9    C34   S    
C33   C47   S    
C12   O15   A    
C3    H3    S    
Cr12  O9    S    
C36   C44   S    
C1    C13   S    
C51   C72   S    
C50   C59   T    
C2    C10   S    
C36   H27   S    
C9    C93   S    
C81   O6    A    
Cr11  O13   S    
Cr12  O31   S    
C8    H61   S    
Cr6   O42   S    
Cr10  O20   S    
Cr12  O52   S    
C85   C88   T    
C11   C95   S    
C16   C25   S    
C56   H41   S    
C96   H39   S    
C40   O27   A    
C6    H59   S    
C2    H2    S    
C2    H48   S    
C71   O44   A    
C63   C81   S    
C2    C19   S    
C78   H70   S    
C43   C86   S    
C32   C46   S    
Cr9   O10   S    
C66   O1    A    
C16   C69   S    
C40   O22   A    
Cr6   O16   S    
C6    C10   S    
C20   H7    S    
C11   C12   S    
C57   C61   S    
Cr8   O22   S    
C10   C23   S    
Cr7   O13   S    
C15   C68   S    
C7    C25   S    
C82   O7    A    
C15   C56   S    
Cr4   O13   S    
C41   O28   A    
C36   H24   S    
C1    O14   A    
C66   O31   A    
Cr2   O6    S    
C52   C71   S    
C19   H52   S    
C45   H66   S    
Cr3   O11   S    
C4    C21   S    
C34   O17   A    
C14   C22   S    
C7    H55   S    
C72   O41   A    
C23   O20   A    
Cr4   O30   S    
C17   C78   S    
C77   O3    A    
C12   O19   A    
C38   H26   S    
C75   O52   A    
C83   O8    A    
Cr8   O18   S    
C39   H30   S    
C3    C11   S    
C8    H57   S    
C71   O40   A    
C96   H34   S    
Cr5   O37   S    
Cr9   O19   S    
C69   O23   A    
Cr7   O39   S    
C27   C28   S    
C89   H47   S    
C68   O12   A    
Cr10  O47   S    
C67   H42   S    
C28   H10   S    
C42   C87   S    
C76   O49   A    
C31   H18   S    
C37   C46   S    
C26   H65   S    
Cr8   O9    S    
Cr8   O44   S    
Cr5   O15   S    
C93   H1    S    
C39   C48   S    
C57   C65   T    
C22   H45   S    
C68   O32   A    
