data_mof_unit_65886.cif
_audit_creation_date              2013-03-05T16:44:16-0500
_audit_creation_method            fapswitch 2.2
_symmetry_space_group_name_H-M    P1
_symmetry_Int_Tables_number       1
_space_group_crystal_system       triclinic
_cell_length_a                    28.082931
_cell_length_b                    25.95937
_cell_length_c                    15.140977
_cell_angle_alpha                 89.908935
_cell_angle_beta                  98.647887
_cell_angle_gamma                 89.841337
_cell_volume                      10912.4475953

loop_
_atom_site_label
_atom_site_type_symbol
_atom_site_description
_atom_site_fract_x
_atom_site_fract_y
_atom_site_fract_z
_atom_type_partial_charge
Zn1   Zn    Zn3+2 0.503210 0.939150 0.575020 1.035075
Zn2   Zn    Zn3+2 0.503210 0.060850 0.575020 1.006153
Zn3   Zn    Zn3+2 0.003210 0.439150 0.575020 1.035570
Zn4   Zn    Zn3+2 0.003210 0.560850 0.575020 1.007215
Zn5   Zn    Zn3+2 0.440370 0.000000 0.419230 0.995981
Zn6   Zn    Zn3+2 0.940370 0.500000 0.419230 0.995573
Zn7   Zn    Zn3+2 0.553220 0.000000 0.430750 1.055067
Zn8   Zn    Zn3+2 0.053220 0.500000 0.430750 1.054926
O1    O     O_3   0.500000 1.000000 0.500000 -0.510956
O2    O     O_3   0.000000 0.500000 0.500000 -0.511013
O3    O     O_R   0.446670 0.102520 0.546820 -0.630486
O4    O     O_R   0.446670 0.897480 0.546820 -0.602522
O5    O     O_R   0.946670 0.602520 0.546820 -0.629423
O6    O     O_R   0.946670 0.397480 0.546820 -0.602007
O7    O     O_R   0.557820 0.897490 0.558190 -0.629008
O8    O     O_R   0.557820 0.102510 0.558190 -0.626066
O9    O     O_R   0.057820 0.397490 0.558190 -0.628752
O10   O     O_R   0.057820 0.602510 0.558190 -0.625777
O11   O     O_R   0.402690 0.940060 0.437800 -0.628518
O12   O     O_R   0.402690 0.059940 0.437800 -0.626316
O13   O     O_R   0.902690 0.440060 0.437800 -0.629118
O14   O     O_R   0.902690 0.559940 0.437800 -0.626922
O15   O     O_R   0.592810 0.059930 0.457190 -0.605083
O16   O     O_R   0.592810 0.940070 0.457190 -0.602250
O17   O     O_R   0.092810 0.559930 0.457190 -0.605124
O18   O     O_R   0.092810 0.440070 0.457190 -0.602295
O19   O     O_R   0.451940 0.000000 0.295720 -0.653957
O20   O     O_R   0.951940 0.500000 0.295720 -0.654073
O21   O     O_R   0.508560 0.042600 0.700250 -0.636452
O22   O     O_R   0.508560 0.957400 0.700250 -0.626938
O23   O     O_R   0.008560 0.542600 0.700250 -0.636370
O24   O     O_R   0.008560 0.457400 0.700250 -0.626765
O25   O     O_R   0.530930 1.000000 0.303780 -0.599677
O26   O     O_R   0.030930 0.500000 0.303780 -0.599662
C1    C     C_R   0.408395 0.098494 0.490022 0.859285
C2    C     C_R   0.408119 0.901756 0.490747 0.878706
C3    C     C_R   0.908412 0.598480 0.490037 0.859820
C4    C     C_R   0.908120 0.401753 0.490753 0.878774
C5    C     C_R   0.591155 0.901358 0.509450 0.890003
C6    C     C_R   0.591368 0.098517 0.509273 0.884873
C7    C     C_R   0.091138 0.401326 0.509409 0.889415
C8    C     C_R   0.091365 0.598517 0.509268 0.884958
C9    C     C_R   0.489060 0.000439 0.257088 0.860526
C10   C     C_R   0.989058 0.500441 0.257087 0.860468
C11   C     C_R   0.510862 0.999993 0.742531 0.857024
C12   C     C_R   0.010855 0.499993 0.742527 0.857286
C13   C     C_R   0.483666 0.002668 0.159166 -0.122932
C14   C     C_R   0.983659 0.502664 0.159162 -0.122829
C15   C     C_R   0.515991 0.999687 0.840235 -0.055695
C16   C     C_R   0.015972 0.499688 0.840225 -0.055733
C17   C     C_R   0.560426 0.975938 0.984691 0.219220
C18   C     C_R   0.060429 0.475996 0.984690 0.219344
C19   C     C_R   0.556090 0.975211 0.890951 0.062387
C20   C     C_R   0.056096 0.475262 0.890953 0.062539
C21   C     C_R   0.481539 0.025240 0.883248 0.088139
C22   C     C_R   0.981485 0.525194 0.883217 0.087758
C23   C     C_R   0.479788 0.013916 0.973890 0.013277
C24   C     C_R   0.979752 0.513884 0.973872 0.013260
C25   C     C_R   0.519853 0.988928 0.025241 -0.060366
C26   C     C_R   0.019844 0.488945 0.025232 -0.060265
C27   C     C_R   0.517908 0.977575 0.115584 0.123372
C28   C     C_R   0.017914 0.477595 0.115581 0.123328
C29   C     C_R   0.444195 0.028437 0.108372 0.076199
C30   C     C_R   0.944165 0.528394 0.108361 0.076239
C31   C     C_R   0.439310 0.026695 0.014998 0.175959
C32   C     C_R   0.939269 0.526628 0.014987 0.175977
C33   C     C_R   0.626288 0.859544 0.511123 -0.183605
C34   C     C_R   0.629747 0.137130 0.512857 -0.195424
C35   C     C_R   0.126231 0.359443 0.511062 -0.184359
C36   C     C_R   0.129714 0.637155 0.512778 -0.195110
C37   C     C_R   0.675006 0.868263 0.545454 0.070598
C38   C     C_R   0.642193 0.155811 0.431867 0.084894
C39   C     C_R   0.175100 0.368288 0.544049 0.071341
C40   C     C_R   0.142030 0.655924 0.431749 0.084962
C41   C     C_R   0.707978 0.827085 0.550949 0.132221
C42   C     C_R   0.684678 0.184215 0.432472 0.140941
C43   C     C_R   0.208071 0.327095 0.549445 0.132721
C44   C     C_R   0.184495 0.684350 0.432217 0.141061
C45   C     C_R   0.692220 0.777658 0.521465 0.136942
C46   C     C_R   0.711222 0.200291 0.514426 0.131494
C47   C     C_R   0.192169 0.277524 0.520781 0.138202
C48   C     C_R   0.211166 0.700327 0.514123 0.131434
C49   C     C_R   0.643259 0.768833 0.489329 0.127230
C50   C     C_R   0.699139 0.181114 0.595198 0.116187
C51   C     C_R   0.142976 0.268491 0.491140 0.125038
C52   C     C_R   0.199200 0.681065 0.594931 0.116328
C53   C     C_R   0.610294 0.810017 0.482787 0.091011
C54   C     C_R   0.658668 0.149059 0.594739 0.091919
C55   C     C_R   0.110034 0.309689 0.484538 0.092046
C56   C     C_R   0.158738 0.649011 0.594581 0.091794
C57   C     C_R   0.283898 0.151755 0.489780 0.071040
C58   C     C_R   0.303872 0.828224 0.560322 0.073338
C59   C     C_R   0.784159 0.650909 0.496004 0.073222
C60   C     C_R   0.803938 0.328186 0.560499 0.073009
C61   C     C_R   0.324222 0.118896 0.504425 0.094998
C62   C     C_R   0.347066 0.856441 0.565785 0.106863
C63   C     C_R   0.824945 0.618590 0.509740 0.093202
C64   C     C_R   0.847135 0.356390 0.565897 0.107083
C65   C     C_R   0.290049 0.204438 0.468710 0.238779
C66   C     C_R   0.282501 0.807556 0.477206 0.243769
C67   C     C_R   0.789177 0.703064 0.470164 0.238929
C68   C     C_R   0.782523 0.307530 0.477405 0.243653
N1    N     N_2   0.725984 0.736781 0.526079 -0.122724
N2    N     N_2   0.751376 0.233887 0.517516 -0.108489
N3    N     N_2   0.225866 0.236610 0.523726 -0.121044
N4    N     N_2   0.251336 0.733896 0.517145 -0.108701
N5    N     N_2   0.251724 0.241048 0.463941 -0.140854
N6    N     N_2   0.242249 0.773830 0.471396 -0.149171
N7    N     N_2   0.750375 0.739151 0.463814 -0.139448
N8    N     N_2   0.742290 0.273780 0.471652 -0.149401
C69   C     C_R   0.369272 0.136283 0.486778 -0.124098
C70   C     C_R   0.368345 0.864780 0.488250 -0.131385
C71   C     C_R   0.869102 0.635928 0.487632 -0.121856
C72   C     C_R   0.868349 0.364775 0.488297 -0.131634
C73   C     C_R   0.375042 0.187503 0.458224 0.106117
C74   C     C_R   0.346084 0.845601 0.404758 0.108740
C75   C     C_R   0.873771 0.686627 0.455856 0.105549
C76   C     C_R   0.846038 0.345614 0.404825 0.108664
C77   C     C_R   0.335301 0.221813 0.450328 0.129944
C78   C     C_R   0.301153 0.820612 0.398666 0.121517
C79   C     C_R   0.833704 0.720441 0.448220 0.130101
C80   C     C_R   0.801119 0.320608 0.398818 0.121411
I1    I     I_    0.551573 0.909156 0.177069 -0.217738
I2    I     I_    0.051624 0.409197 0.177068 -0.219050
I3    I     I_    0.536224 0.798577 0.426557 -0.225447
I4    I     I_    0.643464 0.115299 0.716845 -0.213984
I5    I     I_    0.035688 0.297873 0.430486 -0.224550
I6    I     I_    0.143685 0.615144 0.716701 -0.214173
C81   C     C_3   0.422775 0.206082 0.434350 -0.821918
H1    H     H_    0.417742 0.219583 0.363981 0.240309
H2    H     H_    0.436718 0.238233 0.479047 0.256937
H3    H     H_    0.451178 0.176131 0.440066 0.229891
C82   C     C_3   0.369812 0.851746 0.321591 -0.768837
H4    H     H_    0.367114 0.815379 0.282709 0.250145
H5    H     H_    0.352038 0.883334 0.279251 0.246797
H6    H     H_    0.408886 0.860059 0.337418 0.230104
C83   C     C_3   0.920718 0.705128 0.428421 -0.823472
H7    H     H_    0.914551 0.717101 0.357216 0.241036
H8    H     H_    0.934773 0.738317 0.470485 0.257008
H9    H     H_    0.949509 0.675575 0.434949 0.228249
C84   C     C_3   0.869719 0.351721 0.321592 -0.768846
H10   H     H_    0.867222 0.315239 0.283056 0.250150
H11   H     H_    0.851757 0.383094 0.278983 0.246574
H12   H     H_    0.908743 0.360312 0.337272 0.230027
I7    I     I_    0.781605 0.837457 0.608440 -0.231806
I8    I     I_    0.714357 0.191342 0.311534 -0.229934
I9    I     I_    0.281642 0.337599 0.607283 -0.234343
I10   I     I_    0.213932 0.691654 0.311058 -0.230055
C85   C     C_3   0.341517 0.277088 0.421305 -0.770961
H13   H     H_    0.353169 0.277781 0.354469 0.237290
H14   H     H_    0.308091 0.300382 0.415669 0.261884
H15   H     H_    0.368984 0.296575 0.470285 0.254967
C86   C     C_3   0.272598 0.809653 0.307958 -0.768579
H16   H     H_    0.273165 0.843589 0.263441 0.239659
H17   H     H_    0.288142 0.775959 0.277300 0.263685
H18   H     H_    0.234047 0.802866 0.311877 0.262250
C87   C     C_3   0.838826 0.775267 0.415886 -0.771097
H19   H     H_    0.849180 0.774909 0.347995 0.237809
H20   H     H_    0.805320 0.798359 0.411372 0.261276
H21   H     H_    0.866855 0.795683 0.462326 0.254237
C88   C     C_3   0.772527 0.309640 0.308141 -0.768767
H22   H     H_    0.772936 0.343641 0.263724 0.239468
H23   H     H_    0.788157 0.276059 0.277324 0.263771
H24   H     H_    0.734013 0.302665 0.312138 0.262175
I11   I     I_    0.697634 0.943305 0.592999 -0.212941
I12   I     I_    0.595484 0.142591 0.307935 -0.241540
I13   I     I_    0.197995 0.443586 0.589872 -0.211554
I14   I     I_    0.095155 0.642772 0.307981 -0.241381
C89   C     C_3   0.407099 0.057262 0.152142 -0.747997
H25   H     H_    0.385215 0.083829 0.104839 0.247733
H26   H     H_    0.382564 0.029675 0.178563 0.266035
H27   H     H_    0.425204 0.081902 0.206974 0.224503
C90   C     C_3   0.907056 0.557204 0.152121 -0.748263
H28   H     H_    0.885150 0.583744 0.104799 0.247671
H29   H     H_    0.882541 0.529606 0.178573 0.265991
H30   H     H_    0.925149 0.581869 0.206927 0.224548
I15   I     I_    0.631462 0.977455 0.061025 -0.195845
I16   I     I_    0.131462 0.477585 0.061031 -0.195973
I17   I     I_    0.367320 0.024961 0.942004 -0.299827
I18   I     I_    0.867271 0.524793 0.942030 -0.298962
C91   C     C_3   0.595473 0.952156 0.844911 -0.770049
H31   H     H_    0.624082 0.932798 0.891594 0.265116
H32   H     H_    0.580329 0.921915 0.797258 0.252433
H33   H     H_    0.612167 0.982685 0.808326 0.242696
C92   C     C_3   0.095502 0.452249 0.844924 -0.770507
H34   H     H_    0.124123 0.432912 0.891614 0.265149
H35   H     H_    0.080384 0.421999 0.797264 0.252449
H36   H     H_    0.112174 0.482798 0.808348 0.242535
C93   C     C_3   0.451619 0.068471 0.835117 -0.747460
H37   H     H_    0.475349 0.095999 0.806579 0.255416
H38   H     H_    0.424485 0.052764 0.780990 0.257112
H39   H     H_    0.433797 0.092581 0.880853 0.246866
C94   C     C_3   0.951496 0.568361 0.835033 -0.746234
H40   H     H_    0.975177 0.595920 0.806446 0.255305
H41   H     H_    0.924381 0.552592 0.780935 0.258186
H42   H     H_    0.933644 0.592460 0.880741 0.246820
I19   I     I_    0.318490 0.043169 0.560296 -0.301974
I20   I     I_    0.377849 0.890152 0.691089 -0.249464
I21   I     I_    0.821767 0.543785 0.570531 -0.304492
I22   I     I_    0.878038 0.389968 0.691248 -0.248204
C95   C     C_3   0.234168 0.129794 0.488320 -0.709439
H43   H     H_    0.209755 0.146764 0.431404 0.252681
H44   H     H_    0.232715 0.087796 0.475594 0.252787
H45   H     H_    0.220877 0.137702 0.552432 0.266580
C96   C     C_3   0.278806 0.824534 0.641639 -0.715363
H46   H     H_    0.242574 0.807004 0.627192 0.248647
H47   H     H_    0.301224 0.801733 0.694462 0.270647
H48   H     H_    0.273078 0.863728 0.667380 0.252200
C97   C     C_3   0.734962 0.628892 0.500794 -0.710068
H49   H     H_    0.709951 0.641868 0.441338 0.253132
H50   H     H_    0.733917 0.586367 0.497443 0.253504
H51   H     H_    0.721999 0.641122 0.563244 0.264434
C98   C     C_3   0.778911 0.324502 0.641863 -0.715752
H52   H     H_    0.742647 0.307044 0.627435 0.248603
H53   H     H_    0.801317 0.301642 0.694616 0.270833
H54   H     H_    0.773253 0.363695 0.667683 0.252006
I23   I     I_    0.619236 0.693080 0.452264 -0.241557
I24   I     I_    0.745132 0.198175 0.717017 -0.219770
I25   I     I_    0.118485 0.192299 0.458553 -0.241742
I26   I     I_    0.245357 0.698004 0.716622 -0.219746

loop_
_geom_bond_atom_site_label_1
_geom_bond_atom_site_label_2
_geom_bond_distance
_ccdc_geom_bond_type
C77   C85   1.518213 S    
C49   C53   1.405857 A    
C29   C31   1.400548 A    
C87   H19   1.109576 S    
Zn8   O18   1.916065 S    
C89   H25   1.109052 S    
C63   I21   2.155488 S    
O22   C11   1.275449 A    
C58   C62   1.410588 A    
C39   I13   2.143042 S    
C76   C84   1.519068 S    
C97   H51   1.109592 S    
C28   I2    2.153122 S    
C88   H22   1.109956 S    
Zn5   O12   1.923968 S    
C98   H52   1.107345 S    
C41   I7    2.137288 S    
C62   I20   2.151488 S    
C83   H8    1.109839 S    
Zn5   O1    1.919365 S    
C16   C20   1.412747 A    
C80   C88   1.510550 S    
N4    N6    1.250092 D    
C46   N2    1.422703 S    
Zn2   O21   1.937347 S    
C21   C93   1.518082 S    
C44   I10   2.130824 S    
C72   C76   1.415233 A    
O11   C2    1.270647 A    
O10   C8    1.287017 A    
C13   C29   1.416179 A    
C49   I23   2.129386 S    
Zn7   O15   1.922086 S    
C92   H35   1.108672 S    
C33   C37   1.407645 A    
C3    C71   1.465229 S    
C60   C64   1.410561 A    
C67   N7    1.427154 S    
Zn7   O16   1.916065 S    
Zn6   O14   1.923968 S    
C8    C36   1.468893 S    
O16   C5    1.283350 A    
C26   C28   1.407894 A    
C76   C80   1.411076 A    
Zn4   O5    1.912777 S    
C93   H38   1.110657 S    
C75   C79   1.415999 A    
C78   C86   1.510487 S    
C54   I4    2.145390 S    
C58   C96   1.510358 S    
C18   C26   1.413404 A    
C14   C30   1.416208 A    
C97   H50   1.105449 S    
Zn5   O19   1.945619 S    
O12   C1    1.271944 A    
C84   H10   1.110002 S    
C24   C32   1.414540 A    
Zn6   O20   1.945619 S    
O13   C4    1.270744 A    
C9    C13   1.468555 S    
C5    C33   1.462438 S    
C94   H41   1.110662 S    
C20   C92   1.515520 S    
C36   C40   1.410255 A    
C82   H6    1.109291 S    
C35   C39   1.407706 A    
Zn1   O7    1.922412 S    
C11   C15   1.464620 S    
C22   C24   1.411212 A    
O4    C2    1.275852 A    
Zn2   O8    1.926730 S    
C27   I1    2.153099 S    
C43   I9    2.137704 S    
O5    C3    1.275775 A    
C46   C50   1.407994 A    
Zn4   O23   1.937347 S    
C81   H3    1.106254 S    
Zn4   O10   1.926730 S    
C90   H29   1.110110 S    
C42   I8    2.130880 S    
C16   C22   1.409794 A    
C87   H20   1.107627 S    
C90   H28   1.109059 S    
Zn8   O17   1.922086 S    
C95   H44   1.107225 S    
C85   H14   1.107564 S    
C45   N1    1.415699 S    
C36   C56   1.411436 A    
Zn1   O4    1.918509 S    
O24   C12   1.275423 A    
C35   C55   1.409359 A    
Zn2   O3    1.912777 S    
C40   I14   2.150315 S    
C88   H23   1.109544 S    
C18   C20   1.406302 A    
C18   I16   2.150406 S    
C55   I5    2.147913 S    
C91   H32   1.108667 S    
C83   H9    1.106483 S    
C47   N3    1.416737 S    
C25   C27   1.407913 A    
C66   N6    1.424028 S    
Zn7   O25   1.930224 S    
C6    C34   1.468985 S    
O25   C9    1.277672 A    
C42   C46   1.412368 A    
Zn1   O1    1.938115 S    
C52   C56   1.409619 A    
C84   H12   1.109212 S    
C59   C67   1.421951 A    
C51   C55   1.405703 A    
C92   H36   1.110609 S    
Zn8   O26   1.930224 S    
C74   C82   1.519019 S    
C31   I17   2.153947 S    
C91   H31   1.106117 S    
O14   C3    1.271823 A    
C32   I18   2.153979 S    
O23   C12   1.273650 A    
C67   C79   1.416033 A    
C74   C78   1.411069 A    
O21   C11   1.273670 A    
C17   C19   1.406334 A    
C30   C32   1.400561 A    
Zn2   O1    1.941459 S    
C93   H39   1.107083 S    
C68   C80   1.410818 A    
C2    C70   1.470969 S    
C19   C91   1.515534 S    
O6    C4    1.275783 A    
N3    N5    1.248117 D    
C44   C48   1.412455 A    
C14   C28   1.404680 A    
C30   C90   1.513026 S    
C43   C47   1.410823 A    
C34   C38   1.410311 A    
C94   H42   1.107072 S    
C15   C21   1.409792 A    
C97   H49   1.106689 S    
O26   C10   1.277708 A    
C38   C42   1.403187 A    
C52   I26   2.134460 S    
C86   H18   1.107712 S    
C10   C14   1.468584 S    
O7    C5    1.280276 A    
C57   C95   1.507025 S    
Zn3   O6    1.918509 S    
C50   I24   2.134445 S    
O8    C6    1.287034 A    
C71   C75   1.413768 A    
C87   H21   1.109936 S    
C73   C77   1.416745 A    
C21   C23   1.411184 A    
C59   C97   1.508353 S    
C82   H4    1.110099 S    
C34   C54   1.411531 A    
C95   H45   1.110355 S    
N2    N8    1.250109 D    
C85   H15   1.110044 S    
C86   H17   1.109580 S    
C63   C71   1.407037 A    
C59   C63   1.407675 A    
C70   C74   1.415219 A    
C88   H24   1.107694 S    
C1    C69   1.466123 S    
C58   C66   1.417230 A    
C7    C35   1.463075 S    
C81   H1    1.109634 S    
C89   H26   1.110112 S    
C96   H48   1.110059 S    
C93   H37   1.108909 S    
Zn7   O1    1.950481 S    
C61   C69   1.407184 A    
C96   H46   1.107340 S    
C60   C98   1.510338 S    
C39   C43   1.406764 A    
C91   H33   1.110613 S    
C53   I3    2.147452 S    
C38   I12   2.150299 S    
C66   C78   1.410821 A    
C75   C83   1.519542 S    
C37   C41   1.406431 A    
Zn4   O2    1.941459 S    
C23   C31   1.414544 A    
C61   I19   2.154861 S    
O17   C8    1.280121 A    
C13   C27   1.404696 A    
C90   H30   1.110606 S    
C98   H54   1.110060 S    
Zn5   O11   1.927983 S    
C73   C81   1.519510 S    
C64   C72   1.411805 A    
C65   N5    1.427442 S    
C83   H7    1.109697 S    
C12   C16   1.464551 S    
C33   C53   1.409184 A    
C62   C70   1.411737 A    
C95   H43   1.107331 S    
C64   I22   2.151563 S    
N1    N7    1.247395 D    
C84   H11   1.110010 S    
C51   I25   2.130062 S    
C98   H53   1.109658 S    
Zn3   O2    1.938115 S    
C48   C52   1.408020 A    
C85   H13   1.109514 S    
C45   C49   1.407371 A    
Zn6   O13   1.927983 S    
C92   H34   1.106121 S    
C50   C54   1.409638 A    
C41   C45   1.409614 A    
C68   N8    1.424053 S    
C4    C72   1.470998 S    
O3    C1    1.276232 A    
Zn1   O22   1.939024 S    
C89   H27   1.110599 S    
O20   C10   1.269756 A    
Zn3   O9    1.922412 S    
C37   I11   2.142589 S    
C48   N4    1.422724 S    
Zn3   O24   1.939024 S    
O9    C7    1.280231 A    
C79   C87   1.518570 S    
C15   C19   1.412767 A    
C23   C25   1.422159 A    
Zn6   O2    1.919365 S    
C65   C77   1.415982 A    
C22   C94   1.518113 S    
O19   C9    1.269774 A    
C17   C25   1.413425 A    
C60   C68   1.417199 A    
C57   C61   1.406282 A    
Zn8   O2    1.950481 S    
C94   H40   1.108896 S    
C40   C44   1.403235 A    
C82   H5    1.110128 S    
C56   I6    2.145329 S    
C69   C73   1.414741 A    
C57   C65   1.420714 A    
C86   H16   1.109966 S    
C17   I15   2.150397 S    
C96   H47   1.109674 S    
C24   C26   1.422179 A    
C47   C51   1.407326 A    
O15   C6    1.280156 A    
O18   C7    1.283668 A    
C81   H2    1.109867 S    
C29   C89   1.513031 S    
