data_mof_unit_56607.cif
_audit_creation_date              2012-12-10T17:49:39-0500
_audit_creation_method            fapswitch 2.2
_symmetry_space_group_name_H-M    P1
_symmetry_Int_Tables_number       1
_space_group_crystal_system       triclinic
_cell_length_a                    14.697922
_cell_length_b                    14.81297
_cell_length_c                    15.907912
_cell_angle_alpha                 76.488946
_cell_angle_beta                  102.930034
_cell_angle_gamma                 114.975941
_cell_volume                      3021.78348682

loop_
_atom_site_label
_atom_site_type_symbol
_atom_type_description
_atom_site_fract_x
_atom_site_fract_y
_atom_site_fract_z
_atom_type_partial_charge
C1    C     C_R   0.880002 0.312432 0.515615 0.802906
C2    C     C_R   0.188712 0.794730 0.476459 -0.058651
C3    C     C_R   0.783379 0.033848 0.511281 -0.205286
C4    C     C_R   0.999869 0.499958 0.659635 0.822583
C5    C     C_R   0.848847 0.133983 0.514636 -0.244974
C6    C     C_R   0.707218 0.174289 0.523505 0.122179
C7    C     C_R   0.639141 0.078251 0.502867 0.074786
C8    C     C_R   0.678678 0.005411 0.504962 0.127078
C9    C     C_R   0.532980 0.051770 0.480782 0.061287
C10   C     C_R   0.467373 0.948781 0.487702 0.061429
C11   C     C_R   0.508850 0.876771 0.493886 -0.219441
C12   C     C_3   0.015880 0.399625 0.074517 0.038771
C13   C     C_R   0.612911 0.905379 0.499654 -0.221715
C14   C     C_R   0.491445 0.124715 0.442821 -0.214257
C15   C     C_R   0.387403 0.096750 0.418830 -0.221381
C16   C     C_R   0.120006 0.687481 0.487214 0.797128
C17   C     C_R   0.321689 0.996040 0.436788 0.129267
C18   C     C_R   0.361229 0.921945 0.478376 0.074407
C19   C     C_R   0.217034 0.968256 0.412697 -0.202673
C20   C     C_R   0.151553 0.867584 0.428770 -0.247478
C21   C     C_R   0.293177 0.824360 0.509510 0.102568
C22   C     C_R   0.695714 0.641308 0.339647 -0.303683
C23   C     C_3   0.003265 0.496583 0.084607 0.247544
C24   C     C_R   0.786348 0.628053 0.368934 0.403415
C25   C     C_R   0.716749 0.511491 0.491817 -0.033576
C26   C     C_R   0.622042 0.522799 0.463680 -0.029083
C27   C     C_R   0.613406 0.587673 0.384672 0.074533
C28   C     C_R   0.000249 0.500117 0.340393 0.826589
C29   C     C_R   0.535713 0.472459 0.509571 0.047922
C30   C     C_R   0.443753 0.488983 0.474410 0.052035
C31   C     C_R   0.434698 0.540227 0.387228 0.147451
C32   C     C_R   0.521132 0.594847 0.347153 -0.199588
C33   C     C_R   0.537145 0.404904 0.588339 -0.224312
C34   C     C_3   0.091069 0.593872 0.047674 -0.033143
C35   C     C_R   0.453240 0.357393 0.632631 -0.196256
C36   C     C_R   0.367890 0.381170 0.603898 0.163387
C37   C     C_R   0.364238 0.451274 0.527148 -0.015804
C38   C     C_R   0.286705 0.337214 0.652343 -0.321637
C39   C     C_R   0.204358 0.365717 0.626114 0.082103
C40   C     C_3   0.026172 0.405986 0.976357 -0.010375
C41   C     C_R   0.283407 0.484593 0.509473 -0.008221
C42   C     C_3   0.898023 0.488403 0.933697 -0.379291
C43   C     C_3   0.902266 0.498239 0.029267 -0.438856
C44   C     C_1   0.000672 0.499588 0.251131 -0.188308
C45   C     C_3   0.087756 0.596418 0.947961 -0.026300
C46   C     C_3   0.002269 0.497225 0.918050 0.248554
C47   C     C_3   0.932166 0.301093 0.111975 -0.850443
C48   C     C_3   0.327466 0.761356 0.589931 -0.836914
C49   C     C_3   0.672972 0.233830 0.566371 -0.874894
C50   C     C_3   0.968208 0.305415 0.939594 -0.855556
C51   C     C_3   0.867926 0.689213 0.311622 -0.823834
C52   C     C_3   0.334932 0.526147 0.328287 -0.905314
C53   C     C_3   0.078241 0.694004 0.893928 -0.901271
C54   C     C_3   0.197395 0.606678 0.098164 -0.959970
C55   C     C_1   0.001608 0.498509 0.176165 -0.075151
C56   C     C_1   0.000505 0.498699 0.824974 -0.065562
C57   C     C_1   0.999690 0.499587 0.749184 -0.196492
C58   C     C_R   0.811610 0.205164 0.519977 -0.061114
Cu1   Cu    Cu3+1 0.081750 0.475690 0.522550 0.929410
Cu2   Cu    Cu3+1 0.918250 0.524310 0.477450 0.935453
H1    H     H_    0.107404 0.423348 0.974922 0.116386
H2    H     H_    0.539189 0.202932 0.424940 0.167277
H3    H     H_    0.186180 0.023856 0.378611 0.140163
H4    H     H_    0.514589 0.638383 0.282563 0.147964
H5    H     H_    0.456806 0.304414 0.691932 0.138067
H6    H     H_    0.688669 0.692164 0.279430 0.142468
H7    H     H_    0.728873 0.462377 0.550752 0.133559
H8    H     H_    0.874934 0.547129 0.888567 0.174950
H9    H     H_    0.838028 0.414737 0.919357 0.173121
H10   H     H_    0.895934 0.570218 0.030425 0.163790
H11   H     H_    0.161122 0.599363 0.936449 0.164517
H12   H     H_    0.087692 0.398821 0.115407 0.138869
H13   H     H_    0.951494 0.235364 0.115764 0.229351
H14   H     H_    0.925743 0.302923 0.179667 0.231233
H15   H     H_    0.857064 0.288133 0.071595 0.242654
H16   H     H_    0.338953 0.699290 0.571995 0.241656
H17   H     H_    0.398763 0.807952 0.627442 0.229248
H18   H     H_    0.269989 0.728527 0.635361 0.230294
H19   H     H_    0.659331 0.295820 0.518434 0.240532
H20   H     H_    0.602768 0.185004 0.595684 0.235025
H21   H     H_    0.731371 0.266201 0.620969 0.221835
H22   H     H_    0.987603 0.312704 0.874138 0.229278
H23   H     H_    0.078144 0.659842 0.056547 0.183615
H24   H     H_    0.991273 0.245398 0.981908 0.232163
H25   H     H_    0.884930 0.280890 0.933817 0.241666
H26   H     H_    0.282831 0.547773 0.459831 0.148709
H27   H     H_    0.140776 0.330548 0.662507 0.127116
H28   H     H_    0.941371 0.684217 0.334673 0.269778
H29   H     H_    0.841629 0.665946 0.245963 0.205295
H30   H     H_    0.881919 0.770310 0.304011 0.186577
H31   H     H_    0.271794 0.457053 0.352409 0.243728
H32   H     H_    0.317467 0.593974 0.319822 0.228569
H33   H     H_    0.339554 0.515670 0.262635 0.236459
H34   H     H_    0.641996 0.848877 0.500794 0.148013
H35   H     H_    0.601798 0.385964 0.616869 0.137541
H36   H     H_    0.287006 0.281444 0.710147 0.136205
H37   H     H_    0.835590 0.436913 0.057074 0.185246
H38   H     H_    0.144607 0.760487 0.915337 0.236815
H39   H     H_    0.077470 0.697174 0.823393 0.245671
H40   H     H_    0.008648 0.700530 0.902871 0.238730
H41   H     H_    0.221024 0.547822 0.089690 0.229184
H42   H     H_    0.253810 0.681299 0.073337 0.248509
H43   H     H_    0.199695 0.604125 0.168840 0.256711
H44   H     H_    0.071575 0.846976 0.404593 0.165049
H45   H     H_    0.358301 0.154225 0.386749 0.147149
H46   H     H_    0.814262 0.979387 0.510374 0.143229
H47   H     H_    0.928825 0.155583 0.513587 0.167753
H48   H     H_    0.460953 0.799149 0.487628 0.162124
N1    N     N_R   0.795410 0.560790 0.443550 -0.173978
N2    N     N_R   0.204590 0.439170 0.556520 -0.179606
O1    O     O_R   0.977910 0.338120 0.529720 -0.592038
O2    O     O_R   0.839850 0.379180 0.491640 -0.572175
O3    O     O_R   0.069060 0.479460 0.639610 -0.582023
O4    O     O_R   0.931000 0.520530 0.601530 -0.578989
O5    O     O_R   0.160150 0.620820 0.508360 -0.577963
O6    O     O_R   0.022090 0.661880 0.470280 -0.595179
O7    O     O_R   0.069000 0.479470 0.398470 -0.576453
O8    O     O_R   0.930940 0.520540 0.360390 -0.577416

loop_
_geom_bond_atom_site_label_1
_geom_bond_atom_site_label_2
_ccdc_geom_bond_type
C8    C13   A    
C29   C33   A    
C45   H11   S    
C18   C21   A    
C6    C58   A    
C54   H41   S    
Cu2   O4    S    
C19   C20   A    
C25   H7    S    
C39   H27   S    
C31   C52   S    
C50   H24   S    
C7    C8    A    
C45   C46   S    
C53   H39   S    
C40   C46   S    
C41   H26   S    
C12   C23   S    
C26   C27   A    
C5    C58   A    
C4    O4    A    
C36   C37   A    
C28   O7    A    
C1    O2    A    
C30   C31   A    
C35   H5    S    
C48   H18   S    
C14   H2    S    
C33   H35   S    
Cu1   N2    S    
C23   C43   S    
C56   C57   T    
C15   C17   A    
C42   C46   S    
C49   H21   S    
C48   H16   S    
C22   H6    S    
Cu2   N1    S    
C50   H25   S    
C17   C19   A    
C39   N2    A    
C35   C36   A    
C19   H3    S    
C4    C57   S    
Cu1   O1    S    
Cu2   O8    S    
C2    C16   S    
C9    C10   A    
C25   N1    A    
C21   C48   S    
C24   C51   S    
C12   H12   S    
C45   C53   S    
Cu1   Cu2   S    
Cu1   O7    S    
C42   H8    S    
C12   C47   S    
C16   O6    A    
C3    H46   S    
C2    C20   A    
C4    O3    A    
C32   H4    S    
C3    C8    A    
C25   C26   A    
C28   C44   S    
C42   H9    S    
C40   H1    S    
C49   H19   S    
C30   C37   A    
C48   H17   S    
C12   C40   S    
C9    C14   A    
C29   C30   A    
Cu2   O2    S    
C54   H43   S    
C31   C32   A    
Cu1   O3    S    
C23   C34   S    
C2    C21   A    
C17   C18   A    
C52   H33   S    
C34   C45   S    
C47   H13   S    
C34   C54   S    
C43   H10   S    
C22   C27   A    
C22   C24   A    
Cu2   O6    S    
C34   H23   S    
C46   C56   S    
C16   O5    A    
C50   H22   S    
C53   H40   S    
C5    H47   S    
C7    C9    A    
C27   C32   A    
C54   H42   S    
C24   N1    A    
C43   H37   S    
C47   H14   S    
C3    C5    A    
C51   H28   S    
C23   C55   S    
C6    C7    A    
C20   H44   S    
C53   H38   S    
C49   H20   S    
C13   H34   S    
C41   N2    A    
C15   H45   S    
C36   C38   A    
C47   H15   S    
C51   H30   S    
C28   O8    A    
C1    C58   S    
C1    O1    A    
C11   C13   A    
C44   C55   T    
C38   C39   A    
C10   C18   A    
C40   C50   S    
C33   C35   A    
C6    C49   S    
C37   C41   A    
C52   H32   S    
C10   C11   A    
C26   C29   A    
Cu1   O5    S    
C42   C43   S    
C38   H36   S    
C11   H48   S    
C14   C15   A    
C52   H31   S    
C51   H29   S    
