data_mof_unit_42693.cif
_audit_creation_date              2013-03-05T15:40:28-0500
_audit_creation_method            fapswitch 2.2
_symmetry_space_group_name_H-M    P1
_symmetry_Int_Tables_number       1
_space_group_crystal_system       triclinic
_cell_length_a                    19.195118
_cell_length_b                    10.941729
_cell_length_c                    18.752038
_cell_angle_alpha                 90.306449
_cell_angle_beta                  90.236193
_cell_angle_gamma                 89.709218
_cell_volume                      3938.30881887

loop_
_atom_site_label
_atom_site_type_symbol
_atom_site_description
_atom_site_fract_x
_atom_site_fract_y
_atom_site_fract_z
_atom_type_partial_charge
O1    O     O_R   0.215090 0.709860 0.828130 -0.532668
O2    O     O_R   0.784910 0.709860 0.171870 -0.533710
O3    O     O_R   0.715090 0.209860 0.828130 -0.532493
O4    O     O_R   0.284910 0.209860 0.171870 -0.529510
O5    O     O_R   0.236990 0.958390 0.823710 -0.480220
O6    O     O_R   0.763010 0.958390 0.176290 -0.478294
O7    O     O_R   0.736990 0.458390 0.823710 -0.476016
O8    O     O_R   0.263010 0.458390 0.176290 -0.481947
C1    C     C_R   0.273126 0.040268 0.854532 0.575358
C2    C     C_R   0.726934 0.040574 0.145758 0.589873
C3    C     C_R   0.773127 0.540256 0.854539 0.580901
C4    C     C_R   0.226933 0.540567 0.145753 0.581304
O9    O     O_R   0.332380 0.074750 0.830850 -0.485048
O10   O     O_R   0.667620 0.074750 0.169150 -0.469475
O11   O     O_R   0.832380 0.574750 0.830850 -0.481622
O12   O     O_R   0.167620 0.574750 0.169150 -0.471652
O13   O     O_R   0.445800 0.917770 0.825070 -0.531924
O14   O     O_R   0.554200 0.917770 0.174930 -0.530571
O15   O     O_R   0.945800 0.417770 0.825070 -0.529777
O16   O     O_R   0.054200 0.417770 0.174930 -0.531398
C5    C     C_R   0.472886 0.823058 0.852343 0.559861
C6    C     C_R   0.528869 0.822534 0.146049 0.550319
C7    C     C_R   0.972879 0.323057 0.852354 0.560506
C8    C     C_R   0.028837 0.322542 0.146070 0.550267
O17   O     O_R   0.456410 0.716580 0.829970 -0.436005
O18   O     O_R   0.543590 0.716580 0.170030 -0.432223
O19   O     O_R   0.956410 0.216580 0.829970 -0.436661
O20   O     O_R   0.043590 0.216580 0.170030 -0.432496
O21   O     O_R   0.321080 0.625290 0.822650 -0.450997
O22   O     O_R   0.678920 0.625290 0.177350 -0.443491
O23   O     O_R   0.821080 0.125290 0.822650 -0.450163
O24   O     O_R   0.178920 0.125290 0.177350 -0.443011
C9    C     C_R   0.260270 0.632850 0.850136 0.556674
C10   C     C_R   0.740126 0.632610 0.149909 0.563398
C11   C     C_R   0.760264 0.132846 0.850135 0.557362
C12   C     C_R   0.240125 0.132607 0.149910 0.566968
O25   O     O_R   0.214930 0.711450 0.668160 -0.498335
O26   O     O_R   0.785070 0.711450 0.331840 -0.513668
O27   O     O_R   0.714930 0.211450 0.668160 -0.506026
O28   O     O_R   0.285070 0.211450 0.331840 -0.510349
O29   O     O_R   0.236850 0.959870 0.675420 -0.439269
O30   O     O_R   0.763150 0.959870 0.324580 -0.417999
O31   O     O_R   0.736850 0.459870 0.675420 -0.446500
O32   O     O_R   0.263150 0.459870 0.324580 -0.460577
C13   C     C_R   0.271453 0.047451 0.649217 0.556940
C14   C     C_R   0.708577 0.997096 0.359785 0.554078
C15   C     C_R   0.774553 0.540570 0.645772 0.564705
C16   C     C_R   0.225265 0.540823 0.354429 0.565773
O33   O     O_R   0.332230 0.076350 0.670880 -0.531477
O34   O     O_R   0.667770 0.076350 0.329120 -0.491950
O35   O     O_R   0.832230 0.576350 0.670880 -0.528228
O36   O     O_R   0.167770 0.576350 0.329120 -0.520684
O37   O     O_R   0.445660 0.919250 0.676780 -0.508740
O38   O     O_R   0.554340 0.919250 0.323220 -0.533249
O39   O     O_R   0.945660 0.419250 0.676780 -0.518167
O40   O     O_R   0.054340 0.419250 0.323220 -0.520318
C17   C     C_R   0.471483 0.822879 0.648315 0.569828
C18   C     C_R   0.527782 0.823887 0.351013 0.556298
C19   C     C_R   0.967935 0.322082 0.645809 0.560228
C20   C     C_R   0.026506 0.324710 0.349565 0.567600
O41   O     O_R   0.456260 0.718170 0.670000 -0.433136
O42   O     O_R   0.543740 0.718170 0.330000 -0.432812
O43   O     O_R   0.956260 0.218170 0.670000 -0.434399
O44   O     O_R   0.043740 0.218170 0.330000 -0.436379
O45   O     O_R   0.320940 0.626760 0.674370 -0.471070
O46   O     O_R   0.679060 0.626760 0.325630 -0.471494
O47   O     O_R   0.820940 0.126760 0.674370 -0.459870
O48   O     O_R   0.179060 0.126760 0.325630 -0.468415
C21   C     C_R   0.258953 0.631226 0.649235 0.566688
C22   C     C_R   0.741133 0.631943 0.350760 0.552666
C23   C     C_R   0.758563 0.130569 0.649505 0.564615
C24   C     C_R   0.239101 0.140276 0.355002 0.540842
Cr1   Cr    Cr6+3 0.230530 0.836340 0.748870 1.113411
Cr2   Cr    Cr6+3 0.769470 0.836340 0.251130 1.113559
Cr3   Cr    Cr6+3 0.730530 0.336340 0.748870 1.111973
Cr4   Cr    Cr6+3 0.269470 0.336340 0.251130 1.102248
Cr5   Cr    Cr6+3 0.387420 0.989430 0.750820 1.055527
Cr6   Cr    Cr6+3 0.612580 0.989430 0.249180 1.063355
Cr7   Cr    Cr6+3 0.887420 0.489430 0.750820 1.054003
Cr8   Cr    Cr6+3 0.112580 0.489430 0.249180 1.059387
Cr9   Cr    Cr6+3 0.385640 0.677860 0.749230 1.180010
Cr10  Cr    Cr6+3 0.614360 0.677860 0.250770 1.178137
Cr11  Cr    Cr6+3 0.885640 0.177860 0.749230 1.179992
Cr12  Cr    Cr6+3 0.114360 0.177860 0.250770 1.182025
O49   O     O_3   0.334530 0.834540 0.749640 -0.299007
O50   O     O_3   0.665470 0.834540 0.250360 -0.330069
O51   O     O_3   0.834530 0.334540 0.749640 -0.305645
O52   O     O_3   0.165470 0.334540 0.250360 -0.306871
C25   C     C_R   0.502518 0.832607 0.072102 -0.051265
C26   C     C_R   0.506851 0.835527 0.922658 -0.046026
C27   C     C_R   0.002380 0.332645 0.072162 -0.050424
C28   C     C_R   0.006775 0.335512 0.922710 -0.046598
C29   C     C_R   0.501719 0.947166 0.036054 -0.037099
C30   C     C_R   0.503929 0.948327 0.960576 -0.038382
C31   C     C_R   0.001650 0.447189 0.036096 -0.036768
C32   C     C_R   0.003886 0.448323 0.960615 -0.038723
C33   C     C_R   0.518212 0.726062 0.959637 0.171716
C34   C     C_R   0.501785 0.722971 0.032092 0.174090
C35   C     C_R   0.018005 0.226057 0.959725 0.171997
C36   C     C_R   0.001531 0.223015 0.032159 0.173534
C37   C     C_R   0.496382 0.060785 0.072695 -0.092628
C38   C     C_R   0.505274 0.062558 0.925161 -0.096256
C39   C     C_R   0.996373 0.560822 0.072726 -0.092436
C40   C     C_R   0.005314 0.562533 0.925189 -0.096493
C41   C     C_R   0.996325 0.671240 0.036321 -0.063198
C42   C     C_R   0.001496 0.672085 0.962751 -0.067508
C43   C     C_R   0.496258 0.171218 0.036302 -0.063396
C44   C     C_R   0.501395 0.172096 0.962731 -0.067930
H1    H     H_    0.486879 0.067229 0.129217 0.149224
H2    H     H_    0.514504 0.069828 0.868591 0.147382
H3    H     H_    0.986864 0.567286 0.129248 0.148332
H4    H     H_    0.014563 0.569763 0.868621 0.147818
H5    H     H_    0.991278 0.756490 0.065441 0.215078
H6    H     H_    0.003603 0.757881 0.934497 0.220117
H7    H     H_    0.491169 0.256452 0.065431 0.215025
H8    H     H_    0.503422 0.257910 0.934486 0.219939
C45   C     C_2   0.242570 0.560853 0.913782 -0.028213
C46   C     C_2   0.759648 0.560694 0.086130 -0.026692
C47   C     C_2   0.742520 0.060847 0.913771 -0.027823
C48   C     C_2   0.259640 0.060694 0.086125 -0.027855
C49   C     C_2   0.248192 0.575322 0.073954 -0.094105
C50   C     C_2   0.751943 0.573067 0.927135 -0.097044
C51   C     C_2   0.748173 0.075271 0.073944 -0.094392
C52   C     C_2   0.251944 0.073095 0.927122 -0.095815
C53   C     C_2   0.280175 0.490819 0.032539 -0.110586
C54   C     C_2   0.722647 0.485719 0.968169 -0.110836
C55   C     C_2   0.780035 0.990650 0.032516 -0.111875
C56   C     C_2   0.222657 0.985746 0.968154 -0.109894
C57   C     C_2   0.291812 0.506899 0.955259 0.190879
C58   C     C_2   0.713101 0.497100 0.046520 0.196094
C59   C     C_2   0.791696 0.006683 0.955234 0.190947
C60   C     C_2   0.213084 0.997148 0.046494 0.195527
H9    H     H_    0.298150 0.405092 0.055350 0.173614
H10   H     H_    0.707274 0.399294 0.944190 0.181469
H11   H     H_    0.797885 0.904840 0.055323 0.173295
H12   H     H_    0.207300 0.899307 0.944180 0.181642
H13   H     H_    0.229905 0.661344 0.051975 0.138837
H14   H     H_    0.768345 0.659946 0.949597 0.119738
H15   H     H_    0.729974 0.161359 0.051978 0.138714
H16   H     H_    0.268334 0.159986 0.949578 0.119495
C61   C     C_2   0.501245 0.828107 0.577141 -0.111112
C62   C     C_2   0.494765 0.831374 0.420555 -0.114492
C63   C     C_2   0.987816 0.325018 0.570889 -0.110713
C64   C     C_2   0.986590 0.336795 0.414743 -0.123395
C65   C     C_2   0.488652 0.727137 0.458886 0.213564
C66   C     C_2   0.502053 0.724636 0.536600 0.212555
C67   C     C_2   0.969022 0.234451 0.449697 0.204482
C68   C     C_2   0.975334 0.225911 0.527969 0.213817
H17   H     H_    0.494958 0.921247 0.444599 0.058816
H18   H     H_    0.503130 0.918612 0.554577 0.057394
H19   H     H_    0.988675 0.425641 0.440098 0.054457
H20   H     H_    0.998180 0.414902 0.550061 0.049625
C69   C     C_2   0.241258 0.554984 0.588652 -0.055404
C70   C     C_2   0.759068 0.557578 0.411583 -0.037504
C71   C     C_2   0.738366 0.047784 0.592043 -0.041672
C72   C     C_2   0.248964 0.106994 0.428455 -0.040665
C73   C     C_2   0.237398 0.568447 0.428842 0.218607
C74   C     C_2   0.761527 0.568565 0.571715 0.227226
C75   C     C_2   0.722643 0.023185 0.434031 0.221781
C76   C     C_2   0.243239 0.106536 0.586301 0.191805
C77   C     C_2   0.182460 0.558408 0.473233 -0.147800
C78   C     C_2   0.816913 0.564210 0.527493 -0.140926
C79   C     C_2   0.670053 0.026096 0.481174 -0.140276
C80   C     C_2   0.285958 0.175121 0.547409 -0.158378
C81   C     C_2   0.185824 0.584887 0.549040 -0.129039
C82   C     C_2   0.813323 0.590473 0.451971 -0.135915
C83   C     C_2   0.679363 0.068002 0.555017 -0.122299
C84   C     C_2   0.273854 0.194893 0.472289 -0.110393
H21   H     H_    0.130574 0.541347 0.452025 0.131816
H22   H     H_    0.869290 0.551884 0.548669 0.129949
H23   H     H_    0.617036 0.011304 0.462674 0.105924
H24   H     H_    0.335736 0.206440 0.568162 0.161354
H25   H     H_    0.145148 0.644794 0.569472 0.185713
H26   H     H_    0.853096 0.651824 0.432223 0.185959
H27   H     H_    0.639548 0.129811 0.575249 0.178536
H28   H     H_    0.289697 0.283177 0.452053 0.193901
H29   H     H_    0.278894 0.487549 0.570692 0.168861
H30   H     H_    0.722426 0.488925 0.428768 0.190490
H31   H     H_    0.775392 0.978290 0.575290 0.184513
H32   H     H_    0.233366 0.017420 0.446875 0.163120
N1    N     N_R   0.546756 0.621320 0.922441 0.109453
O53   O     O_R   0.590524 0.637869 0.870568 -0.334170
O54   O     O_R   0.531897 0.510148 0.940494 -0.222197
N2    N     N_R   0.479176 0.611583 0.064583 0.136319
O55   O     O_R   0.418451 0.609163 0.095041 -0.326214
O56   O     O_R   0.523887 0.525897 0.079376 -0.213317
N3    N     N_R   0.046534 0.121258 0.922612 0.109515
O57   O     O_R   0.090762 0.137636 0.871126 -0.339460
O58   O     O_R   0.030609 0.010148 0.939918 -0.221944
N4    N     N_R   0.979006 0.111607 0.064682 0.135950
O59   O     O_R   0.918417 0.109182 0.095430 -0.322343
O60   O     O_R   0.023718 0.025713 0.079069 -0.213592
N5    N     N_R   0.306843 0.588039 0.453831 0.079090
O61   O     O_R   0.324555 0.694000 0.479762 -0.340476
O62   O     O_R   0.348674 0.494917 0.460517 -0.290831
N6    N     N_R   0.691399 0.580298 0.546643 0.077752
O63   O     O_R   0.669263 0.684025 0.521333 -0.359802
O64   O     O_R   0.653258 0.482879 0.540013 -0.260725
N7    N     N_R   0.792664 0.051161 0.453666 0.092755
O65   O     O_R   0.809747 0.163557 0.468145 -0.318336
O66   O     O_R   0.840475 0.967217 0.447089 -0.242204
N8    N     N_R   0.173704 0.078913 0.562313 0.085805
O67   O     O_R   0.135546 0.163768 0.533072 -0.336782
O68   O     O_R   0.151346 0.966819 0.562841 -0.265002
N9    N     N_R   0.353283 0.451648 0.924998 0.099542
O69   O     O_R   0.404508 0.421739 0.967032 -0.296867
O70   O     O_R   0.350439 0.400952 0.862093 -0.321985
N10   N     N_R   0.661936 0.420302 0.080069 0.115047
O71   O     O_R   0.619547 0.356907 0.040405 -0.329561
O72   O     O_R   0.668699 0.389671 0.146740 -0.305380
N11   N     N_R   0.853048 0.951017 0.924969 0.099755
O73   O     O_R   0.904017 0.920072 0.967083 -0.298164
O74   O     O_R   0.850187 0.900869 0.861915 -0.318310
N12   N     N_R   0.161859 0.920428 0.080002 0.114861
O75   O     O_R   0.119468 0.857115 0.040295 -0.329795
O76   O     O_R   0.168578 0.889729 0.146667 -0.308650
C85   C     C_3   0.166726 0.558390 0.933889 -0.414234
H33   H     H_    0.155228 0.492253 0.976891 0.137058
H34   H     H_    0.149155 0.651181 0.950111 0.179852
H35   H     H_    0.136921 0.528047 0.886288 0.148498
C86   C     C_3   0.835195 0.565366 0.064916 -0.414782
H36   H     H_    0.848775 0.499384 0.021924 0.139665
H37   H     H_    0.849190 0.659372 0.048432 0.160947
H38   H     H_    0.866354 0.539038 0.112297 0.151436
C87   C     C_3   0.666667 0.058573 0.933880 -0.413993
H39   H     H_    0.655118 0.992453 0.976876 0.136731
H40   H     H_    0.649170 0.151401 0.950110 0.179843
H41   H     H_    0.636849 0.028316 0.886274 0.148954
C88   C     C_3   0.335187 0.065378 0.064904 -0.415116
H42   H     H_    0.348770 0.999392 0.021916 0.139839
H43   H     H_    0.349171 0.159385 0.048415 0.160606
H44   H     H_    0.366355 0.039065 0.112283 0.151845
N13   N     N_R   0.476450 0.611770 0.422830 0.169691
O77   O     O_R   0.520102 0.521442 0.431117 -0.225453
O78   O     O_R   0.432009 0.606617 0.370187 -0.253160
N14   N     N_R   0.510390 0.606174 0.569648 0.163209
O79   O     O_R   0.461894 0.524271 0.562484 -0.234420
O80   O     O_R   0.557594 0.590572 0.618875 -0.242270
N15   N     N_R   0.952656 0.124726 0.409836 0.165952
O81   O     O_R   0.986563 0.023563 0.422000 -0.222551
O82   O     O_R   0.912386 0.131241 0.353880 -0.256539
N16   N     N_R   0.968042 0.105134 0.557421 0.156001
O83   O     O_R   0.907183 0.054602 0.560660 -0.258803
O84   O     O_R   0.020281 0.052387 0.589258 -0.207667

loop_
_geom_bond_atom_site_label_1
_geom_bond_atom_site_label_2
_geom_bond_distance
_ccdc_geom_bond_type
C10   C46   1.476693 S    
Cr11  O51   1.970885 S    
O4    C12   1.274296 A    
C18   O42   1.256833 A    
N4    O59   1.300678 A    
C24   C72   1.438135 S    
O39   C19   1.281141 A    
O20   Cr12  2.073941 S    
O15   C7    1.266464 A    
C31   C32   1.416379 A    
O8    Cr4   1.945569 S    
C87   H41   1.108453 S    
Cr7   O51   1.979970 S    
C33   C34   1.396689 A    
C45   C85   1.505768 S    
O1    C9    1.275053 A    
N1    O53   1.301920 A    
N2    O55   1.300599 A    
C85   H35   1.108527 S    
C9    C45   1.475315 S    
C57   N9    1.440257 S    
C29   C30   1.416302 A    
N8    O68   1.301581 A    
C42   H6    1.081433 S    
C77   C81   1.450479 S    
C73   N5    1.427984 S    
C76   C80   1.335849 D    
C62   H17   1.079621 S    
C41   H5    1.082458 S    
C55   H11   1.087058 S    
C64   H19   1.080730 S    
O25   C21   1.265757 A    
C56   H12   1.086599 S    
O38   C18   1.278147 A    
N12   O76   1.301900 A    
C54   C58   1.485871 S    
C37   H1    1.078103 S    
N14   O80   1.302114 A    
O21   C9    1.280045 A    
C28   C32   1.422031 A    
C1    C52   1.464595 S    
O23   Cr11  1.947268 S    
N14   O79   1.301480 A    
C69   C81   1.335516 D    
C39   H3    1.078132 S    
O30   C14   1.302901 A    
C49   H13   1.085627 S    
O32   Cr4   1.928338 S    
C1    O9    1.282008 A    
O44   Cr12  2.059847 S    
O25   Cr1   2.055707 S    
C67   C68   1.475662 S    
C49   C53   1.351082 D    
C78   C82   1.447856 S    
C3    O11   1.282060 A    
O11   Cr7   2.056200 S    
C4    C49   1.461326 S    
N15   O81   1.301929 A    
N2    O56   1.298135 A    
N10   O71   1.300621 A    
N5    O62   1.300328 A    
C56   C60   1.485756 S    
C47   C59   1.356459 D    
C43   C44   1.383608 A    
C26   C30   1.422067 A    
N9    O69   1.299355 A    
O6    Cr2   1.945569 S    
C7    O19   1.277047 A    
C27   C36   1.411510 A    
C71   H31   1.084347 S    
O19   Cr11  2.073445 S    
C79   H23   1.086458 S    
N13   O77   1.302006 A    
Cr4   O52   1.996479 S    
C26   C33   1.402833 A    
O47   C23   1.283677 A    
O2    Cr2   2.046840 S    
O8    C4    1.269587 A    
C52   C56   1.355874 D    
C77   H21   1.087555 S    
O2    C10   1.274265 A    
N9    O70   1.301886 A    
O42   Cr10  2.059847 S    
C19   C63   1.457887 S    
N7    O65   1.301326 A    
O18   Cr10  2.073941 S    
C22   C70   1.444055 S    
C46   C86   1.506485 S    
C68   N16   1.442681 S    
C62   C65   1.357231 D    
C13   C76   1.450005 S    
C64   C67   1.345675 D    
O34   Cr6   2.062953 S    
C54   H10   1.086594 S    
C35   N3    1.444757 S    
C31   C39   1.420606 A    
C61   H18   1.079800 S    
C65   C66   1.479151 S    
C66   N14   1.447553 S    
C5    C26   1.474494 S    
N1    O54   1.297821 A    
O31   Cr3   1.939495 S    
C63   C68   1.368511 D    
O24   Cr12  1.939188 S    
C69   H29   1.083372 S    
O30   Cr2   1.928338 S    
C82   H26   1.086647 S    
N8    O67   1.301691 A    
O22   C10   1.287575 A    
C33   N1    1.445113 S    
O48   Cr12  1.952578 S    
C4    O12   1.275408 A    
C80   C84   1.443991 S    
O32   C16   1.272098 A    
C50   H14   1.085286 S    
C39   C41   1.390869 A    
C2    C51   1.461300 S    
C2    O10   1.275375 A    
C29   C37   1.420653 A    
N16   O84   1.299174 A    
C40   H4    1.079631 S    
O16   Cr8   1.947702 S    
N12   O75   1.300636 A    
C15   O35   1.264431 A    
C85   H33   1.109950 S    
Cr10  O50   1.979600 S    
C27   C31   1.427298 A    
C25   C29   1.427290 A    
O13   C5    1.266422 A    
O28   Cr4   2.064430 S    
O43   Cr11  2.066187 S    
O48   C24   1.284171 A    
O12   Cr8   2.068320 S    
C50   C54   1.355956 D    
C79   C83   1.466828 S    
O5    C1    1.270932 A    
C88   H42   1.110262 S    
C46   C58   1.352587 D    
O46   Cr10  1.952578 S    
C86   H36   1.110260 S    
O39   Cr7   1.939006 S    
C18   C62   1.453984 S    
C16   C73   1.444385 S    
O7    C3    1.270910 A    
N11   O73   1.299485 A    
C78   H22   1.087449 S    
O3    C11   1.274997 A    
O14   Cr6   1.947702 S    
C23   C71   1.456559 S    
O13   Cr5   1.949116 S    
C13   O33   1.274543 A    
N15   O82   1.302746 A    
O47   Cr11  1.951887 S    
Cr2   O50   1.996479 S    
C38   C44   1.388838 A    
N13   O78   1.303207 A    
O35   Cr7   2.065392 S    
Cr1   O49   1.996285 S    
C61   C66   1.360384 D    
Cr3   O51   1.996285 S    
O26   C22   1.267742 A    
N11   O74   1.301904 A    
O21   Cr9   1.947268 S    
O31   C15   1.275768 A    
O27   Cr3   2.055707 S    
C70   H30   1.082884 S    
O9    Cr5   2.056200 S    
C59   N11   1.440297 S    
O37   Cr5   1.939006 S    
C88   H43   1.110219 S    
C51   H15   1.085627 S    
C75   C79   1.344717 D    
C80   H24   1.086591 S    
C3    C50   1.464695 S    
C60   N12   1.444096 S    
C8    C27   1.478578 S    
C73   C77   1.351456 D    
C51   C55   1.351047 D    
C45   C57   1.356482 D    
O3    Cr3   2.059582 S    
C47   C87   1.505916 S    
C8    O20   1.275727 A    
C83   H27   1.086182 S    
O26   Cr2   2.064430 S    
C53   H9    1.087048 S    
C7    C28   1.474578 S    
C84   H28   1.085102 S    
C5    O17   1.277034 A    
C63   H20   1.079854 S    
O37   C17   1.278033 A    
O22   Cr10  1.939188 S    
O28   C24   1.259943 A    
N16   O83   1.296769 A    
C65   N13   1.448444 S    
O14   C6    1.269851 A    
N4    O60   1.298190 A    
C52   H16   1.085289 S    
O5    Cr1   1.936107 S    
C36   N4    1.435375 S    
C48   C60   1.352635 D    
Cr12  O52   1.979600 S    
N6    O63   1.301198 A    
O17   Cr9   2.073445 S    
C48   C88   1.506510 S    
O6    C2    1.269587 A    
O7    Cr3   1.936107 S    
O24   C12   1.287553 A    
C17   O41   1.254085 A    
C40   C42   1.388828 A    
C67   N15   1.446075 S    
C86   H38   1.107597 S    
C41   C42   1.383646 A    
C14   O34   1.300365 A    
C19   O43   1.248062 A    
O40   Cr8   1.949352 S    
C35   C36   1.396488 A    
C17   C61   1.455468 S    
C25   C34   1.411613 A    
C20   O44   1.263127 A    
O1    Cr1   2.059582 S    
C44   H8    1.081456 S    
C55   C59   1.478799 S    
C32   C40   1.418817 A    
N3    O57   1.301976 A    
Cr8   O52   1.971333 S    
N10   O72   1.301909 A    
O29   C13   1.270870 A    
C20   C64   1.450284 S    
C76   N8    1.439751 S    
C72   H32   1.084892 S    
Cr6   O50   1.971333 S    
C11   C47   1.475381 S    
O46   C22   1.280918 A    
C71   C83   1.343993 D    
Cr5   O49   1.979970 S    
C38   H2    1.079631 S    
O45   C21   1.278787 A    
C14   C75   1.444368 S    
C75   N7    1.426422 S    
C87   H40   1.109565 S    
C6    C25   1.478531 S    
O33   Cr5   2.065392 S    
C43   H7    1.082466 S    
O23   C11   1.280132 A    
O10   Cr6   2.068320 S    
C34   N2    1.435426 S    
C85   H34   1.109596 S    
C12   C48   1.476731 S    
C74   N6    1.429410 S    
N3    O58   1.298292 A    
N6    O64   1.301316 A    
C58   N10   1.444137 S    
C74   C78   1.351496 D    
O29   Cr1   1.939495 S    
C88   H44   1.107591 S    
C72   C84   1.349774 D    
C53   C57   1.478756 S    
C16   O36   1.260011 A    
O40   C20   1.269963 A    
O4    Cr4   2.046840 S    
C30   C38   1.418892 A    
C86   H37   1.110219 S    
N5    O61   1.301085 A    
C6    O18   1.275662 A    
C21   C69   1.446200 S    
C37   C43   1.390890 A    
N7    O66   1.300861 A    
O27   C23   1.264369 A    
O45   Cr9   1.951887 S    
C70   C82   1.334947 D    
O41   Cr9   2.066187 S    
O38   Cr6   1.949352 S    
O36   Cr8   2.062953 S    
C81   H25   1.086572 S    
O16   C8    1.269850 A    
Cr9   O49   1.970885 S    
O15   Cr7   1.949116 S    
C28   C35   1.402716 A    
C87   H39   1.109921 S    
C15   C74   1.444237 S    
