data_mof_unit_12202.cif
_audit_creation_date              2012-12-10T18:09:52-0500
_audit_creation_method            fapswitch 2.2
_symmetry_space_group_name_H-M    P1
_symmetry_Int_Tables_number       1
_space_group_crystal_system       triclinic
_cell_length_a                    10.633616
_cell_length_b                    12.643733
_cell_length_c                    13.111645
_cell_angle_alpha                 82.140713
_cell_angle_beta                  91.080651
_cell_angle_gamma                 102.2996
_cell_volume                      1706.10535798

loop_
_atom_site_label
_atom_site_type_symbol
_atom_type_description
_atom_site_fract_x
_atom_site_fract_y
_atom_site_fract_z
_atom_type_partial_charge
C1    C     C_R   0.476623 0.439069 0.690951 0.873625
C2    C     C_R   0.449688 0.448196 0.972912 0.089668
C3    C     C_R   0.425716 0.472233 0.867346 0.086529
C4    C     C_R   0.741765 0.500709 0.500084 0.846556
C5    C     C_R   0.457764 0.531897 0.035159 0.077970
C6    C     C_R   0.417489 0.629791 0.997299 0.176659
C7    C     C_R   0.373702 0.644593 0.896628 -0.252106
C8    C     C_R   0.378356 0.567040 0.832021 -0.202025
C9    C     C_R   0.508221 0.521496 0.133547 -0.260532
C10   C     C_R   0.459386 0.692998 0.163444 -0.210587
C11   C     C_R   0.450195 0.400407 0.800367 -0.125380
C12   C     C_3   0.121607 0.500320 0.500521 0.166809
C13   C     C_R   0.327353 0.090640 0.342014 -0.310466
C14   C     C_R   0.664993 0.800543 0.620435 0.021744
C15   C     C_R   0.719436 0.908252 0.630239 -0.257899
C16   C     C_R   0.512641 0.560996 0.308724 0.854798
C17   C     C_R   0.666911 0.990729 0.576300 -0.188390
C18   C     C_R   0.553652 0.965756 0.517924 0.011483
C19   C     C_R   0.511685 0.855697 0.501356 0.243063
C20   C     C_R   0.485111 0.044925 0.470436 -0.059221
C21   C     C_R   0.392148 0.014489 0.394198 0.196139
C22   C     C_R   0.362716 0.907652 0.371678 -0.297078
C23   C     C_3   0.063130 0.475783 0.395162 -0.405729
C24   C     C_R   0.419442 0.828978 0.426351 -0.230263
C25   C     C_R   0.498342 0.151365 0.497666 0.065931
C26   C     C_R   0.351100 0.195571 0.367643 -0.022629
C27   C     C_R   0.258261 0.499891 0.499678 0.811489
C28   C     C_3   0.908060 0.410910 0.587254 -0.135435
C29   C     C_3   0.053540 0.412502 0.587333 -0.438354
C30   C     C_3   0.919181 0.477248 0.395495 -0.430737
C31   C     C_3   0.958152 0.614887 0.520648 -0.393792
C32   C     C_3   0.878806 0.501163 0.501803 0.121548
C33   C     C_1   0.863730 0.423224 0.690399 0.161766
C34   C     C_3   0.100741 0.614130 0.520533 -0.383613
C35   C     C_1   0.569940 0.186241 0.585695 0.199523
C36   C     C_R   0.420141 0.710480 0.061503 -0.201206
C37   C     C_R   0.500831 0.596750 0.199651 -0.053464
C38   C     C_R   0.462647 0.294513 0.840689 -0.168130
C39   C     C_R   0.465674 0.264371 0.946307 -0.144455
C40   C     C_R   0.463567 0.341199 0.012223 -0.192614
H1    H     H_    0.856048 0.329555 0.569384 0.148281
H2    H     H_    0.467939 0.313747 0.093615 0.133648
H3    H     H_    0.474653 0.182413 0.977082 0.142462
H4    H     H_    0.341648 0.580963 0.754958 0.169059
H5    H     H_    0.303126 0.256003 0.327170 0.138938
H6    H     H_    0.292579 0.883922 0.313399 0.147469
H7    H     H_    0.258513 0.068969 0.282328 0.144989
H8    H     H_    0.707686 0.735729 0.659029 0.142959
H9    H     H_    0.722108 0.072521 0.576209 0.152287
H10   H     H_    0.804844 0.927974 0.676074 0.151732
H11   H     H_    0.391936 0.748238 0.406338 0.207595
H12   H     H_    0.150019 0.679231 0.459712 0.177512
H13   H     H_    0.098022 0.429717 0.662658 0.158798
H14   H     H_    0.067917 0.330374 0.575256 0.172076
H15   H     H_    0.863022 0.396862 0.378267 0.183716
H16   H     H_    0.075616 0.394334 0.379257 0.181182
H17   H     H_    0.939013 0.679417 0.459175 0.181138
H18   H     H_    0.930975 0.636318 0.595616 0.181557
H19   H     H_    0.141897 0.633887 0.596151 0.180411
H20   H     H_    0.899217 0.540699 0.333333 0.167432
H21   H     H_    0.113178 0.537908 0.332346 0.160922
H22   H     H_    0.452483 0.752031 0.214469 0.154338
H23   H     H_    0.338429 0.717099 0.867139 0.147854
H24   H     H_    0.387891 0.784946 0.033968 0.134976
H25   H     H_    0.550917 0.453015 0.161754 0.152817
H26   H     H_    0.472227 0.235373 0.790939 0.174171
N1    N     N_R   0.433240 0.222190 0.444680 -0.119981
N2    N     N_R   0.566070 0.776970 0.554790 -0.133974
N3    N     N_1   0.828754 0.432869 0.770998 -0.203054
N4    N     N_1   0.628569 0.213361 0.656391 -0.241656
O1    O     O_R   0.468120 0.366740 0.627160 -0.603525
O2    O     O_R   0.510770 0.544830 0.662520 -0.614785
O3    O     O_R   0.663880 0.410950 0.482330 -0.621610
O4    O     O_R   0.706530 0.589040 0.517700 -0.625104
O5    O     O_R   0.489230 0.455170 0.337480 -0.616995
O6    O     O_R   0.531880 0.633260 0.372840 -0.629794
O7    O     O_R   0.293470 0.410960 0.482300 -0.622503
O8    O     O_R   0.336120 0.589050 0.517670 -0.655914
Zn1   Zn    Zn3+2 0.471520 0.381090 0.476390 0.940078
Zn2   Zn    Zn3+2 0.528480 0.618910 0.523610 0.919297

loop_
_geom_bond_atom_site_label_1
_geom_bond_atom_site_label_2
_ccdc_geom_bond_type
N2    Zn2   S    
C12   C29   S    
C16   O5    A    
C25   N1    A    
C27   O8    A    
O1    Zn1   S    
C7    C8    A    
C12   C23   S    
C1    O1    A    
C10   C37   A    
C26   N1    A    
C31   H18   S    
C28   C29   S    
C38   C39   A    
O8    Zn2   S    
C20   C25   A    
C28   H1    S    
C18   C19   A    
C15   H10   S    
C23   H16   S    
C26   H5    S    
C38   H26   S    
C35   N4    T    
C30   H20   S    
C4    O4    A    
C33   N3    T    
C16   C37   S    
C24   H11   S    
C40   H2    S    
O4    Zn2   S    
C21   C22   A    
C10   H22   S    
O7    Zn1   S    
C1    O2    A    
C12   C27   S    
C23   C30   S    
O6    Zn2   S    
C28   C32   S    
N1    Zn1   S    
C3    C8    A    
C17   H9    S    
C39   C40   A    
C13   H7    S    
C39   H3    S    
C11   C38   A    
C5    C9    A    
C31   C32   S    
C9    C37   A    
C17   C18   A    
O3    Zn1   S    
C31   C34   S    
C13   C21   A    
C19   N2    A    
C7    H23   S    
C4    O3    A    
C4    C32   S    
C25   C35   S    
C22   H6    S    
C28   C33   S    
C34   H19   S    
C22   C24   A    
C13   C26   A    
C2    C5    A    
C12   C34   S    
C15   C17   A    
C16   O6    A    
C8    H4    S    
C27   O7    A    
C14   H8    S    
C6    C7    A    
C30   H15   S    
C34   H12   S    
C31   H17   S    
C19   C24   A    
O2    Zn2   S    
C30   C32   S    
C5    C6    A    
C29   H13   S    
C6    C36   A    
C2    C3    A    
C18   C20   A    
C9    H25   S    
C3    C11   A    
C2    C40   A    
C23   H21   S    
C20   C21   A    
C29   H14   S    
C14   N2    A    
C14   C15   A    
C10   C36   A    
C1    C11   S    
C36   H24   S    
O5    Zn1   S    
