data_mof_unit_24259.cif
_audit_creation_date              2012-12-10T18:00:17-0500
_audit_creation_method            fapswitch 2.2
_symmetry_space_group_name_H-M    P1
_symmetry_Int_Tables_number       1
_space_group_crystal_system       triclinic
_cell_length_a                    10.80179
_cell_length_b                    9.547383
_cell_length_c                    10.644984
_cell_angle_alpha                 89.042668
_cell_angle_beta                  90.104328
_cell_angle_gamma                 90.11594
_cell_volume                      1097.64746709

loop_
_atom_site_label
_atom_site_type_symbol
_atom_type_description
_atom_site_fract_x
_atom_site_fract_y
_atom_site_fract_z
_atom_type_partial_charge
C1    C     C_R   0.871681 0.500187 0.505890 -0.010934
C2    C     C_R   0.128336 0.500086 0.507145 -0.003157
C3    C     C_R   0.262232 0.499937 0.503146 0.762203
C4    C     C_R   0.737820 0.500065 0.501877 0.763107
C5    C     C_R   0.498105 0.501130 0.259463 0.863786
C6    C     C_R   0.503653 0.498695 0.740175 0.843349
C7    C     C_3   0.461846 0.623100 0.033644 0.458198
C8    C     C_3   0.544271 0.374427 0.964631 0.460025
C9    C     C_3   0.579119 0.598034 0.956869 0.436416
C10   C     C_3   0.426830 0.399326 0.041919 0.457973
C11   C     C_3   0.386168 0.520301 0.952677 -0.525647
C12   C     C_3   0.619850 0.477469 0.046506 -0.487964
C13   C     C_3   0.504951 0.495912 0.876158 -0.237801
C14   C     C_3   0.500334 0.502841 0.122970 -0.209767
C15   C     C_R   0.429351 0.075690 0.416061 -0.023401
C16   C     C_R   0.570153 0.924441 0.584211 -0.036673
C17   C     C_R   0.570291 0.072981 0.584142 -0.019383
C18   C     C_R   0.429463 0.927055 0.415975 -0.011220
C19   C     C_R   0.063742 0.373141 0.517833 -0.187881
C20   C     C_R   0.936288 0.627307 0.498163 -0.210338
C21   C     C_R   0.935787 0.373185 0.517168 -0.194528
C22   C     C_R   0.064185 0.627255 0.498686 -0.195281
Cu1   Cu    Cu3+1 0.500000 0.640660 0.500000 0.947297
Cu2   Cu    Cu3+1 0.500000 0.359340 0.500000 0.951371
H1    H     H_    0.372515 0.132549 0.348823 0.148664
H2    H     H_    0.626206 0.867863 0.651930 0.133485
H3    H     H_    0.626615 0.127631 0.651695 0.142926
H4    H     H_    0.372848 0.872372 0.348599 0.143750
H5    H     H_    0.293824 0.539705 0.910052 0.156757
H6    H     H_    0.712136 0.461868 0.090288 0.158962
H7    H     H_    0.111788 0.273875 0.525433 0.150477
H8    H     H_    0.888344 0.726620 0.490377 0.152652
H9    H     H_    0.887387 0.273921 0.524637 0.147529
H10   H     H_    0.112485 0.726557 0.491001 0.151187
N1    N     N_R   0.500000 0.852070 0.500000 -0.163699
N2    N     N_R   0.500000 0.147930 0.500000 -0.164548
O1    O     O_R   0.319640 0.618740 0.499990 -0.590937
O2    O     O_R   0.680360 0.381260 0.500010 -0.593883
O3    O     O_R   0.680360 0.618740 0.500010 -0.594668
O4    O     O_R   0.319640 0.381260 0.499990 -0.596902
O5    O     O_R   0.499970 0.618770 0.316850 -0.555563
O6    O     O_R   0.500030 0.381230 0.683150 -0.552470
O7    O     O_R   0.500030 0.618770 0.683150 -0.589065
O8    O     O_R   0.499970 0.381230 0.316850 -0.564427
O9    O     O_3   0.422447 0.757440 0.069800 -0.594580
C23   C     C_3   0.364369 0.823934 0.965501 0.028692
H11   H     H_    0.267074 0.786559 0.958124 0.135953
H12   H     H_    0.413317 0.802757 0.875480 0.184655
C24   C     C_3   0.363311 0.981806 0.982239 -0.268057
H13   H     H_    0.304883 0.007310 0.064367 0.212650
H14   H     H_    0.458928 0.018355 0.000901 0.263785
C25   C     C_3   0.313333 0.055857 0.864080 -0.855893
H15   H     H_    0.366217 0.024051 0.779871 0.257656
H16   H     H_    0.323059 0.170786 0.872246 0.285723
H17   H     H_    0.213962 0.029860 0.850567 0.228916
O10   O     O_3   0.576607 0.243040 0.914789 -0.607506
C26   C     C_3   0.683747 0.186959 0.972702 0.064312
H18   H     H_    0.678261 0.071223 0.964775 0.184702
H19   H     H_    0.688652 0.208408 0.075184 0.143304
C27   C     C_3   0.800856 0.237513 0.904039 -0.370238
H20   H     H_    0.788571 0.226159 0.801023 0.222891
H21   H     H_    0.817387 0.349525 0.923389 0.208719
C28   C     C_3   0.914718 0.154689 0.945950 -0.944499
H22   H     H_    0.926528 0.159917 0.049389 0.258423
H23   H     H_    0.998495 0.199395 0.899992 0.252105
H24   H     H_    0.905403 0.043568 0.918461 0.257029
O11   O     O_3   0.652881 0.710401 0.911497 -0.608245
C29   C     C_3   0.758335 0.660664 0.847424 0.081533
H25   H     H_    0.769755 0.724791 0.760322 0.154515
H26   H     H_    0.750444 0.550087 0.816564 0.105516
C30   C     C_3   0.873996 0.679594 0.928510 -0.349724
H27   H     H_    0.884274 0.791768 0.952443 0.221550
H28   H     H_    0.864021 0.618850 0.017538 0.216218
C31   C     C_3   0.990334 0.631552 0.860426 -0.946113
H29   H     H_    0.982033 0.519751 0.834302 0.261908
H30   H     H_    0.071770 0.643117 0.923148 0.251277
H31   H     H_    0.005544 0.696443 0.774267 0.266346
O12   O     O_3   0.357238 0.288381 0.096602 -0.614114
C32   C     C_3   0.228367 0.310459 0.083355 0.029824
H32   H     H_    0.181746 0.209093 0.104644 0.168954
H33   H     H_    0.201558 0.338586 0.985260 0.139664
C33   C     C_3   0.180481 0.418349 0.176348 -0.354184
H34   H     H_    0.215036 0.390278 0.271385 0.230004
H35   H     H_    0.215236 0.524470 0.150552 0.214275
C34   C     C_3   0.039270 0.421161 0.178585 -0.920195
H36   H     H_    0.002058 0.433948 0.081922 0.263948
H37   H     H_    0.007073 0.510056 0.235811 0.271227
H38   H     H_    0.002783 0.322248 0.220717 0.257094

loop_
_geom_bond_atom_site_label_1
_geom_bond_atom_site_label_2
_ccdc_geom_bond_type
C15   C18   A    
C28   H23   S    
C1    C21   A    
C8    C13   S    
Cu2   O6    S    
C19   H7    S    
C8    O10   S    
C10   O12   S    
O9    C23   S    
C7    C11   S    
C23   C24   S    
Cu2   N2    S    
C31   H30   S    
C27   C28   S    
C7    O9    S    
C19   C21   A    
C16   N1    A    
C15   H1    S    
C21   H9    S    
Cu1   O7    S    
O10   C26   S    
C27   H21   S    
C9    C13   S    
C7    C14   S    
C29   H25   S    
C24   H14   S    
C31   H31   S    
C2    C22   A    
Cu2   O2    S    
Cu1   Cu2   S    
C17   N2    A    
C18   N1    A    
C25   H17   S    
C28   H24   S    
C25   H16   S    
C34   H37   S    
C16   H2    S    
C22   H10   S    
C23   H12   S    
C31   H29   S    
O11   C29   S    
C17   H3    S    
C18   H4    S    
C10   C14   S    
C30   H28   S    
O12   C32   S    
C16   C17   A    
C26   C27   S    
C34   H36   S    
C28   H22   S    
C27   H20   S    
C9    O11   S    
C32   C33   S    
C4    O3    A    
C8    C12   S    
C24   C25   S    
C3    O1    A    
C5    C14   S    
C8    C10   S    
C5    O8    A    
C12   C14   S    
C3    O4    A    
C24   H13   S    
C33   H35   S    
C6    O7    A    
Cu2   O8    S    
C20   C22   A    
C15   N2    A    
C25   H15   S    
C32   H33   S    
C20   H8    S    
C34   H38   S    
C7    C9    S    
C5    O5    A    
C23   H11   S    
C1    C20   A    
C12   H6    S    
C2    C19   A    
C4    O2    A    
C30   C31   S    
C33   C34   S    
Cu1   N1    S    
Cu1   O5    S    
C1    C4    S    
C2    C3    S    
C30   H27   S    
Cu1   O1    S    
C6    C13   S    
C11   C13   S    
C26   H18   S    
C29   C30   S    
Cu1   O3    S    
Cu2   O4    S    
C9    C12   S    
C26   H19   S    
C10   C11   S    
C32   H32   S    
C11   H5    S    
C29   H26   S    
C33   H34   S    
C6    O6    A    
