data_mof_unit_35240.cif
_audit_creation_date              2012-12-11T14:41:04-0500
_audit_creation_method            fapswitch 2.2
_symmetry_space_group_name_H-M    P1
_symmetry_Int_Tables_number       1
_space_group_crystal_system       triclinic
_cell_length_a                    6.940698
_cell_length_b                    17.815161
_cell_length_c                    18.945307
_cell_angle_alpha                 89.999917
_cell_angle_beta                  89.999877
_cell_angle_gamma                 90.000042
_cell_volume                      2342.58062368

loop_
_atom_site_label
_atom_site_type_symbol
_atom_type_description
_atom_site_fract_x
_atom_site_fract_y
_atom_site_fract_z
_atom_type_partial_charge
O1    O     O_R   0.377350 0.828520 0.186660 -0.538425
O2    O     O_R   0.622650 0.171480 0.813340 -0.538425
O3    O     O_R   0.122650 0.171480 0.686660 -0.538426
O4    O     O_R   0.877350 0.828520 0.313340 -0.538426
O5    O     O_R   0.877350 0.671480 0.313340 -0.538424
O6    O     O_R   0.122650 0.328520 0.686660 -0.538424
O7    O     O_R   0.622650 0.328520 0.813340 -0.538426
O8    O     O_R   0.377350 0.671480 0.186660 -0.538426
O9    O     O_R   0.707090 0.671930 0.178410 -0.541988
O10   O     O_R   0.292910 0.328070 0.821590 -0.541988
O11   O     O_R   0.792910 0.328070 0.678410 -0.541984
O12   O     O_R   0.207090 0.671930 0.321590 -0.541984
O13   O     O_R   0.207090 0.828070 0.321590 -0.541987
O14   O     O_R   0.792910 0.171930 0.678410 -0.541988
O15   O     O_R   0.292910 0.171930 0.821590 -0.541987
O16   O     O_R   0.707090 0.828070 0.178410 -0.541987
C1    C     C_R   0.540014 0.645673 0.161349 0.701209
C2    C     C_R   0.459985 0.354327 0.838650 0.701209
C3    C     C_R   0.959986 0.354327 0.661350 0.701208
C4    C     C_R   0.040013 0.645673 0.338650 0.701208
C5    C     C_R   0.040014 0.854327 0.338650 0.701207
C6    C     C_R   0.959986 0.145673 0.661350 0.701207
C7    C     C_R   0.459986 0.145673 0.838650 0.701209
C8    C     C_R   0.540014 0.854327 0.161350 0.701209
O17   O     O_3   0.543850 0.750000 0.294270 -0.368173
O18   O     O_3   0.456150 0.250000 0.705730 -0.368173
O19   O     O_3   0.956150 0.250000 0.794270 -0.368174
O20   O     O_3   0.043850 0.750000 0.205730 -0.368174
V1    V     V_3+5 0.818700 0.750000 0.241790 1.400344
V2    V     V_3+5 0.181300 0.250000 0.758210 1.400344
V3    V     V_3+5 0.681300 0.250000 0.741790 1.400345
V4    V     V_3+5 0.318700 0.750000 0.258210 1.400345
C9    C     C_R   0.955528 0.415352 0.607463 -0.069652
C10   C     C_R   0.044472 0.584648 0.392537 -0.069652
C11   C     C_R   0.544480 0.584650 0.107460 -0.069654
C12   C     C_R   0.455520 0.415350 0.892540 -0.069654
C13   C     C_R   0.455524 0.084649 0.892538 -0.069654
C14   C     C_R   0.544476 0.915351 0.107462 -0.069654
C15   C     C_R   0.044477 0.915351 0.392539 -0.069654
C16   C     C_R   0.955522 0.084649 0.607461 -0.069654
C17   C     C_R   0.235157 0.489907 0.455055 -0.199952
C18   C     C_R   0.764843 0.510093 0.544945 -0.199952
C19   C     C_R   0.264805 0.510069 0.955076 -0.199974
C20   C     C_R   0.735195 0.489931 0.044924 -0.199974
C21   C     C_R   0.735176 0.010079 0.044931 -0.199965
C22   C     C_R   0.264824 0.989921 0.955068 -0.199966
C23   C     C_R   0.764812 0.989927 0.544927 -0.199970
C24   C     C_R   0.235188 0.010073 0.455073 -0.199970
C25   C     C_R   0.214496 0.541874 0.400353 -0.161223
C26   C     C_R   0.785504 0.458126 0.599647 -0.161223
C27   C     C_R   0.285470 0.458107 0.900371 -0.161218
C28   C     C_R   0.714530 0.541893 0.099629 -0.161218
C29   C     C_R   0.714513 0.958115 0.099636 -0.161222
C30   C     C_R   0.285487 0.041885 0.900364 -0.161222
C31   C     C_R   0.785475 0.041890 0.599632 -0.161218
C32   C     C_R   0.214525 0.958110 0.400368 -0.161218
C33   C     C_R   0.892662 0.572778 0.440317 -0.240963
C34   C     C_R   0.107338 0.427221 0.559683 -0.240963
C35   C     C_R   0.607354 0.427235 0.940306 -0.240968
C36   C     C_R   0.392646 0.572765 0.059694 -0.240968
C37   C     C_R   0.392654 0.927230 0.059690 -0.240966
C38   C     C_R   0.607346 0.072770 0.940310 -0.240966
C39   C     C_R   0.107352 0.072767 0.559693 -0.240969
C40   C     C_R   0.892648 0.927233 0.440307 -0.240969
C41   C     C_R   0.913475 0.520772 0.496148 0.160265
C42   C     C_R   0.086525 0.479228 0.503852 0.160265
C43   C     C_R   0.586538 0.479237 0.996140 0.160277
C44   C     C_R   0.413462 0.520763 0.003860 0.160277
C45   C     C_R   0.413468 0.979234 0.003857 0.160273
C46   C     C_R   0.586532 0.020766 0.996143 0.160273
C47   C     C_R   0.086536 0.020764 0.503859 0.160275
C48   C     C_R   0.913464 0.979236 0.496141 0.160275
H1    H     H_    0.665770 0.450684 0.635656 0.128708
H2    H     H_    0.334230 0.549316 0.364344 0.128708
H3    H     H_    0.834284 0.549346 0.135628 0.128714
H4    H     H_    0.165716 0.450654 0.864372 0.128714
H5    H     H_    0.165743 0.049333 0.864361 0.128713
H6    H     H_    0.834257 0.950667 0.135638 0.128712
H7    H     H_    0.334276 0.950659 0.364368 0.128713
H8    H     H_    0.665724 0.049341 0.635632 0.128713
H9    H     H_    0.368502 0.458611 0.459533 0.122785
H10   H     H_    0.631498 0.541388 0.540467 0.122785
H11   H     H_    0.131439 0.541349 0.959567 0.122778
H12   H     H_    0.868561 0.458651 0.040433 0.122778
H13   H     H_    0.868531 0.041366 0.040445 0.122782
H14   H     H_    0.131468 0.958634 0.959555 0.122782
H15   H     H_    0.631450 0.958643 0.540439 0.122779
H16   H     H_    0.368550 0.041357 0.459561 0.122779
H17   H     H_    0.238295 0.394442 0.564454 0.123158
H18   H     H_    0.761705 0.605558 0.435546 0.123158
H19   H     H_    0.261667 0.605529 0.064477 0.123159
H20   H     H_    0.738333 0.394471 0.935523 0.123159
H21   H     H_    0.738315 0.105540 0.935530 0.123160
H22   H     H_    0.261685 0.894460 0.064470 0.123160
H23   H     H_    0.761671 0.894466 0.435526 0.123158
H24   H     H_    0.238328 0.105534 0.564474 0.123158

loop_
_geom_bond_atom_site_label_1
_geom_bond_atom_site_label_2
_ccdc_geom_bond_type
C9    C34   A    
C31   H8    S    
C19   H11   S    
O13   V4    S    
C18   H10   S    
O14   V3    S    
C12   C35   A    
C19   C27   A    
C13   C38   A    
O5    C4    A    
C15   C40   A    
O11   C3    A    
C32   H7    S    
O20   V1    S    
C38   C46   A    
C22   C45   A    
C35   C43   A    
C34   C42   A    
C19   C44   A    
C18   C41   A    
C8    C14   S    
C24   H16   S    
O4    V1    S    
O11   V3    S    
O9    V1    S    
C14   C37   A    
C4    C10   S    
C20   C28   A    
O17   V4    S    
O15   C7    A    
C6    C16   S    
O18   V3    S    
O16   C8    A    
O12   V4    S    
O19   V2    S    
C22   C30   A    
C17   C25   A    
O5    V1    S    
O17   V1    S    
O7    V3    S    
C33   H18   S    
C20   C43   A    
O19   V3    S    
C43   C44   A    
O8    V4    S    
O20   V4    S    
C27   H4    S    
C3    C9    S    
C26   H1    S    
C37   H22   S    
C9    C26   A    
C7    C13   S    
C39   H24   S    
O1    V4    S    
O2    V3    S    
C23   H15   S    
O3    V2    S    
C21   H13   S    
O6    C3    A    
C10   C33   A    
O10   V2    S    
C15   C32   A    
C5    C15   S    
O7    C2    A    
C17   H9    S    
O12   C4    A    
O13   C5    A    
C16   C39   A    
C12   C27   A    
C18   C26   A    
C13   C30   A    
O9    C1    A    
O6    V2    S    
C39   C47   A    
O18   V2    S    
C24   C47   A    
C11   C28   A    
O15   V2    S    
C23   C31   A    
C36   H19   S    
C37   C45   A    
C24   C32   A    
C10   C25   A    
C21   C46   A    
C40   H23   S    
C33   C41   A    
C20   H12   S    
C16   C31   A    
C17   C42   A    
O8    C1    A    
C30   H5    S    
C29   H6    S    
O16   V1    S    
C47   C48   A    
O4    C5    A    
O14   C6    A    
C14   C29   A    
O10   C2    A    
C35   H20   S    
C40   C48   A    
C45   C46   A    
C34   H17   S    
C23   C48   A    
C28   H3    S    
C21   C29   A    
C36   C44   A    
O1    C8    A    
C41   C42   A    
C38   H21   S    
O2    C7    A    
C25   H2    S    
C11   C36   A    
O3    C6    A    
C1    C11   S    
C2    C12   S    
C22   H14   S    
