data_mof_unit_41130.cif
_audit_creation_date              2012-12-10T20:49:46-0500
_audit_creation_method            fapswitch 2.2
_symmetry_space_group_name_H-M    P1
_symmetry_Int_Tables_number       1
_space_group_crystal_system       triclinic
_cell_length_a                    8.095197
_cell_length_b                    8.921878
_cell_length_c                    16.855938
_cell_angle_alpha                 90.011987
_cell_angle_beta                  85.373374
_cell_angle_gamma                 90.001218
_cell_volume                      1213.4423815

loop_
_atom_site_label
_atom_site_type_symbol
_atom_type_description
_atom_site_fract_x
_atom_site_fract_y
_atom_site_fract_z
_atom_type_partial_charge
C1    C     C_R   0.500000 0.782061 0.500004 0.951170
C2    C     C_R   0.420311 0.347032 0.233615 -0.024583
C3    C     C_R   0.560494 0.305818 0.845882 -0.202096
C4    C     C_R   0.439291 0.305921 0.154058 -0.202118
C5    C     C_R   0.431591 0.365884 0.896198 0.187555
C6    C     C_R   0.568232 0.365910 0.103751 0.187586
C7    C     C_R   0.312498 0.458222 0.865692 -0.167779
C8    C     C_R   0.687382 0.458200 0.134272 -0.167806
C9    C     C_R   0.328845 0.499138 0.785994 -0.242748
C10   C     C_R   0.671095 0.499098 0.213985 -0.242926
C11   C     C_2   0.428997 0.345438 0.981953 -0.230283
C12   C     C_R   0.499997 0.217971 0.500015 0.935230
C13   C     C_2   0.570819 0.345413 0.017994 -0.230289
C14   C     C_R   0.717031 0.276830 0.716467 0.133495
C15   C     C_R   0.878874 0.332970 0.717398 -0.135613
C16   C     C_R   0.009938 0.262154 0.673006 -0.125274
C17   C     C_R   0.980414 0.135246 0.627654 -0.113757
C18   C     C_R   0.819925 0.077634 0.627500 -0.119474
C19   C     C_R   0.688431 0.147829 0.671993 -0.136742
C20   C     C_R   0.282690 0.277050 0.283448 0.133475
C21   C     C_R   0.120780 0.332878 0.282194 -0.136249
C22   C     C_R   0.989623 0.262175 0.326559 -0.125091
C23   C     C_1   0.499999 0.934818 0.500012 -0.252614
C24   C     C_R   0.019120 0.135681 0.372203 -0.113828
C25   C     C_R   0.179679 0.078360 0.372674 -0.119328
C26   C     C_R   0.311267 0.148441 0.328205 -0.135918
C27   C     C_1   0.499996 0.065219 0.500017 -0.241467
C28   C     C_R   0.477880 0.491221 0.653111 0.853146
C29   C     C_R   0.522112 0.491207 0.346884 0.853115
C30   C     C_R   0.464652 0.448165 0.736508 -0.077858
C31   C     C_R   0.535294 0.448152 0.263471 -0.077975
C32   C     C_R   0.579527 0.346941 0.766334 -0.024704
H1    H     H_    0.211156 0.503779 0.904232 0.126732
H2    H     H_    0.134578 0.304701 0.674281 0.160565
H3    H     H_    0.082068 0.080821 0.593240 0.138749
H4    H     H_    0.797666 0.978207 0.593168 0.144251
H5    H     H_    0.564729 0.101528 0.672170 0.112091
H6    H     H_    0.096301 0.430320 0.246651 0.122900
H7    H     H_    0.864929 0.304475 0.325034 0.160377
H8    H     H_    0.917393 0.081341 0.406596 0.138881
H9    H     H_    0.201922 0.979251 0.407235 0.144161
H10   H     H_    0.435031 0.102355 0.328263 0.111766
H11   H     H_    0.788724 0.503732 0.095734 0.126738
H12   H     H_    0.762375 0.573189 0.236649 0.152483
H13   H     H_    0.237607 0.573262 0.763340 0.152404
H14   H     H_    0.689671 0.354980 0.983485 0.146669
H15   H     H_    0.310153 0.355111 0.016463 0.146646
H16   H     H_    0.351611 0.228339 0.131151 0.137445
H17   H     H_    0.648109 0.228181 0.868773 0.137462
H18   H     H_    0.903375 0.430751 0.752706 0.122815
N1    N     N_1   0.926360 0.500000 0.499990 -0.033338
N2    N     N_1   0.073640 0.500000 0.500010 -0.033412
O1    O     O_R   0.363150 0.714660 0.500000 -0.620396
O2    O     O_R   0.636850 0.285340 0.500000 -0.613842
O3    O     O_R   0.636850 0.714660 0.500000 -0.620442
O4    O     O_R   0.363150 0.285340 0.500000 -0.614050
O5    O     O_R   0.346950 0.500000 0.615800 -0.635403
O6    O     O_R   0.653050 0.500000 0.384200 -0.635209
O7    O     O_R   0.620700 0.500000 0.615800 -0.604405
O8    O     O_R   0.379300 0.500000 0.384200 -0.604261
Zn1   Zn    Zn3+2 0.317220 0.500000 0.500010 0.971640
Zn2   Zn    Zn3+2 0.682780 0.500000 0.499990 0.971730

loop_
_geom_bond_atom_site_label_1
_geom_bond_atom_site_label_2
_ccdc_geom_bond_type
O6    Zn2   S    
C2    C4    A    
C24   C25   A    
C8    H11   S    
C9    H13   S    
C23   C27   T    
C7    H1    S    
C11   H15   S    
C29   O8    A    
C21   C22   A    
C1    C23   S    
C28   C30   S    
C17   C18   A    
C3    H17   S    
C29   C31   S    
C28   O5    A    
C29   O6    A    
C6    C13   S    
C30   C32   A    
C11   C13   D    
C12   O4    A    
N1    Zn2   S    
C20   C26   A    
C9    C30   A    
C22   H7    S    
C10   C31   A    
C4    C6    A    
O2    Zn2   S    
C24   H8    S    
C5    C11   S    
C5    C7    A    
N2    Zn1   S    
C2    C31   A    
C1    O3    A    
C3    C32   A    
C22   C24   A    
C28   O7    A    
C12   C27   S    
C10   H12   S    
C15   C16   A    
O3    Zn2   S    
O5    Zn1   S    
C17   H3    S    
C20   C21   A    
C26   H10   S    
O1    Zn1   S    
C8    C10   A    
C18   C19   A    
C4    H16   S    
C15   H18   S    
C25   H9    S    
C13   H14   S    
C7    C9    A    
C2    C20   S    
C1    O1    A    
O4    Zn1   S    
C16   C17   A    
O7    Zn2   S    
C6    C8    A    
C19   H5    S    
C16   H2    S    
C25   C26   A    
C14   C15   A    
C18   H4    S    
C14   C19   A    
C12   O2    A    
C21   H6    S    
N1    N2    T    
C14   C32   S    
O8    Zn1   S    
C3    C5    A    
