data_mof_unit_59692.cif
_audit_creation_date              2012-12-10T18:31:51-0500
_audit_creation_method            fapswitch 2.2
_symmetry_space_group_name_H-M    P1
_symmetry_Int_Tables_number       1
_space_group_crystal_system       triclinic
_cell_length_a                    10.78153
_cell_length_b                    15.128785
_cell_length_c                    15.483266
_cell_angle_alpha                 81.483273
_cell_angle_beta                  92.766963
_cell_angle_gamma                 103.779805
_cell_volume                      2425.53975017

loop_
_atom_site_label
_atom_site_type_symbol
_atom_type_description
_atom_site_fract_x
_atom_site_fract_y
_atom_site_fract_z
_atom_type_partial_charge
C1    C     C_R   0.482102 0.442777 0.662502 0.916152
C2    C     C_3   0.119815 0.493818 0.503658 -0.049975
C3    C     C_3   0.082123 0.546807 0.414877 -0.262753
C4    C     C_3   0.093781 0.547923 0.577079 -0.447161
C5    C     C_R   0.500142 0.413302 0.756319 -0.126255
C6    C     C_R   0.546935 0.594077 0.244169 -0.117851
C7    C     C_R   0.628126 0.334571 0.861237 -0.042675
C8    C     C_R   0.564714 0.343749 0.781089 -0.215425
C9    C     C_R   0.488515 0.471205 0.817230 -0.079447
C10   C     C_R   0.568976 0.473564 0.892356 0.045532
C11   C     C_R   0.633107 0.401075 0.917135 0.084850
C12   C     C_R   0.741372 0.499683 0.501436 0.846129
C13   C     C_R   0.582401 0.543421 0.946387 0.102746
C14   C     C_R   0.622728 0.525189 0.033220 0.077413
C15   C     C_R   0.691037 0.456681 0.055593 -0.187148
C16   C     C_R   0.696771 0.395777 0.998324 -0.143289
C17   C     C_R   0.561354 0.631640 0.916763 -0.171637
C18   C     C_R   0.563628 0.693708 0.975653 -0.191054
C19   C     C_R   0.573165 0.665016 0.065522 0.155689
C20   C     C_R   0.592937 0.576503 0.095143 0.031917
C21   C     C_R   0.557577 0.721303 0.126048 -0.192210
C22   C     C_R   0.549208 0.687053 0.214778 -0.106901
C23   C     C_R   0.522255 0.557835 0.337634 0.968598
C24   C     C_R   0.566870 0.537532 0.183161 -0.093051
C25   C     C_R   0.705535 0.835266 0.639914 -0.287788
C26   C     C_R   0.666677 0.748459 0.614649 0.027106
C27   C     C_R   0.517091 0.798117 0.512308 0.034071
C28   C     C_R   0.565892 0.890303 0.527214 -0.055257
C29   C     C_R   0.654433 0.906574 0.596525 0.156216
C30   C     C_R   0.529641 0.966231 0.476201 0.094686
C31   C     C_R   0.550869 0.051942 0.508522 0.086998
C32   C     C_R   0.639023 0.064779 0.579154 -0.145923
C33   C     C_R   0.691953 0.994102 0.620690 -0.169714
C34   C     C_R   0.257907 0.497338 0.503463 0.876525
C35   C     C_R   0.484937 0.961154 0.390070 -0.196770
C36   C     C_R   0.435963 0.030197 0.343912 -0.156530
C37   C     C_R   0.431644 0.107125 0.381896 0.128096
C38   C     C_R   0.489916 0.121622 0.463954 -0.057625
C39   C     C_R   0.367085 0.168627 0.337337 -0.313869
C40   C     C_R   0.361271 0.248010 0.370438 0.015566
C41   C     C_R   0.481363 0.203980 0.496204 0.072776
C42   C     C_3   0.892473 0.394274 0.514084 -0.267824
C43   C     C_3   0.034912 0.392780 0.528386 -0.281611
C44   C     C_3   0.939808 0.551672 0.414494 -0.267268
C45   C     C_3   0.949504 0.545522 0.580296 -0.186718
C46   C     C_3   0.877626 0.497881 0.502371 -0.104834
H1    H     H_    0.141635 0.617886 0.412351 0.181867
H2    H     H_    0.843536 0.359405 0.575638 0.204505
H3    H     H_    0.740209 0.449792 0.117927 0.191993
H4    H     H_    0.761739 0.007949 0.672737 0.167207
H5    H     H_    0.708541 0.693358 0.645726 0.180281
H6    H     H_    0.678366 0.130006 0.600096 0.213813
H7    H     H_    0.320876 0.153899 0.275571 0.213731
H8    H     H_    0.940721 0.617955 0.571612 0.203704
H9    H     H_    0.129269 0.518896 0.641059 0.209003
N1    N     N_R   0.573860 0.731700 0.552730 -0.136837
N2    N     N_R   0.426060 0.268290 0.447230 -0.169346
O1    O     O_R   0.462770 0.383110 0.605620 -0.598805
O2    O     O_R   0.510160 0.531900 0.639510 -0.572193
O3    O     O_R   0.661510 0.425600 0.483070 -0.585064
O4    O     O_R   0.708900 0.574390 0.516960 -0.619806
O5    O     O_R   0.489840 0.468100 0.360490 -0.576166
O6    O     O_R   0.537230 0.616890 0.394380 -0.562904
O7    O     O_R   0.291100 0.425610 0.483040 -0.581222
O8    O     O_R   0.338490 0.574400 0.516930 -0.591917
Zn1   Zn    Zn3+2 0.468350 0.400660 0.477370 1.055152
Zn2   Zn    Zn3+2 0.531650 0.599340 0.522630 1.036183
C47   C     C_2   0.826948 0.333234 0.446471 1.077511
O9    O     O_2   0.809212 0.364726 0.371090 -0.552735
O10   O     O_R   0.792385 0.238219 0.471198 -0.822215
H10   H     H_    0.755724 0.203967 0.420726 0.344133
H11   H     H_    0.147891 0.620950 0.565125 0.250124
C48   C     C_2   0.925238 0.650547 0.394175 0.900952
O11   O     O_2   0.848882 0.669870 0.337704 -0.623066
O12   O     O_R   0.000070 0.719742 0.437791 -0.782325
H12   H     H_    0.980952 0.782060 0.417699 0.361389
H13   H     H_    0.745435 0.341933 0.021083 0.200629
C49   C     C_2   0.537902 0.435807 0.205081 0.896847
O13   O     O_2   0.449666 0.388915 0.167445 -0.603926
O14   O     O_R   0.616516 0.393853 0.263259 -0.747736
H14   H     H_    0.590479 0.324313 0.269106 0.347906
H15   H     H_    0.536776 0.732427 0.259759 0.205026
H16   H     H_    0.548888 0.761458 0.951474 0.159479
C50   C     C_2   0.694784 0.258232 0.880178 0.888153
O15   O     O_2   0.640387 0.181293 0.865060 -0.615396
O16   O     O_R   0.821176 0.274684 0.910848 -0.801875
H17   H     H_    0.855919 0.217289 0.919576 0.365816
H18   H     H_    0.574111 0.299743 0.735766 0.213961
C51   C     C_2   0.375139 0.512467 0.812351 0.885970
O17   O     O_2   0.308398 0.500012 0.876758 -0.572790
O18   O     O_R   0.345423 0.566403 0.736578 -0.802190
H19   H     H_    0.270420 0.593917 0.744548 0.343521
H20   H     H_    0.547175 0.654019 0.848098 0.159501
H21   H     H_    0.548287 0.790964 0.104621 0.152452
C52   C     C_2   0.515746 0.215642 0.586049 0.913413
O19   O     O_2   0.614884 0.269479 0.601939 -0.662577
O20   O     O_R   0.441373 0.157632 0.652774 -0.785837
H22   H     H_    0.483330 0.159644 0.712510 0.358754
C53   C     C_2   0.280255 0.304435 0.318505 1.043737
O21   O     O_2   0.275150 0.378759 0.335962 -0.564168
O22   O     O_R   0.205678 0.271022 0.248422 -0.770803
H23   H     H_    0.154453 0.315252 0.218329 0.384639
H24   H     H_    0.398114 0.022088 0.278619 0.156390
H25   H     H_    0.776270 0.846873 0.691708 0.164101
C54   C     C_2   0.394794 0.770589 0.465244 0.921740
O23   O     O_2   0.297809 0.785188 0.492126 -0.604890
O24   O     O_R   0.391669 0.734568 0.387155 -0.802041
H26   H     H_    0.306858 0.730353 0.355077 0.350824
H27   H     H_    0.048018 0.376455 0.600286 0.199665
H28   H     H_    0.491244 0.905048 0.356150 0.159057
C55   C     C_2   0.071437 0.311322 0.497101 1.001885
O25   O     O_2   0.058269 0.299250 0.420713 -0.560776
O26   O     O_R   0.119448 0.248947 0.557539 -0.778239
H29   H     H_    0.141395 0.198142 0.529635 0.346348
H30   H     H_    0.888506 0.518780 0.359828 0.210738
C56   C     C_2   0.117300 0.515173 0.332941 0.974504
O27   O     O_2   0.050510 0.447701 0.305424 -0.529633
O28   O     O_R   0.224924 0.566577 0.286399 -0.816523
H31   H     H_    0.238406 0.540269 0.231984 0.360268
C57   C     C_2   0.893258 0.503727 0.669434 0.891455
O29   O     O_2   0.826574 0.542982 0.704282 -0.638254
O30   O     O_R   0.919513 0.422304 0.712894 -0.796647
H32   H     H_    0.878931 0.403767 0.772451 0.378071

loop_
_geom_bond_atom_site_label_1
_geom_bond_atom_site_label_2
_ccdc_geom_bond_type
O22   H23   S    
C48   O11   D    
C52   O19   D    
C4    H11   S    
N2    Zn1   S    
C27   N1    A    
C40   C53   S    
O20   H22   S    
C7    C8    A    
C41   C52   S    
C45   C46   S    
C7    C11   A    
C54   O24   S    
C30   C35   A    
C36   H24   S    
C1    C5    S    
C22   H15   S    
C36   C37   A    
C19   C21   A    
C50   O16   S    
C18   C19   A    
C3    C56   S    
C1    O2    A    
C30   C31   A    
C49   O14   S    
C21   H21   S    
C27   C54   S    
C15   C16   A    
C6    C22   A    
C29   C33   A    
C56   O27   D    
C16   H13   S    
C42   C46   S    
C20   C24   A    
O28   H31   S    
C32   H6    S    
O2    Zn2   S    
O1    Zn1   S    
C23   O5    A    
C55   O25   D    
C44   H30   S    
C57   O30   S    
C47   O9    D    
O8    Zn2   S    
O24   H26   S    
O10   H10   S    
C51   O18   S    
C9    C10   A    
C2    C34   S    
C23   O6    A    
C7    C50   S    
O3    Zn1   S    
C21   C22   A    
C42   C47   S    
C48   O12   S    
C43   C55   S    
C34   O8    A    
C44   C46   S    
C17   C18   A    
C4    C45   S    
C25   C29   A    
O6    Zn2   S    
C3    C44   S    
O5    Zn1   S    
C14   C20   A    
C50   O15   D    
C38   C41   A    
C12   C46   S    
C9    C51   S    
O18   H19   S    
C49   O13   D    
C33   H4    S    
C8    H18   S    
C35   C36   A    
O7    Zn1   S    
C2    C4    S    
O12   H12   S    
C5    C9    A    
C37   C38   A    
C11   C16   A    
O4    Zn2   S    
C31   C32   A    
C2    C43   S    
C6    C24   A    
C34   O7    A    
C18   H16   S    
C55   O26   S    
C42   H2    S    
C35   H28   S    
C45   C57   S    
C24   C49   S    
C53   O22   S    
C45   H8    S    
C4    H9    S    
C17   H20   S    
C42   C43   S    
C39   C40   A    
C57   O29   D    
O26   H29   S    
C28   C29   A    
C40   N2    A    
O16   H17   S    
O14   H14   S    
C10   C13   A    
C26   N1    A    
C5    C8    A    
C52   O20   S    
C25   H25   S    
N1    Zn2   S    
C54   O23   D    
C26   H5    S    
C31   C38   A    
C13   C17   A    
C32   C33   A    
C19   C20   A    
C28   C30   A    
C2    C3    S    
C25   C26   A    
C41   N2    A    
C37   C39   A    
C53   O21   D    
C12   O4    A    
C39   H7    S    
C6    C23   S    
C3    H1    S    
C56   O28   S    
C15   H3    S    
C44   C48   S    
C10   C11   A    
C12   O3    A    
C1    O1    A    
C47   O10   S    
C27   C28   A    
O30   H32   S    
C14   C15   A    
C43   H27   S    
C51   O17   D    
C13   C14   A    
