data_mof_unit_35642.cif
_audit_creation_date              2012-10-26T18:57:20-0400
_audit_creation_method            fapswitch 2.2
_symmetry_space_group_name_H-M    P1
_symmetry_Int_Tables_number       1
_space_group_crystal_system       triclinic
_cell_length_a                    15.185842
_cell_length_b                    13.939733
_cell_length_c                    15.007803
_cell_angle_alpha                 90.152662
_cell_angle_beta                  91.104776
_cell_angle_gamma                 90.465945
_cell_volume                      3176.24228683

loop_
_atom_site_label
_atom_site_type_symbol
_atom_type_description
_atom_site_fract_x
_atom_site_fract_y
_atom_site_fract_z
_atom_type_partial_charge
C1    C     C_R   0.329513 0.499645 0.500851 0.551019
C2    C     C_R   0.807876 0.430083 0.441561 0.227383
C3    C     C_R   0.817384 0.568719 0.542965 0.211844
C4    C     C_R   0.184728 0.410272 0.501210 0.198476
C5    C     C_R   0.231865 0.498699 0.499683 0.010810
C6    C     C_R   0.766590 0.500060 0.494642 0.027904
C7    C     C_R   0.047012 0.495009 0.485148 -0.048449
C8    C     C_R   0.950525 0.495062 0.487618 -0.049616
C9    C     C_R   0.516926 0.107310 0.577682 0.197889
C10   C     C_R   0.432363 0.892285 0.458343 0.181484
C11   C     C_R   0.488567 0.107452 0.419842 0.187193
C12   C     C_R   0.669996 0.500291 0.499137 0.596216
C13   C     C_R   0.571697 0.892342 0.537324 0.190726
C14   C     C_R   0.527420 0.208286 0.574010 0.353121
C15   C     C_R   0.437416 0.790663 0.451708 0.362863
C16   C     C_R   0.473765 0.207733 0.425221 0.359715
C17   C     C_R   0.561943 0.791892 0.548898 0.358616
C18   C     C_R   0.503341 0.054245 0.498294 0.033784
C19   C     C_R   0.502969 0.945296 0.497198 0.045317
C20   C     C_R   0.502690 0.500005 0.329093 0.570134
C21   C     C_R   0.498189 0.499851 0.670867 0.553733
C22   C     C_R   0.576738 0.509730 0.813424 -0.181127
C23   C     C_R   0.348102 0.452328 0.047833 -0.116600
C24   C     C_R   0.427724 0.477579 0.185921 -0.170219
C25   C     C_R   0.497157 0.498601 0.767168 0.006627
C26   C     C_R   0.504946 0.499892 0.232621 0.006927
C27   C     C_R   0.418511 0.480864 0.812326 0.254516
C28   C     C_R   0.583125 0.521549 0.187858 0.267321
C29   C     C_R   0.420669 0.473906 0.906266 0.036988
C30   C     C_R   0.584647 0.514393 0.093615 0.040667
C31   C     C_R   0.501307 0.492496 0.953023 -0.032883
C32   C     C_R   0.504284 0.493938 0.046732 -0.035194
C33   C     C_R   0.579241 0.508671 0.906012 -0.040967
C34   C     C_R   0.659317 0.521875 0.951625 -0.125799
C35   C     C_R   0.426407 0.475135 0.093563 -0.037315
C36   C     C_R   0.344990 0.448940 0.955012 0.271612
C37   C     C_R   0.663396 0.527092 0.045265 0.286324
C38   C     C_3   0.301052 0.558801 0.750506 0.007974
C39   C     C_3   0.201872 0.545959 0.738420 -0.354270
C40   C     C_3   0.664104 0.646504 0.243323 0.016495
C41   C     C_3   0.745270 0.673418 0.298802 -0.354511
C42   C     C_3   0.263448 0.322604 0.904266 0.020442
C43   C     C_3   0.178252 0.293580 0.856198 -0.374199
C44   C     C_3   0.800953 0.604195 0.056467 -0.010850
C45   C     C_R   0.092733 0.582263 0.484018 -0.138365
C46   C     C_3   0.882743 0.557979 0.018430 -0.375660
C47   C     C_3   0.183262 0.742020 0.556886 0.012203
C48   C     C_3   0.248109 0.799365 0.614811 -0.327674
C49   C     C_3   0.787161 0.273682 0.391223 -0.016390
C50   C     C_3   0.711824 0.205204 0.367615 -0.305944
C51   C     C_3   0.818021 0.728818 0.594112 0.032652
C52   C     C_3   0.821322 0.774471 0.501657 -0.357877
C53   C     C_3   0.226814 0.294734 0.599142 -0.018112
C54   C     C_3   0.270554 0.197431 0.608141 -0.336883
C55   C     C_3   0.655669 0.244280 0.647060 0.027883
C56   C     C_R   0.900174 0.431122 0.435914 -0.128268
C57   C     C_3   0.698495 0.317844 0.709412 -0.360863
C58   C     C_3   0.383086 0.751426 0.313297 0.038320
C59   C     C_3   0.315904 0.688025 0.264479 -0.349525
C60   C     C_3   0.344727 0.222332 0.346218 0.043183
C61   C     C_3   0.290595 0.296000 0.295367 -0.352707
C62   C     C_3   0.585777 0.769092 0.697567 0.026162
C63   C     C_3   0.654944 0.740338 0.767103 -0.368261
C64   C     C_R   0.909314 0.560174 0.543441 -0.134532
C65   C     C_R   0.093098 0.409418 0.492883 -0.122095
C66   C     C_R   0.184371 0.586025 0.497725 0.219997
Cl1   Cl    Cl    0.516033 0.051508 0.683175 -0.598488
Cl2   Cl    Cl    0.333666 0.950283 0.425483 -0.645612
Cl3   Cl    Cl    0.493732 0.052087 0.313968 -0.598176
Cl4   Cl    Cl    0.670953 0.948807 0.572912 -0.657049
Cu1   Cu    Cu3+1 0.500000 0.596430 0.500000 1.047114
Cu2   Cu    Cu3+1 0.500000 0.403570 0.500000 1.082093
H1    H     H_    0.636928 0.519234 0.776842 0.105473
H2    H     H_    0.312387 0.609649 0.807334 0.120813
H3    H     H_    0.172924 0.515622 0.799554 0.196914
H4    H     H_    0.171001 0.616470 0.725778 0.084187
H5    H     H_    0.186502 0.497254 0.681693 0.130897
H6    H     H_    0.605693 0.677305 0.276147 0.127853
H7    H     H_    0.670013 0.679697 0.176321 0.125388
H8    H     H_    0.753163 0.752646 0.300979 0.090467
H9    H     H_    0.737874 0.646124 0.367458 0.169383
H10   H     H_    0.805065 0.641346 0.270055 0.168379
H11   H     H_    0.264917 0.287325 0.970821 0.121502
H12   H     H_    0.367964 0.463822 0.221982 0.092894
H13   H     H_    0.319569 0.296340 0.864329 0.170743
H14   H     H_    0.174637 0.327946 0.789647 0.151542
H15   H     H_    0.175717 0.214474 0.847460 0.099502
H16   H     H_    0.120846 0.316406 0.895553 0.150825
H17   H     H_    0.822788 0.651270 0.112460 0.141386
H18   H     H_    0.769809 0.652851 0.006356 0.096482
H19   H     H_    0.864614 0.508689 0.962783 0.143797
H20   H     H_    0.927782 0.614441 0.993240 0.097143
H21   H     H_    0.917767 0.516654 0.071225 0.168944
H22   H     H_    0.148657 0.791877 0.510660 0.161021
H23   H     H_    0.288821 0.435935 0.084174 0.115588
H24   H     H_    0.134204 0.709997 0.602602 0.084668
H25   H     H_    0.212786 0.856790 0.650607 0.101009
H26   H     H_    0.280476 0.751986 0.664531 0.117648
H27   H     H_    0.299358 0.832695 0.573524 0.217686
H28   H     H_    0.813428 0.253463 0.458504 0.109132
H29   H     H_    0.839192 0.264424 0.340910 0.136117
H30   H     H_    0.682816 0.223503 0.301373 0.202587
H31   H     H_    0.736230 0.130359 0.365850 0.125615
H32   H     H_    0.660294 0.210280 0.418601 0.157479
H33   H     H_    0.779802 0.777826 0.636182 0.217712
H34   H     H_    0.718970 0.527869 0.913674 0.105571
H35   H     H_    0.883831 0.727734 0.627155 0.082335
H36   H     H_    0.864151 0.732901 0.456901 0.112451
H37   H     H_    0.753816 0.778389 0.472343 0.199348
H38   H     H_    0.848646 0.848386 0.507484 0.140615
H39   H     H_    0.158270 0.287831 0.623676 0.109083
H40   H     H_    0.264415 0.346859 0.641708 0.188093
H41   H     H_    0.339491 0.202037 0.585512 0.176719
H42   H     H_    0.270744 0.174453 0.678939 0.119540
H43   H     H_    0.234188 0.143224 0.567071 0.169864
H44   H     H_    0.683911 0.254980 0.579700 0.123496
H45   H     H_    0.056151 0.648086 0.475309 0.107616
H46   H     H_    0.673123 0.171393 0.671244 0.199480
H47   H     H_    0.670276 0.312065 0.776939 0.178566
H48   H     H_    0.770551 0.305351 0.714174 0.090198
H49   H     H_    0.687324 0.391117 0.683038 0.151695
H50   H     H_    0.450192 0.730258 0.292759 0.115553
H51   H     H_    0.371948 0.826683 0.292030 0.195179
H52   H     H_    0.248324 0.714047 0.277066 0.172825
H53   H     H_    0.327746 0.689600 0.191705 0.092853
H54   H     H_    0.321155 0.613092 0.288628 0.155064
H55   H     H_    0.313687 0.210992 0.412038 0.177160
H56   H     H_    0.932991 0.382958 0.390945 0.114763
H57   H     H_    0.340856 0.153905 0.308295 0.206196
H58   H     H_    0.294777 0.366480 0.329845 0.170801
H59   H     H_    0.315171 0.302901 0.226481 0.144233
H60   H     H_    0.220533 0.272615 0.291886 0.112387
H61   H     H_    0.523054 0.731226 0.711971 0.136644
H62   H     H_    0.574175 0.847260 0.706494 0.194408
H63   H     H_    0.707840 0.795661 0.771527 0.146318
H64   H     H_    0.624390 0.734130 0.833512 0.100946
H65   H     H_    0.684776 0.670823 0.749330 0.186036
H66   H     H_    0.950249 0.603631 0.587376 0.106281
H67   H     H_    0.057915 0.341550 0.495173 0.126220
H68   H     H_    0.327646 0.591356 0.689080 0.148560
N1    N     N_R   0.500000 0.258690 0.500000 -0.277077
N2    N     N_R   0.500000 0.741310 0.500000 -0.273145
O1    O     O_R   0.371460 0.581430 0.500010 -0.424115
O2    O     O_3   0.657971 0.545451 0.237307 -0.492549
O3    O     O_3   0.266479 0.423449 0.913141 -0.544513
O4    O     O_3   0.744161 0.532430 0.090717 -0.504275
O5    O     O_3   0.229381 0.673282 0.506236 -0.491664
O6    O     O_3   0.755758 0.368934 0.388920 -0.511883
O7    O     O_3   0.774886 0.637757 0.593700 -0.536992
O8    O     O_3   0.227505 0.323519 0.509006 -0.563551
O9    O     O_3   0.563244 0.256103 0.646760 -0.486219
O10   O     O_3   0.372308 0.740113 0.406001 -0.454483
O11   O     O_3   0.433340 0.254414 0.354536 -0.493101
O12   O     O_R   0.628540 0.418570 0.499990 -0.486544
O13   O     O_3   0.614378 0.744955 0.610769 -0.480119
O14   O     O_R   0.628540 0.581430 0.499990 -0.444549
O15   O     O_R   0.371460 0.418570 0.500010 -0.468529
O16   O     O_R   0.499980 0.581440 0.370260 -0.530016
O17   O     O_R   0.500020 0.418560 0.629740 -0.438537
O18   O     O_R   0.500020 0.581440 0.629740 -0.516194
O19   O     O_R   0.499980 0.418560 0.370260 -0.428316
O20   O     O_3   0.340366 0.468305 0.764478 -0.550751

loop_
_geom_bond_atom_site_label_1
_geom_bond_atom_site_label_2
_ccdc_geom_bond_type
C30   C32   A    
C49   C50   S    
C11   C18   A    
C50   H32   S    
C27   C29   A    
C34   C37   A    
C63   H65   S    
C4    O8    S    
C3    C6    A    
C8    C56   A    
C41   H8    S    
C7    C8    S    
C64   H66   S    
C53   C54   S    
C59   H54   S    
C48   H25   S    
C29   C36   A    
C58   H51   S    
Cu2   O17   S    
C1    C5    S    
C43   H16   S    
C39   H5    S    
C62   H61   S    
C24   C26   A    
C10   C15   A    
C27   O20   S    
C6    C12   S    
C4    C65   A    
C46   H20   S    
C13   Cl4   S    
C20   O19   A    
C2    O6    S    
C54   H41   S    
C62   O13   S    
C18   C19   S    
C22   C33   A    
C60   O11   S    
C61   H60   S    
C47   C48   S    
C58   O10   S    
C28   C30   A    
C22   C25   A    
C14   O9    S    
C44   O4    S    
Cu2   O19   S    
C31   C33   A    
C28   O2    S    
C39   H3    S    
C37   O4    S    
C58   H50   S    
C57   H47   S    
C53   H39   S    
C14   N1    A    
C50   H31   S    
C20   O16   A    
C21   O17   A    
C2    C6    A    
C12   O14   A    
C15   O10   S    
C44   C46   S    
Cu2   N1    S    
C47   O5    S    
C3    O7    S    
C24   C35   A    
Cu2   O12   S    
C13   C19   A    
C51   C52   S    
C34   H34   S    
C32   C35   A    
C47   H24   S    
C5    C66   A    
C46   H19   S    
C58   C59   S    
C3    C64   A    
Cu2   O15   S    
C30   C37   A    
C17   N2    A    
C63   H63   S    
C9    C14   A    
C9    Cl1   S    
C62   C63   S    
Cu1   O18   S    
C7    C65   A    
C15   N2    A    
C11   C16   A    
C36   O3    S    
C31   C32   A    
C52   H38   S    
C10   C19   A    
C51   H33   S    
C41   H9    S    
C54   H43   S    
C33   C34   A    
C40   H7    S    
C42   H13   S    
C39   H4    S    
C51   O7    S    
C66   O5    S    
C61   H58   S    
C8    C64   A    
C57   H48   S    
C53   H40   S    
C40   C41   S    
C50   H30   S    
C23   C35   A    
C55   C57   S    
C53   O8    S    
C21   O18   A    
C40   H6    S    
C25   C27   A    
C42   C43   S    
Cu1   N2    S    
C17   O13   S    
C7    C45   A    
C16   O11   S    
C44   H18   S    
Cu1   O1    S    
C38   H2    S    
C45   H45   S    
C59   H52   S    
C48   H27   S    
Cu1   O16   S    
C21   C25   S    
C43   H14   S    
C60   H55   S    
C42   H11   S    
C12   O12   A    
C4    C5    A    
C60   H57   S    
C11   Cl3   S    
C55   O9    S    
C10   Cl2   S    
C1    O1    A    
C59   H53   S    
C48   H26   S    
C26   C28   A    
C13   C17   A    
C43   H15   S    
C63   H64   S    
C62   H62   S    
C40   O2    S    
C16   N1    A    
C24   H12   S    
C41   H10   S    
Cu1   Cu2   S    
C29   C31   A    
C2    C56   A    
C49   H28   S    
C49   H29   S    
C38   C39   S    
C46   H21   S    
C20   C26   S    
C52   H37   S    
Cu1   O14   S    
C54   H42   S    
C1    O15   A    
C47   H22   S    
C23   H23   S    
C56   H56   S    
C61   H59   S    
C57   H49   S    
C65   H67   S    
C9    C18   A    
C38   O20   S    
C49   O6    S    
C51   H35   S    
C23   C36   A    
C55   H44   S    
C45   C66   A    
C38   H68   S    
C60   C61   S    
C52   H36   S    
C22   H1    S    
C42   O3    S    
C44   H17   S    
C55   H46   S    
