data_mof_unit_53755.cif
_audit_creation_date              2012-10-26T20:09:48-0400
_audit_creation_method            fapswitch 2.2
_symmetry_space_group_name_H-M    P1
_symmetry_Int_Tables_number       1
_space_group_crystal_system       triclinic
_cell_length_a                    10.741526
_cell_length_b                    9.414812
_cell_length_c                    15.891066
_cell_angle_alpha                 90.066519
_cell_angle_beta                  90.620564
_cell_angle_gamma                 90.007953
_cell_volume                      1606.95937013

loop_
_atom_site_label
_atom_site_type_symbol
_atom_type_description
_atom_site_fract_x
_atom_site_fract_y
_atom_site_fract_z
_atom_type_partial_charge
C1    C     C_R   0.259817 0.500106 0.499957 0.627826
C2    C     C_3   0.926921 0.411800 0.423583 0.155849
C3    C     C_3   0.071585 0.654595 0.495685 -0.232237
C4    C     C_3   0.121881 0.499875 0.500246 0.029877
C5    C     C_3   0.876948 0.500997 0.500616 -0.010905
C6    C     C_R   0.500166 0.499925 0.340244 0.578089
C7    C     C_3   0.929647 0.655853 0.496509 -0.258826
C8    C     C_3   0.590555 0.083982 0.564272 -0.100883
C9    C     C_3   0.590551 0.916247 0.564272 -0.108370
C10   C     C_3   0.376174 0.083736 0.522922 -0.106440
C11   C     C_3   0.376173 0.916383 0.522890 -0.103705
C12   C     C_3   0.633663 0.518042 0.952968 -0.227185
C13   C     C_3   0.534502 0.083474 0.418578 -0.102209
C14   C     C_3   0.534574 0.916258 0.418589 -0.103014
C15   C     C_R   0.739730 0.500218 0.500480 0.607300
C16   C     C_R   0.500686 0.500088 0.659786 0.575364
C17   C     C_3   0.422548 0.630154 0.046893 -0.054944
C18   C     C_3   0.444130 0.355790 0.046876 -0.050745
C19   C     C_3   0.445921 0.357585 0.948684 -0.179846
C20   C     C_3   0.417025 0.622119 0.949075 -0.175282
C21   C     C_1   0.501697 0.500291 0.749279 -0.034600
C22   C     C_3   0.496666 0.499457 0.082646 0.015080
C23   C     C_3   0.632285 0.513717 0.050478 -0.242945
C24   C     C_3   0.500097 0.499676 0.916736 0.014175
C25   C     C_3   0.860680 0.591733 0.685601 -0.082931
C26   C     C_3   0.855642 0.564255 0.311857 -0.077343
C27   C     C_2   0.294412 0.649917 0.083616 0.242962
C28   C     C_2   0.318877 0.315616 0.082760 0.189436
C29   C     C_3   0.160191 0.411369 0.718794 -0.102051
C30   C     C_3   0.146152 0.370830 0.287374 -0.097722
C31   C     C_1   0.501794 0.500232 0.824718 -0.089833
C32   C     C_1   0.499493 0.499667 0.175136 -0.115737
C33   C     C_1   0.500283 0.499771 0.250647 -0.043894
C34   C     C_3   0.075592 0.428824 0.583344 0.141720
C35   C     C_3   0.072187 0.414752 0.422086 0.139754
C36   C     C_3   0.930110 0.424145 0.581989 0.157033
Cu1   Cu    Cu3+1 0.499860 0.642410 0.500040 0.891968
Cu2   Cu    Cu3+1 0.499860 0.357590 0.500040 0.904533
H1    H     H_    0.319819 0.605055 0.926026 0.163824
H2    H     H_    0.686017 0.877613 0.550659 0.103537
H3    H     H_    0.346553 0.123685 0.585519 0.107796
H4    H     H_    0.346465 0.876622 0.585449 0.120557
H5    H     H_    0.467479 0.120590 0.369516 0.115611
H6    H     H_    0.467634 0.878935 0.369488 0.124873
H7    H     H_    0.627831 0.123311 0.400110 0.127408
H8    H     H_    0.627954 0.876446 0.400165 0.106515
H9    H     H_    0.305242 0.120940 0.476456 0.106340
H10   H     H_    0.305321 0.879123 0.476351 0.110963
H11   H     H_    0.508519 0.269483 0.067458 0.087099
H12   H     H_    0.351859 0.341296 0.920398 0.167599
H13   H     H_    0.475386 0.727873 0.064419 0.114888
H14   H     H_    0.504298 0.267944 0.925953 0.099342
H15   H     H_    0.448860 0.725115 0.922475 0.111424
H16   H     H_    0.676306 0.612078 0.075951 0.119646
H17   H     H_    0.689808 0.422834 0.073149 0.134122
H18   H     H_    0.673239 0.621082 0.931765 0.123029
H19   H     H_    0.695186 0.432215 0.929046 0.136136
H20   H     H_    0.110465 0.316609 0.582283 0.045240
H21   H     H_    0.106520 0.303074 0.430143 0.046296
H22   H     H_    0.908512 0.309599 0.572524 0.077336
H23   H     H_    0.107368 0.718213 0.549883 0.146593
H24   H     H_    0.904878 0.299277 0.438796 0.081175
H25   H     H_    0.779410 0.641848 0.653985 0.116857
H26   H     H_    0.947072 0.653901 0.676993 0.164023
H27   H     H_    0.841003 0.594172 0.753961 0.128694
H28   H     H_    0.942694 0.626583 0.317905 0.166168
H29   H     H_    0.775347 0.619516 0.340442 0.115513
H30   H     H_    0.834611 0.556892 0.243499 0.132236
H31   H     H_    0.262000 0.582839 0.134088 0.133663
H32   H     H_    0.315016 0.275237 0.146576 0.089611
H33   H     H_    0.242165 0.347664 0.699247 0.109360
H34   H     H_    0.104361 0.707763 0.437435 0.147577
H35   H     H_    0.082569 0.340332 0.737620 0.153415
H36   H     H_    0.188331 0.474889 0.774688 0.141298
H37   H     H_    0.067938 0.294681 0.278013 0.154864
H38   H     H_    0.232380 0.313401 0.306465 0.105320
H39   H     H_    0.162964 0.422857 0.226158 0.147273
H40   H     H_    0.897819 0.723219 0.548794 0.101794
H41   H     H_    0.894406 0.715964 0.441735 0.104383
H42   H     H_    0.568133 0.122515 0.628480 0.124931
H43   H     H_    0.568173 0.877875 0.628471 0.116245
H44   H     H_    0.686040 0.122623 0.550681 0.114955
N1    N     N_3   0.500250 0.143650 0.501830 -0.229234
N2    N     N_3   0.500250 0.856350 0.501830 -0.225794
O1    O     O_R   0.317570 0.620260 0.500050 -0.503153
O2    O     O_3   0.866181 0.425131 0.343533 -0.556000
O3    O     O_2   0.227524 0.746546 0.059076 -0.509976
O4    O     O_2   0.222178 0.328107 0.042306 -0.519460
O5    O     O_3   0.122839 0.505022 0.654022 -0.565639
O6    O     O_3   0.117432 0.476667 0.346977 -0.565863
O7    O     O_R   0.317570 0.379740 0.500050 -0.531159
O8    O     O_R   0.499890 0.620310 0.379470 -0.510710
O9    O     O_R   0.499890 0.379690 0.379470 -0.502830
O10   O     O_R   0.682190 0.620260 0.500020 -0.530962
O11   O     O_R   0.682190 0.379740 0.500020 -0.497483
O12   O     O_R   0.499870 0.620210 0.620600 -0.506610
O13   O     O_R   0.499870 0.379790 0.620600 -0.503274
O14   O     O_3   0.871838 0.448573 0.661097 -0.556700

loop_
_geom_bond_atom_site_label_1
_geom_bond_atom_site_label_2
_ccdc_geom_bond_type
C2    C35   S    
C16   C21   S    
Cu2   N1    S    
C8    N1    S    
C14   H6    S    
C14   N2    S    
C30   O6    S    
C17   H13   S    
C15   O10   A    
C29   O5    S    
C14   H8    S    
C21   C31   T    
C12   C23   S    
C22   C32   S    
C8    H44   S    
C26   H29   S    
Cu1   O1    S    
C3    C7    S    
C15   O11   A    
C34   H20   S    
C16   O13   A    
C29   H35   S    
C5    C36   S    
C10   N1    S    
C17   C20   S    
C11   H4    S    
C35   H21   S    
C18   C19   S    
C25   H25   S    
C30   H39   S    
C19   H14   S    
C20   C24   S    
C8    C9    S    
Cu2   O11   S    
C28   O4    D    
Cu1   N2    S    
C2    O2    S    
C27   H31   S    
C4    C35   S    
C1    O7    A    
C13   C14   S    
C10   H3    S    
C11   H10   S    
Cu2   O13   S    
C3    H23   S    
C1    O1    A    
C4    C34   S    
C16   O12   A    
C5    C15   S    
C17   C27   S    
C25   H27   S    
C5    C7    S    
C20   H1    S    
C29   H36   S    
Cu2   O7    S    
C9    H2    S    
Cu1   O12   S    
C25   H26   S    
C26   H28   S    
Cu1   Cu2   S    
C30   H38   S    
C26   O2    S    
C6    O9    A    
C18   C28   S    
C27   O3    D    
C12   H18   S    
C7    H40   S    
C12   H19   S    
C2    C5    S    
C3    C4    S    
C13   H5    S    
C23   H16   S    
C7    H41   S    
C12   C24   S    
Cu1   O8    S    
C18   C22   S    
C28   H32   S    
C20   H15   S    
C36   H22   S    
C23   H17   S    
C11   N2    S    
C13   N1    S    
C17   C22   S    
C6    C33   S    
C1    C4    S    
C26   H30   S    
C32   C33   T    
C3    H34   S    
C24   C31   S    
C13   H7    S    
C30   H37   S    
C19   H12   S    
C6    O8    A    
Cu2   O9    S    
Cu1   O10   S    
C19   C24   S    
C34   C36   S    
C34   O5    S    
C10   C11   S    
C9    N2    S    
C35   O6    S    
C25   O14   S    
C10   H9    S    
C8    H42   S    
C22   C23   S    
C36   O14   S    
C2    H24   S    
C18   H11   S    
C9    H43   S    
C29   H33   S    
