data_mof_unit_24239.cif
_audit_creation_date              2012-12-10T20:28:40-0500
_audit_creation_method            fapswitch 2.2
_symmetry_space_group_name_H-M    P1
_symmetry_Int_Tables_number       1
_space_group_crystal_system       triclinic
_cell_length_a                    10.631977
_cell_length_b                    10.66407
_cell_length_c                    9.866968
_cell_angle_alpha                 89.947783
_cell_angle_beta                  89.897985
_cell_angle_gamma                 89.875156
_cell_volume                      1118.71339234

loop_
_atom_site_label
_atom_site_type_symbol
_atom_type_description
_atom_site_fract_x
_atom_site_fract_y
_atom_site_fract_z
_atom_type_partial_charge
C1    C     C_R   0.504530 0.259896 0.500045 0.879341
C2    C     C_R   0.065414 0.611887 0.565381 0.097181
C3    C     C_R   0.128194 0.512157 0.499897 -0.102334
C4    C     C_R   0.064555 0.418174 0.430794 -0.221070
C5    C     C_R   0.936080 0.418221 0.430580 -0.206489
C6    C     C_R   0.871659 0.512334 0.499321 -0.095448
C7    C     C_R   0.533162 0.063778 0.622545 0.141865
C8    C     C_R   0.526911 0.128588 0.500184 -0.106120
C9    C     C_R   0.547022 0.064778 0.377734 -0.232882
C10   C     C_R   0.547301 0.935139 0.377743 -0.220742
C11   C     C_R   0.527444 0.871197 0.500190 -0.100738
C12   C     C_R   0.260470 0.503568 0.500112 0.874072
C13   C     C_R   0.533759 0.935819 0.622614 0.115556
C14   C     C_3   0.451639 0.928637 0.745572 -0.479686
C15   C     C_3   0.450478 0.070782 0.745027 -0.487290
C16   C     C_R   0.438416 0.408213 0.071427 0.212829
C17   C     C_R   0.569868 0.583870 0.071736 -0.126293
C18   C     C_R   0.569888 0.583882 0.927746 -0.127954
C19   C     C_R   0.438344 0.408281 0.928904 0.212915
C20   C     C_3   0.300994 0.380849 0.923648 -0.503027
C21   C     C_3   0.301158 0.380520 0.077543 -0.509635
C22   C     C_R   0.504693 0.740066 0.499952 0.852842
C23   C     C_R   0.739494 0.503528 0.499864 0.863034
C24   C     C_R   0.130161 0.712526 0.627075 -0.192100
C25   C     C_R   0.064115 0.810355 0.688523 -0.140346
C26   C     C_R   0.933238 0.810468 0.688179 -0.135395
C27   C     C_R   0.867982 0.712778 0.626418 -0.189350
C28   C     C_R   0.933573 0.612012 0.565036 0.097677
H1    H     H_    0.114704 0.343237 0.379474 0.149562
H2    H     H_    0.501930 0.888025 0.834075 0.199722
H3    H     H_    0.356309 0.111311 0.722584 0.197537
H4    H     H_    0.499630 0.112462 0.833495 0.202855
H5    H     H_    0.624322 0.653157 0.125877 0.144042
H6    H     H_    0.245388 0.459275 0.879515 0.227938
H7    H     H_    0.281405 0.287196 0.879320 0.195356
H8    H     H_    0.245451 0.458617 0.122222 0.227893
H9    H     H_    0.282065 0.286606 0.121904 0.197239
H10   H     H_    0.231616 0.717696 0.626494 0.144600
H11   H     H_    0.114577 0.886971 0.735272 0.131043
H12   H     H_    0.882068 0.887113 0.734630 0.134245
H13   H     H_    0.766481 0.718302 0.625545 0.142234
H14   H     H_    0.886537 0.343208 0.379296 0.152353
H15   H     H_    0.552753 0.113753 0.281678 0.170568
H16   H     H_    0.553163 0.886285 0.281705 0.167463
H17   H     H_    0.358075 0.886996 0.724392 0.198528
N1    N     N_R   0.499160 0.499140 0.142800 -0.106422
N2    N     N_R   0.499160 0.499180 0.857150 -0.105515
O1    O     O_R   0.500020 0.316790 0.614690 -0.612079
O2    O     O_R   0.500000 0.316760 0.385350 -0.624262
O3    O     O_R   0.316770 0.500020 0.614690 -0.623324
O4    O     O_R   0.316760 0.499980 0.385350 -0.613445
O5    O     O_R   0.500000 0.683240 0.614650 -0.632564
O6    O     O_R   0.499980 0.683210 0.385310 -0.621845
O7    O     O_R   0.683240 0.500020 0.614650 -0.619785
O8    O     O_R   0.683230 0.499980 0.385310 -0.616385
Zn1   Zn    Zn3+2 0.500010 0.500020 0.653130 0.936982
Zn2   Zn    Zn3+2 0.499990 0.499980 0.346870 0.941766
H18   H     H_    0.624382 0.653145 0.873233 0.143287

loop_
_geom_bond_atom_site_label_1
_geom_bond_atom_site_label_2
_ccdc_geom_bond_type
C12   O3    A    
C5    H14   S    
C1    O1    A    
C23   O8    A    
C16   C21   S    
O4    Zn2   S    
C22   O6    A    
C1    C8    S    
O3    Zn1   S    
C9    C10   A    
C27   H13   S    
C11   C22   S    
C24   H10   S    
C4    H1    S    
C20   H6    S    
C18   N2    A    
C7    C15   S    
C17   C18   A    
C24   C25   A    
C21   H9    S    
C7    C8    A    
C21   H8    S    
C13   C14   S    
C20   C21   S    
C15   H3    S    
C11   C13   A    
C26   H12   S    
C26   C27   A    
C25   H11   S    
C17   H5    S    
C14   H2    S    
C16   C19   A    
C6    C23   S    
N2    Zn1   S    
C2    C3    A    
C14   H17   S    
O7    Zn1   S    
O8    Zn2   S    
N1    Zn2   S    
C2    C24   A    
C5    C6    A    
C19   N2    A    
C9    H15   S    
C10   C11   A    
C10   H16   S    
C3    C4    A    
O5    Zn1   S    
C7    C13   A    
C12   O4    A    
O2    Zn2   S    
C17   N1    A    
C23   O7    A    
C22   O5    A    
C16   N1    A    
C27   C28   A    
O1    Zn1   S    
O6    Zn2   S    
C14   C15   S    
C4    C5    A    
C2    C28   A    
C3    C12   S    
C25   C26   A    
C20   H7    S    
C1    O2    A    
C18   H18   S    
C6    C28   A    
C19   C20   S    
C8    C9    A    
C15   H4    S    
