data_mof_unit_42578.cif
_audit_creation_date              2012-12-10T17:22:55-0500
_audit_creation_method            fapswitch 2.2
_symmetry_space_group_name_H-M    P1
_symmetry_Int_Tables_number       1
_space_group_crystal_system       triclinic
_cell_length_a                    10.326946
_cell_length_b                    10.459542
_cell_length_c                    10.788825
_cell_angle_alpha                 93.304017
_cell_angle_beta                  94.964047
_cell_angle_gamma                 82.331323
_cell_volume                      1149.3475859

loop_
_atom_site_label
_atom_site_type_symbol
_atom_type_description
_atom_site_fract_x
_atom_site_fract_y
_atom_site_fract_z
_atom_type_partial_charge
C1    C     C_R   0.445029 0.504510 0.267795 0.902530
C2    C     C_3   0.498714 0.122835 0.502621 0.046794
C3    C     C_3   0.623620 0.943104 0.487470 -0.126326
C4    C     C_3   0.378303 0.056621 0.518703 -0.127027
C5    C     C_2   0.413863 0.492842 0.135161 -0.385365
C6    C     C_2   0.582518 0.476272 0.863571 -0.383868
C7    C     C_2   0.510958 0.453979 0.063187 -0.161718
C8    C     C_2   0.486925 0.453112 0.930779 -0.153010
C9    C     C_2   0.081786 0.467973 0.496664 0.346633
C10   C     C_2   0.939777 0.472758 0.529200 0.447638
C11   C     C_3   0.996750 0.418739 0.731942 0.105798
C12   C     C_R   0.554392 0.489831 0.731855 0.927685
C13   C     C_3   0.941768 0.424165 0.858877 -0.335816
C14   C     C_3   0.043970 0.368400 0.958109 -1.021906
C15   C     C_3   0.177479 0.336491 0.331126 0.186535
C16   C     C_3   0.142840 0.212219 0.260109 -0.429238
C17   C     C_3   0.242293 0.160444 0.165993 -0.993547
C18   C     C_3   0.853506 0.431686 0.315779 -0.250841
C19   C     C_3   0.815814 0.299896 0.268401 -0.831994
C20   C     C_3   0.100719 0.685562 0.575388 -0.275867
C21   C     C_3   0.143439 0.731750 0.707251 -0.807402
C22   C     C_R   0.499510 0.258037 0.500880 0.816606
C23   C     C_R   0.501251 0.741891 0.501854 0.857276
C24   C     C_3   0.538465 0.030678 0.393528 -0.197080
C25   C     C_3   0.463530 0.968901 0.612603 -0.193126
C26   C     C_3   0.418054 0.961904 0.409472 -0.191638
C27   C     C_3   0.583844 0.037968 0.596694 -0.169117
C28   C     C_3   0.503068 0.877000 0.503246 0.033538
H1    H     H_    0.350832 0.925335 0.333710 0.143203
H2    H     H_    0.313280 0.516066 0.096405 0.146917
H3    H     H_    0.095044 0.451827 0.744138 0.158607
H4    H     H_    0.007339 0.316171 0.695241 0.135747
H5    H     H_    0.907159 0.526051 0.887203 0.231698
H6    H     H_    0.858410 0.366626 0.851893 0.219772
H7    H     H_    0.074245 0.264341 0.935533 0.279895
H8    H     H_    0.001000 0.379321 0.049349 0.268126
H9    H     H_    0.131082 0.420987 0.965000 0.261553
H10   H     H_    0.283779 0.324286 0.332615 0.213851
H11   H     H_    0.145907 0.423482 0.276539 0.086597
H12   H     H_    0.650938 0.074071 0.672827 0.133949
H13   H     H_    0.137170 0.135978 0.326298 0.241999
H14   H     H_    0.048027 0.231627 0.206160 0.231644
H15   H     H_    0.254203 0.236398 0.101787 0.278037
H16   H     H_    0.208459 0.076445 0.110914 0.270842
H17   H     H_    0.339262 0.129205 0.214445 0.265617
H18   H     H_    0.876602 0.221768 0.320420 0.246054
H19   H     H_    0.712442 0.291455 0.281084 0.284176
H20   H     H_    0.828308 0.285376 0.167187 0.206884
H21   H     H_    0.786532 0.508951 0.268981 0.200803
H22   H     H_    0.947809 0.446834 0.287072 0.123538
H23   H     H_    0.569353 0.060664 0.304691 0.128640
H24   H     H_    0.103375 0.676605 0.776579 0.246916
H25   H     H_    0.251939 0.720050 0.722377 0.274999
H26   H     H_    0.105960 0.835601 0.721812 0.220346
H27   H     H_    0.136288 0.747042 0.508484 0.198380
H28   H     H_    0.992009 0.700869 0.562134 0.167877
H29   H     H_    0.433278 0.938559 0.701564 0.134567
H30   H     H_    0.723625 0.892757 0.474904 0.137029
H31   H     H_    0.278395 0.106575 0.532088 0.174424
H32   H     H_    0.388686 0.442569 0.889575 0.186180
H33   H     H_    0.611938 0.432416 0.101176 0.191259
H34   H     H_    0.678217 0.490601 0.907242 0.143134
N1    N     N_2   0.157310 0.552180 0.551120 -0.098358
N2    N     N_2   0.842690 0.447820 0.448880 -0.085889
O1    O     O_R   0.568940 0.489500 0.307530 -0.622723
O2    O     O_3   0.138411 0.344776 0.455737 -0.653047
O3    O     O_R   0.431060 0.510500 0.692470 -0.614573
O4    O     O_R   0.348880 0.522990 0.340350 -0.651564
O5    O     O_R   0.651120 0.477010 0.659650 -0.555093
O6    O     O_R   0.610000 0.297210 0.483560 -0.616325
O7    O     O_R   0.390000 0.702790 0.516440 -0.621797
O8    O     O_R   0.389940 0.330700 0.516390 -0.594435
O9    O     O_R   0.610060 0.669300 0.483610 -0.616069
O10   O     O_3   0.910963 0.500090 0.651924 -0.633711
Zn1   Zn    Zn3+2 0.646930 0.477640 0.478080 0.960467
Zn2   Zn    Zn3+2 0.353070 0.522360 0.521920 0.933707

loop_
_geom_bond_atom_site_label_1
_geom_bond_atom_site_label_2
_ccdc_geom_bond_type
C12   O5    A    
C11   C13   S    
O8    Zn2   S    
C4    C25   S    
C19   H18   S    
C7    C8    S    
C25   C28   S    
C1    C5    S    
C3    C28   S    
C24   C26   S    
C6    C12   S    
O7    Zn2   S    
C19   H19   S    
N1    Zn2   S    
C15   C16   S    
C1    O4    A    
C18   C19   S    
C9    O2    S    
C7    H33   S    
C14   H8    S    
C16   C17   S    
C2    C22   S    
C1    O1    A    
C2    C27   S    
C9    C10   S    
C20   H28   S    
C24   H23   S    
C11   H3    S    
C13   C14   S    
O9    Zn1   S    
C3    C24   S    
C25   H29   S    
C23   O9    A    
C20   H27   S    
C22   O8    A    
C12   O3    A    
C23   O7    A    
C14   H7    S    
C5    C7    D    
C19   H20   S    
C6    C8    D    
C15   O2    S    
C2    C4    S    
C17   H15   S    
C15   H10   S    
C13   H5    S    
C27   H12   S    
C23   C28   S    
C15   H11   S    
C11   H4    S    
C2    C24   S    
O4    Zn2   S    
C16   H14   S    
C18   H22   S    
C5    H2    S    
C9    N1    D    
C10   N2    D    
C17   H17   S    
C11   O10   S    
C4    C26   S    
C25   C27   S    
C26   C28   S    
O1    Zn1   S    
C6    H34   S    
C20   N1    S    
C3    C27   S    
C17   H16   S    
C13   H6    S    
C8    H32   S    
C14   H9    S    
C21   H25   S    
C10   O10   S    
C18   N2    S    
C21   H26   S    
C4    H31   S    
N2    Zn1   S    
O5    Zn1   S    
C3    H30   S    
C20   C21   S    
C26   H1    S    
O6    Zn1   S    
O3    Zn2   S    
C16   H13   S    
C22   O6    A    
C21   H24   S    
C18   H21   S    
