data_mof_unit_21543.cif
_audit_creation_date              2012-12-10T17:23:39-0500
_audit_creation_method            fapswitch 2.2
_symmetry_space_group_name_H-M    P1
_symmetry_Int_Tables_number       1
_space_group_crystal_system       triclinic
_cell_length_a                    9.60536
_cell_length_b                    10.778526
_cell_length_c                    17.364235
_cell_angle_alpha                 92.577743
_cell_angle_beta                  85.998635
_cell_angle_gamma                 90.03799
_cell_volume                      1791.54500841

loop_
_atom_site_label
_atom_site_type_symbol
_atom_type_description
_atom_site_fract_x
_atom_site_fract_y
_atom_site_fract_z
_atom_type_partial_charge
C1    C     C_R   0.499658 0.737407 0.502703 0.794848
C2    C     C_R   0.343063 0.494196 0.776116 -0.209802
C3    C     C_R   0.412245 0.514269 0.147156 -0.149790
C4    C     C_R   0.405214 0.513260 0.227125 -0.206092
C5    C     C_R   0.657085 0.491327 0.223644 -0.202883
C6    C     C_R   0.663993 0.491991 0.143336 -0.172585
C7    C     C_R   0.541575 0.501464 0.104661 0.192905
C8    C     C_2   0.448755 0.458915 0.977789 -0.232330
C9    C     C_2   0.552091 0.500832 0.020051 -0.229868
C10   C     C_R   0.527369 0.501246 0.265971 -0.028015
C11   C     C_R   0.337422 0.879676 0.625549 -0.186877
C12   C     C_R   0.481778 0.497782 0.649630 0.766905
C13   C     C_R   0.258690 0.948765 0.682772 -0.141807
C14   C     C_R   0.258637 0.077789 0.682694 -0.130734
C15   C     C_R   0.337217 0.138544 0.625355 -0.169228
C16   C     C_R   0.416024 0.070425 0.565880 0.098311
C17   C     C_R   0.416128 0.939171 0.565994 0.097942
C18   C     C_R   0.499149 0.871611 0.507980 -0.102512
C19   C     C_R   0.584773 0.932614 0.453619 -0.193321
C20   C     C_R   0.584662 0.060597 0.453487 -0.206360
C21   C     C_R   0.498955 0.129519 0.507736 -0.089102
C22   C     C_R   0.868886 0.335354 0.397039 -0.150639
C23   C     C_R   0.499654 0.262921 0.502353 0.768178
C24   C     C_R   0.947271 0.254835 0.346682 -0.220223
C25   C     C_R   0.090735 0.254628 0.346745 -0.203747
C26   C     C_R   0.156708 0.334950 0.397159 -0.141819
C27   C     C_R   0.081080 0.418931 0.449437 0.206904
C28   C     C_R   0.931553 0.419055 0.449413 0.213291
C29   C     C_R   0.920127 0.576975 0.548186 -0.062694
C30   C     C_R   0.067981 0.576950 0.548164 -0.062074
C31   C     C_R   0.518209 0.500117 0.350283 0.772227
C32   C     C_R   0.472575 0.487041 0.733415 -0.025684
C33   C     C_R   0.594094 0.464818 0.771022 -0.199487
C34   C     C_R   0.586883 0.452399 0.850290 -0.151918
C35   C     C_R   0.458126 0.463928 0.893412 0.195738
C36   C     C_R   0.336011 0.482249 0.855793 -0.172396
Cu1   Cu    Cu3+1 0.359340 0.500010 0.500010 0.926698
Cu2   Cu    Cu3+1 0.640660 0.499990 0.499990 0.934894
H1    H     H_    0.694964 0.455947 0.739233 0.154696
H2    H     H_    0.764702 0.483525 0.111292 0.121665
H3    H     H_    0.649666 0.880622 0.409882 0.152608
H4    H     H_    0.337905 0.779918 0.629639 0.137845
H5    H     H_    0.198994 0.901988 0.727990 0.130717
H6    H     H_    0.198933 0.131157 0.727865 0.134769
H7    H     H_    0.337372 0.238848 0.629289 0.154160
H8    H     H_    0.860084 0.640121 0.587711 0.138221
H9    H     H_    0.759759 0.327690 0.392252 0.193231
H10   H     H_    0.895973 0.192007 0.307337 0.146428
H11   H     H_    0.151710 0.191636 0.307436 0.150715
H12   H     H_    0.267033 0.326872 0.392476 0.198564
H13   H     H_    0.118203 0.640074 0.587677 0.131774
H14   H     H_    0.752865 0.482468 0.252396 0.156732
H15   H     H_    0.648230 0.535394 0.992211 0.143622
H16   H     H_    0.235705 0.489948 0.888315 0.119753
H17   H     H_    0.316494 0.527157 0.119159 0.122862
H18   H     H_    0.247657 0.509819 0.748177 0.147692
H19   H     H_    0.352355 0.424606 0.005427 0.142802
H20   H     H_    0.682083 0.432884 0.877383 0.121517
N1    N     N_R   0.852190 0.498790 0.499250 -0.200096
N2    N     N_R   0.148060 0.498710 0.499220 -0.199753
O1    O     O_R   0.381190 0.680360 0.500010 -0.576392
O2    O     O_R   0.618760 0.680340 0.500000 -0.573130
O3    O     O_R   0.367440 0.500030 0.613600 -0.598809
O4    O     O_R   0.605010 0.500010 0.613590 -0.582406
O5    O     O_R   0.381240 0.319660 0.500000 -0.601982
O6    O     O_R   0.618810 0.319640 0.499990 -0.589411
O7    O     O_R   0.394990 0.499990 0.386410 -0.600746
O8    O     O_R   0.632560 0.499970 0.386400 -0.602854
H21   H     H_    0.649471 0.106124 0.409641 0.137808
H22   H     H_    0.303944 0.522852 0.258424 0.160540

loop_
_geom_bond_atom_site_label_1
_geom_bond_atom_site_label_2
_ccdc_geom_bond_type
Cu1   O1    S    
C30   H13   S    
C5    H14   S    
C7    C9    S    
C29   C30   A    
C25   H11   S    
C8    H19   S    
C31   O8    A    
C3    C7    A    
C35   C36   A    
Cu1   O5    S    
C29   H8    S    
C32   C33   A    
C23   O5    A    
C19   C20   A    
C26   H12   S    
C17   C18   A    
C1    C18   S    
C24   C25   A    
C5    C10   A    
C2    H18   S    
C13   C14   A    
C12   C32   S    
C31   O7    A    
C11   C13   A    
C26   C27   A    
C16   C21   A    
C1    O2    A    
C2    C32   A    
Cu1   O7    S    
C23   O6    A    
C4    H22   S    
Cu1   O3    S    
Cu1   Cu2   S    
Cu2   O8    S    
C33   C34   A    
C6    C7    A    
Cu2   O4    S    
C27   N2    A    
C21   C23   S    
C5    C6    A    
C12   O4    A    
C22   C24   A    
C20   H21   S    
Cu1   N2    S    
C9    H15   S    
C15   H7    S    
C4    C10   A    
C15   C16   A    
C24   H10   S    
C16   C17   A    
C29   N1    A    
C13   H5    S    
C6    H2    S    
C36   H16   S    
C20   C21   A    
C11   H4    S    
C14   H6    S    
C34   C35   A    
C28   N1    A    
C2    C36   A    
C27   C28   A    
C34   H20   S    
C12   O3    A    
Cu2   O6    S    
C14   C15   A    
C18   C19   A    
C22   C28   A    
C25   C26   A    
C3    H17   S    
C10   C31   S    
C33   H1    S    
C22   H9    S    
C11   C17   A    
C3    C4    A    
C19   H3    S    
Cu2   N1    S    
C1    O1    A    
C8    C9    D    
Cu2   O2    S    
C8    C35   S    
C30   N2    A    
