data_mof_unit_49814.cif
_audit_creation_date              2013-03-05T16:41:02-0500
_audit_creation_method            fapswitch 2.2
_symmetry_space_group_name_H-M    P1
_symmetry_Int_Tables_number       1
_space_group_crystal_system       triclinic
_cell_length_a                    18.598907
_cell_length_b                    18.593735
_cell_length_c                    18.831479
_cell_angle_alpha                 109.40907
_cell_angle_beta                  109.439497
_cell_angle_gamma                 108.873521
_cell_volume                      5055.43572987

loop_
_atom_site_label
_atom_site_type_symbol
_atom_site_description
_atom_site_fract_x
_atom_site_fract_y
_atom_site_fract_z
_atom_type_partial_charge
O1    O     O_R   0.408360 0.551710 0.460090 -0.615246
O2    O     O_R   0.408400 0.448280 0.356670 -0.616545
C1    C     C_R   0.381125 0.502027 0.380498 0.845351
O3    O     O_R   0.591600 0.643340 0.551710 -0.620356
O4    O     O_R   0.591630 0.539900 0.448290 -0.595433
C2    C     C_R   0.621814 0.620122 0.501626 0.842906
Zn1   Zn    Zn3+2 0.499980 0.569060 0.569060 0.997621
Zn2   Zn    Zn3+2 0.500020 0.430940 0.430940 1.028304
O5    O     O_R   0.591600 0.551720 0.643330 -0.618054
O6    O     O_R   0.591640 0.448290 0.539910 -0.602083
O7    O     O_R   0.408370 0.460100 0.551710 -0.602060
O8    O     O_R   0.408400 0.356660 0.448290 -0.624778
C3    C     C_R   0.618943 0.498316 0.619523 0.864103
C4    C     C_R   0.378497 0.379798 0.498726 0.864509
H1    H     H_    0.789552 0.822986 0.891317 0.135068
C5    C     C_R   0.788282 0.873468 0.803478 -0.106289
H2    H     H_    0.795479 0.934554 0.845730 0.143946
C6    C     C_R   0.781184 0.856978 0.722728 -0.137070
H3    H     H_    0.782660 0.905750 0.703110 0.161323
C7    C     C_R   0.771001 0.777422 0.667105 0.111701
C8    C     C_R   0.770417 0.715824 0.694598 -0.084547
H4    H     H_    0.764436 0.654996 0.653448 0.113126
C9    C     C_R   0.775781 0.731910 0.774659 -0.135798
H5    H     H_    0.771760 0.682910 0.794018 0.132626
C10   C     C_R   0.785036 0.810694 0.829214 -0.135010
C11   C     C_R   0.824002 0.819326 0.575781 -0.254653
H6    H     H_    0.880394 0.875661 0.635196 0.155558
C12   C     C_R   0.813639 0.809516 0.495649 -0.085259
C13   C     C_R   0.739201 0.738444 0.417237 0.062078
C14   C     C_R   0.679786 0.675109 0.422379 -0.115874
H7    H     H_    0.623925 0.617960 0.363261 0.157907
C15   C     C_R   0.689377 0.685909 0.502534 -0.084781
C16   C     C_R   0.760856 0.759611 0.580489 0.003211
C17   C     C_R   0.640185 0.703209 0.264664 0.345447
C18   C     C_R   0.624965 0.680425 0.179955 -0.193775
H8    H     H_    0.562700 0.663838 0.130107 0.157146
C19   C     C_R   0.690070 0.680121 0.159010 -0.179308
H9    H     H_    0.677594 0.662523 0.093575 0.149283
C20   C     C_R   0.771292 0.702851 0.222365 -0.116461
H10   H     H_    0.821382 0.702001 0.205664 0.154367
C21   C     C_R   0.787546 0.725514 0.306779 -0.131296
H11   H     H_    0.850623 0.742535 0.354792 0.121704
C22   C     C_R   0.722767 0.725219 0.329336 0.006188
C23   C     C_R   0.412245 0.802231 0.518764 -0.188113
H12   H     H_    0.387834 0.840530 0.550197 0.200966
C24   C     C_R   0.352402 0.721182 0.444134 -0.245818
H13   H     H_    0.283148 0.698367 0.419946 0.145646
C25   C     C_R   0.381488 0.669311 0.401733 0.122187
C26   C     C_R   0.471526 0.700584 0.434591 -0.057626
H14   H     H_    0.495309 0.662104 0.402311 0.153463
C27   C     C_R   0.531402 0.780767 0.510394 -0.193975
H15   H     H_    0.600251 0.801638 0.536033 0.168773
C28   C     C_R   0.502492 0.832828 0.552974 0.358769
C29   C     C_R   0.252392 0.578043 0.255686 -0.207787
H16   H     H_    0.253036 0.637833 0.259521 0.156505
C30   C     C_R   0.185536 0.497314 0.184221 -0.074730
C31   C     C_R   0.180499 0.418320 0.179217 -0.000403
C32   C     C_R   0.247569 0.422992 0.244531 -0.251026
H17   H     H_    0.246214 0.363032 0.240913 0.157354
C33   C     C_R   0.315307 0.503714 0.315443 -0.080920
C34   C     C_R   0.316743 0.582482 0.323495 0.028332
C35   C     C_R   0.062673 0.269005 0.126541 -0.150921
H18   H     H_    0.078851 0.286272 0.192849 0.127093
C36   C     C_R   0.996420 0.184997 0.059888 -0.132171
H19   H     H_    0.961979 0.138134 0.074861 0.135478
C37   C     C_R   0.974992 0.161306 0.974022 -0.100833
H20   H     H_    0.924036 0.096146 0.922493 0.129298
C38   C     C_R   0.019577 0.221681 0.954705 -0.114439
H21   H     H_    0.003290 0.202932 0.888230 0.147037
C39   C     C_R   0.085379 0.305973 0.021169 -0.118042
H22   H     H_    0.119183 0.352186 0.005526 0.107801
C40   C     C_R   0.107670 0.330416 0.107683 0.129528
H23   H     H_    0.195315 0.597441 0.516700 0.144765
C41   C     C_R   0.215117 0.524484 0.582382 -0.128077
H24   H     H_    0.213773 0.565812 0.637621 0.140167
C42   C     C_R   0.227144 0.453243 0.579252 -0.158001
H25   H     H_    0.235243 0.440170 0.632532 0.119346
C43   C     C_R   0.229424 0.399630 0.507940 0.141070
C44   C     C_R   0.218219 0.417591 0.439340 -0.121125
H26   H     H_    0.218566 0.376278 0.383287 0.098598
C45   C     C_R   0.205969 0.488766 0.442651 -0.120314
H27   H     H_    0.197180 0.502290 0.389649 0.136691
C46   C     C_R   0.204702 0.542327 0.514218 -0.084877
C47   C     C_R   0.179552 0.258028 0.504975 -0.249706
H28   H     H_    0.125518 0.264619 0.510609 0.154667
C48   C     C_R   0.186553 0.183786 0.498076 -0.088374
C49   C     C_R   0.255151 0.172656 0.489420 -0.008206
C50   C     C_R   0.316113 0.237539 0.487431 -0.193701
H29   H     H_    0.369830 0.230434 0.481534 0.190873
C51   C     C_R   0.310382 0.312956 0.496364 -0.099413
C52   C     C_R   0.241234 0.323539 0.504237 0.003204
C53   C     C_R   0.293319 0.083897 0.554732 0.003410
H30   H     H_    0.307899 0.132005 0.616667 0.144803
C54   C     C_R   0.303682 0.011366 0.548367 -0.066362
H31   H     H_    0.325359 0.003506 0.604815 0.191248
C55   C     C_R   0.287314 0.949650 0.469717 -0.211185
H32   H     H_    0.296334 0.894087 0.466114 0.133295
C56   C     C_R   0.261402 0.960548 0.396817 0.052031
C57   C     C_R   0.249929 0.033284 0.403130 -0.156844
H33   H     H_    0.229600 0.042375 0.347235 0.160910
C58   C     C_R   0.264746 0.094631 0.481881 0.064672
H34   H     H_    0.372711 0.430993 0.756060 0.132752
C59   C     C_R   0.501797 0.526821 0.796755 -0.129375
H35   H     H_    0.494219 0.581778 0.829073 0.130859
C60   C     C_R   0.579989 0.541065 0.796130 -0.096563
H36   H     H_    0.632535 0.607390 0.828004 0.128185
C61   C     C_R   0.589978 0.470230 0.753421 0.021554
C62   C     C_R   0.521068 0.383787 0.712321 -0.009408
C63   C     C_R   0.442961 0.370685 0.714219 -0.102832
H37   H     H_    0.388994 0.305403 0.683166 0.165270
C64   C     C_R   0.433337 0.441832 0.755645 -0.148288
C65   C     C_R   0.737875 0.487058 0.813922 -0.254389
H38   H     H_    0.729918 0.480799 0.866465 0.167070
C66   C     C_R   0.813075 0.494687 0.808826 -0.091112
C67   C     C_R   0.823510 0.501441 0.740077 -0.007011
C68   C     C_R   0.758246 0.502513 0.678270 -0.233909
H39   H     H_    0.764870 0.507684 0.624789 0.183833
C69   C     C_R   0.684040 0.496169 0.684405 -0.095338
C70   C     C_R   0.672734 0.487582 0.751760 -0.032412
C71   C     C_R   0.953034 0.574285 0.726124 -0.101563
H40   H     H_    0.942464 0.630043 0.736656 0.132753
C72   C     C_R   0.021094 0.573633 0.710084 -0.078285
H41   H     H_    0.062888 0.628694 0.708603 0.152214
C73   C     C_R   0.034687 0.501584 0.695140 -0.135209
H42   H     H_    0.087070 0.500922 0.682235 0.123955
C74   C     C_R   0.980446 0.430211 0.696524 -0.133192
H43   H     H_    0.990618 0.374183 0.684157 0.144860
C75   C     C_R   0.912800 0.430912 0.713303 -0.095700
H44   H     H_    0.870529 0.374805 0.713175 0.112233
C76   C     C_R   0.898673 0.503025 0.728212 0.124110
O9    O     O_R   0.051730 0.908360 0.460060 -0.616528
O10   O     O_R   0.948280 0.908380 0.356650 -0.621876
C77   C     C_R   0.000020 0.878822 0.380664 0.867386
O11   O     O_R   0.960110 0.908350 0.551690 -0.616102
O12   O     O_R   0.856660 0.908370 0.448270 -0.604350
C78   C     C_R   0.879843 0.877492 0.497528 0.854119
Zn3   Zn    Zn3+2 0.069070 0.999960 0.569030 0.980600
Zn4   Zn    Zn3+2 0.930930 0.999990 0.430930 0.991671
O13   O     O_R   0.051720 0.091580 0.643310 -0.622625
O14   O     O_R   0.948270 0.091600 0.539890 -0.609442
O15   O     O_R   0.143340 0.091590 0.551680 -0.637770
O16   O     O_R   0.039890 0.091610 0.448270 -0.617909
C79   C     C_R   0.997807 0.118546 0.619471 0.865728
C80   C     C_R   0.120201 0.118402 0.498439 0.871942
O17   O     O_R   0.051730 0.460050 0.908360 -0.620028
O18   O     O_R   0.948290 0.356630 0.908390 -0.611831
C81   C     C_R   0.002332 0.380207 0.881648 0.859986
O19   O     O_R   0.143340 0.551690 0.091580 -0.605633
O20   O     O_R   0.039900 0.448270 0.091610 -0.614738
C82   C     C_R   0.119912 0.498326 0.118653 0.856274
Zn5   Zn    Zn3+2 0.069070 0.569030 0.999960 1.011067
Zn6   Zn    Zn3+2 0.930930 0.430930 0.000000 0.996694
O21   O     O_R   0.051710 0.643320 0.091560 -0.598613
O22   O     O_R   0.948270 0.539900 0.091590 -0.623023
O23   O     O_R   0.960100 0.551680 0.908340 -0.611657
O24   O     O_R   0.856660 0.448270 0.908370 -0.618702
C83   C     C_R   0.998260 0.620231 0.118245 0.857938
C84   C     C_R   0.879887 0.497494 0.877366 0.854645
H45   H     H_    0.039761 0.698898 0.598674 0.202652
C85   C     C_R   0.107631 0.765708 0.547547 0.293141
C86   C     C_R   0.098502 0.777304 0.475600 -0.188638
H46   H     H_    0.154491 0.822510 0.477977 0.170705
C87   C     C_R   0.017157 0.730646 0.400047 0.009359
C88   C     C_R   0.945282 0.668804 0.394911 -0.285283
H47   H     H_    0.883757 0.629481 0.334776 0.188815
C89   C     C_R   0.952034 0.658556 0.467085 0.332014
C90   C     C_R   0.033646 0.707198 0.543111 -0.282261
C91   C     C_R   0.003684 0.678162 0.255773 -0.251184
H48   H     H_    0.007060 0.622430 0.260076 0.162908
C92   C     C_R   0.997563 0.686657 0.183397 -0.083218
C93   C     C_R   0.995895 0.759883 0.177294 0.008943
C94   C     C_R   0.997521 0.822161 0.244365 -0.272077
H49   H     H_    0.993879 0.877853 0.240275 0.155978
C95   C     C_R   0.003102 0.813508 0.316479 -0.087328
C96   C     C_R   0.008600 0.742151 0.323998 0.035258
C97   C     C_R   0.047660 0.855237 0.117247 -0.095365
H50   H     H_    0.094691 0.908506 0.182457 0.156512
C98   C     C_R   0.043704 0.869046 0.047807 -0.119332
H51   H     H_    0.087673 0.931956 0.059750 0.145669
C99   C     C_R   0.983030 0.801776 0.963081 -0.126902
H52   H     H_    0.980029 0.812259 0.909190 0.143227
C100  C     C_R   0.925611 0.721141 0.947912 -0.129338
H53   H     H_    0.878682 0.669554 0.882387 0.136009
C101  C     C_R   0.928729 0.707106 0.017107 -0.117707
H54   H     H_    0.882218 0.644759 0.003965 0.099970
C102  C     C_R   0.991299 0.773477 0.102631 0.116944
H55   H     H_    0.401926 0.596956 0.050877 0.161381
C103  C     C_R   0.278982 0.549241 0.940840 -0.164600
H56   H     H_    0.298519 0.609853 0.939067 0.139719
C104  C     C_R   0.195512 0.478210 0.879806 -0.094974
H57   H     H_    0.151349 0.484395 0.830703 0.134634
C105  C     C_R   0.169240 0.399745 0.882444 0.118924
C106  C     C_R   0.229359 0.391897 0.944060 -0.211338
H58   H     H_    0.211541 0.330723 0.944772 0.142308
C107  C     C_R   0.312764 0.463178 0.005241 -0.093915
H59   H     H_    0.358486 0.457238 0.053389 0.161327
C108  C     C_R   0.337381 0.541894 0.003811 -0.067088
C109  C     C_R   0.077460 0.256204 0.751277 -0.251990
H60   H     H_    0.137254 0.260638 0.751627 0.158093
C110  C     C_R   0.996727 0.184604 0.684596 -0.079455
C111  C     C_R   0.918051 0.178794 0.681046 0.024086
C112  C     C_R   0.922724 0.244177 0.747954 -0.259967
H61   H     H_    0.862960 0.239782 0.747614 0.176028
C113  C     C_R   0.003306 0.315479 0.814931 -0.104481
C114  C     C_R   0.081871 0.323520 0.815918 -0.013208
C115  C     C_R   0.765768 0.121785 0.567337 -0.229316
H62   H     H_    0.782343 0.188317 0.581715 0.172923
C116  C     C_R   0.680004 0.053483 0.506280 0.342656
C117  C     C_R   0.659987 0.967916 0.489383 -0.111558
H63   H     H_    0.594387 0.914150 0.443412 0.210562
C118  C     C_R   0.724341 0.951213 0.532564 -0.108513
H64   H     H_    0.708390 0.885434 0.519567 0.175504
C119  C     C_R   0.808936 0.019357 0.593820 -0.120828
H65   H     H_    0.857191 0.005584 0.628772 0.103307
C120  C     C_R   0.830421 0.105094 0.611360 0.079586
N1    N     N_R   0.564147 0.915945 0.630409 0.210065
O25   O     O_R   0.537295 0.964764 0.668866 -0.358277
O26   O     O_R   0.647717 0.943762 0.663154 -0.431277
C121  C     C_2   0.248507 0.896253 0.315559 0.445043
H66   H     H_    0.248125 0.835936 0.309403 0.059162
O27   O     O_2   0.240058 0.910436 0.255297 -0.565248
C122  C     C_2   0.530383 0.307589 0.667788 0.382312
H67   H     H_    0.587422 0.316758 0.660161 0.113737
O28   O     O_2   0.474632 0.233177 0.639468 -0.570655
N2    N     N_R   0.191581 0.812836 0.624610 0.210556
O29   O     O_R   0.199636 0.804828 0.692534 -0.398338
O30   O     O_R   0.261167 0.862542 0.626904 -0.425535
N3    N     N_R   0.876395 0.599365 0.463303 0.220133
O31   O     O_R   0.882549 0.589136 0.529803 -0.417288
O32   O     O_R   0.800067 0.557219 0.394267 -0.390981
N4    N     N_R   0.613541 0.071069 0.462693 0.218071
O33   O     O_R   0.631871 0.150405 0.478667 -0.374742
O34   O     O_R   0.533819 0.008030 0.407238 -0.361809
N5    N     N_R   0.572101 0.705162 0.283959 0.182515
O35   O     O_R   0.490475 0.651162 0.225355 -0.433863
O36   O     O_R   0.590858 0.767001 0.356445 -0.458931

loop_
_geom_bond_atom_site_label_1
_geom_bond_atom_site_label_2
_geom_bond_distance
_ccdc_geom_bond_type
C115  C120  1.406552 A    
C91   C96   1.382063 A    
C37   C38   1.396467 A    
C49   C50   1.384112 A    
C74   H43   1.082079 S    
C107  C108  1.397624 A    
O12   Zn4   2.016027 S    
C21   H11   1.075894 S    
C29   H16   1.085705 S    
C2    C15   1.432811 S    
C18   H8    1.081829 S    
O14   C79   1.276343 A    
C41   C46   1.397992 A    
C93   C94   1.384546 A    
C87   C96   1.481891 S    
C75   H44   1.083015 S    
O11   Zn3   2.017805 S    
C65   C66   1.398417 A    
C66   C67   1.410344 A    
C31   C32   1.383493 A    
C48   C80   1.428807 S    
O12   C78   1.274327 A    
C20   C21   1.395864 A    
C119  H65   1.082511 S    
C62   C63   1.407962 A    
Zn1   O7    2.017588 S    
C79   C110  1.429791 S    
C60   C61   1.403502 A    
C11   H6    1.085511 S    
C19   H9    1.082540 S    
C112  C113  1.392702 A    
H55   C108  1.080926 S    
C71   C76   1.404905 A    
C42   C43   1.405162 A    
C59   C64   1.395296 A    
C12   C13   1.414982 A    
C18   C19   1.393798 A    
C47   C48   1.395650 A    
C6    H3    1.083022 S    
N1    O26   1.301377 A    
C63   C64   1.396754 A    
O4    C2    1.279112 A    
O7    C4    1.279760 A    
C115  C116  1.406202 A    
C91   C92   1.395342 A    
H1    C10   1.082372 S    
C5    H2    1.082221 S    
C92   C93   1.413130 A    
O10   Zn4   2.008665 S    
C67   C68   1.385350 A    
C62   C122  1.485408 S    
C68   H39   1.085362 S    
C103  C104  1.397275 A    
C17   C18   1.406042 A    
C111  C112  1.383376 A    
C85   C90   1.406637 A    
O5    C3    1.276012 A    
C69   C70   1.403196 A    
C66   C84   1.434743 S    
C35   C36   1.398562 A    
O17   C81   1.270722 A    
C95   C96   1.412039 A    
O13   C79   1.278128 A    
C23   C28   1.405317 A    
C4    C51   1.434809 S    
Zn6   O24   2.015155 S    
C23   C24   1.396793 A    
C110  C111  1.408971 A    
C106  C107  1.398481 A    
C55   C56   1.402010 A    
C104  C105  1.404594 A    
C61   C62   1.416083 A    
O19   Zn5   2.015028 S    
C97   H50   1.081794 S    
C109  H60   1.085851 S    
C47   C52   1.384864 A    
Zn5   O23   2.016930 S    
C77   C95   1.433402 S    
C63   H37   1.082666 S    
C30   C31   1.410010 A    
C106  H58   1.083064 S    
C1    C33   1.432657 S    
C97   C98   1.397359 A    
C37   H20   1.082275 S    
C49   C58   1.484663 S    
C8    H4    1.082014 S    
C13   C22   1.495998 S    
O23   C84   1.280147 A    
C21   C22   1.403563 A    
C65   C70   1.381830 A    
C72   C73   1.397742 A    
H34   C64   1.082579 S    
C54   H31   1.081656 S    
N5    O36   1.299006 A    
C105  C114  1.481093 S    
C61   C70   1.480409 S    
C65   H38   1.085037 S    
C86   C87   1.401278 A    
C71   C72   1.398477 A    
C98   H51   1.082340 S    
C29   C30   1.395167 A    
C42   H25   1.083352 S    
C119  C120  1.400066 A    
N2    O30   1.301331 A    
C24   C25   1.404863 A    
C23   H12   1.082366 S    
C41   H24   1.082445 S    
C118  C119  1.393688 A    
C27   H15   1.079755 S    
C3    C69   1.428050 S    
C47   H28   1.085470 S    
O22   C83   1.280636 A    
O3    C2    1.277039 A    
C112  H61   1.085545 S    
O15   C80   1.273889 A    
C116  C117  1.404506 A    
C121  H66   1.085892 S    
C44   C45   1.398889 A    
C115  H62   1.083434 S    
O10   C77   1.284630 A    
O11   C78   1.281229 A    
C116  N4    1.439851 S    
C26   C27   1.397825 A    
C32   H17   1.085541 S    
C45   H27   1.082119 S    
C44   H26   1.083110 S    
C75   C76   1.404477 A    
C33   C34   1.411776 A    
C27   C28   1.406041 A    
C36   C37   1.396993 A    
C122  O28   1.219537 D    
C105  C106  1.404410 A    
C104  H57   1.081298 S    
C13   C14   1.386510 A    
O9    Zn3   2.024119 S    
C83   C92   1.429953 S    
C121  O27   1.220277 D    
Zn3   O13   2.008791 S    
C85   N2    1.439864 S    
C11   C16   1.382425 A    
C98   C99   1.394860 A    
C118  H64   1.077874 S    
N4    O33   1.301638 A    
Zn2   O8    2.016409 S    
N1    O25   1.301920 A    
C55   H32   1.083139 S    
C7    C8    1.403488 A    
C35   H18   1.083418 S    
C53   C54   1.395134 A    
C117  H63   1.081712 S    
C35   C40   1.406912 A    
C59   C60   1.396244 A    
C5    C6    1.397882 A    
C113  C114  1.413015 A    
C54   C55   1.395496 A    
O17   Zn5   2.017276 S    
C41   C42   1.398835 A    
C53   C58   1.403455 A    
C68   C69   1.393522 A    
O18   Zn6   2.016016 S    
C7    C16   1.483740 S    
O19   C82   1.280100 A    
C89   N3    1.440474 S    
C91   H48   1.085768 S    
C57   C58   1.405932 A    
C50   C51   1.399251 A    
C26   H14   1.082482 S    
C28   N1    1.439595 S    
C8    C9    1.397611 A    
Zn4   O16   2.017894 S    
N3    O32   1.301641 A    
O16   C80   1.279972 A    
O20   Zn6   2.016927 S    
N5    O35   1.301164 A    
C30   C82   1.428931 S    
C17   N5    1.436695 S    
C20   H10   1.080898 S    
C39   H22   1.078164 S    
C94   H49   1.085244 S    
C73   C74   1.397828 A    
O18   C81   1.286327 A    
Zn6   O22   2.017062 S    
C5    C10   1.396683 A    
Zn1   O5    2.008130 S    
Zn3   O15   2.016279 S    
C24   H13   1.083543 S    
C88   H47   1.082714 S    
C74   C75   1.398361 A    
C99   C100  1.395147 A    
C93   C102  1.489375 S    
N2    O29   1.301601 A    
C48   C49   1.408548 A    
C38   H21   1.081482 S    
O2    Zn2   2.008128 S    
C17   C22   1.423646 A    
C94   C95   1.393950 A    
C109  C110  1.394428 A    
O9    C77   1.271784 A    
O6    C3    1.277346 A    
C81   C113  1.432336 S    
C45   C46   1.397489 A    
O4    Zn2   2.017585 S    
C39   C40   1.403243 A    
C97   C102  1.408751 A    
Zn4   O14   2.024080 S    
C29   C34   1.385136 A    
C43   C52   1.483395 S    
C60   H36   1.083554 S    
C11   C12   1.395794 A    
C101  C102  1.404798 A    
C57   H33   1.083592 S    
C12   C78   1.431546 S    
C15   C16   1.409134 A    
O24   C84   1.277673 A    
O2    C1    1.280185 A    
O8    C4    1.277243 A    
C19   C20   1.391475 A    
C86   H46   1.081929 S    
O20   C82   1.274605 A    
C36   H19   1.082358 S    
C14   C15   1.395244 A    
C43   C44   1.405848 A    
C51   C52   1.409240 A    
C14   H7    1.085167 S    
C89   C90   1.405870 A    
C103  C108  1.396776 A    
C25   C26   1.402305 A    
C88   C89   1.404747 A    
C53   H30   1.083112 S    
C117  C118  1.396712 A    
H45   C90   1.082150 S    
C6    C7    1.406457 A    
Zn5   O21   2.015804 S    
C31   C40   1.486827 S    
O21   C83   1.274705 A    
C122  H67   1.084347 S    
C85   C86   1.405602 A    
C100  C101  1.398160 A    
C87   C88   1.401477 A    
N4    O34   1.301688 A    
C9    H5    1.078618 S    
N3    O31   1.301727 A    
C107  H59   1.082384 S    
C9    C10   1.396402 A    
C111  C120  1.480723 S    
C50   H29   1.085082 S    
O3    Zn1   2.016406 S    
Zn2   O6    2.023761 S    
C56   C57   1.409082 A    
C25   C34   1.485839 S    
C59   H35   1.082312 S    
C38   C39   1.398739 A    
C71   H40   1.083501 S    
C103  H56   1.082313 S    
O1    Zn1   2.023757 S    
C101  H54   1.082353 S    
O1    C1    1.275983 A    
C72   H41   1.082433 S    
C56   C121  1.477373 S    
C32   C33   1.395694 A    
H23   C46   1.082679 S    
C99   H52   1.082511 S    
C100  H53   1.076717 S    
C73   H42   1.082497 S    
C109  C114  1.381883 A    
C67   C76   1.480110 S    
