data_mof_unit_24825.cif
_audit_creation_date              2012-12-10T18:47:34-0500
_audit_creation_method            fapswitch 2.2
_symmetry_space_group_name_H-M    P1
_symmetry_Int_Tables_number       1
_space_group_crystal_system       triclinic
_cell_length_a                    19.517401
_cell_length_b                    18.122729
_cell_length_c                    11.716279
_cell_angle_alpha                 89.841842
_cell_angle_beta                  90.808605
_cell_angle_gamma                 89.992345
_cell_volume                      4143.71974004

loop_
_atom_site_label
_atom_site_type_symbol
_atom_type_description
_atom_site_fract_x
_atom_site_fract_y
_atom_site_fract_z
_atom_type_partial_charge
C1    C     C_R   0.367726 0.500102 0.499495 0.872209
C2    C     C_R   0.632252 0.500117 0.501027 0.879643
C3    C     C_R   0.071939 0.504318 0.507975 0.182242
C4    C     C_R   0.927901 0.507792 0.521062 0.171333
C5    C     C_R   0.446540 0.720720 0.451272 -0.028880
C6    C     C_R   0.549602 0.279004 0.558780 -0.066141
C7    C     C_R   0.553114 0.721031 0.548852 -0.032662
C8    C     C_R   0.450506 0.279665 0.440472 -0.052005
C9    C     C_R   0.443262 0.798619 0.453949 0.295776
C10   C     C_R   0.552791 0.200697 0.556227 0.314873
C11   C     C_R   0.555750 0.799037 0.545999 0.297045
C12   C     C_R   0.447463 0.201614 0.441534 0.285345
C13   C     C_R   0.499390 0.838718 0.499674 -0.079010
C14   C     C_R   0.500037 0.161789 0.498307 -0.064373
C15   C     C_R   0.554891 0.961482 0.454333 -0.144298
C16   C     C_R   0.443698 0.039376 0.541418 -0.150213
C17   C     C_R   0.443690 0.961809 0.542387 -0.146262
C18   C     C_R   0.555116 0.039017 0.454184 -0.137128
C19   C     C_R   0.499576 0.078965 0.497816 0.223591
C20   C     C_R   0.499290 0.921705 0.498810 0.213006
C21   C     C_R   0.499653 0.500072 0.283685 0.782719
C22   C     C_R   0.499975 0.499902 0.716303 0.787257
C23   C     C_1   0.498799 0.500136 0.162126 -0.185806
C24   C     C_1   0.498969 0.499748 0.837808 -0.185894
C25   C     C_1   0.498237 0.499978 0.059776 -0.030413
C26   C     C_1   0.498254 0.499804 0.940124 -0.026751
C27   C     C_R   0.743394 0.454822 0.581987 0.306489
C28   C     C_R   0.258295 0.551762 0.570218 0.302852
C29   C     C_R   0.254475 0.451308 0.432100 0.321221
C30   C     C_R   0.743318 0.553280 0.439675 0.300921
C31   C     C_R   0.815126 0.459436 0.591287 0.319833
C32   C     C_R   0.186729 0.551415 0.575169 0.322082
C33   C     C_R   0.182566 0.453326 0.432051 0.331028
C34   C     C_R   0.814886 0.557004 0.446595 0.319133
C35   C     C_R   0.851734 0.508933 0.520801 -0.240113
C36   C     C_R   0.148003 0.503004 0.504628 -0.255985
C37   C     C_R   0.707439 0.501313 0.505501 -0.367039
C38   C     C_R   0.292512 0.500863 0.500552 -0.375299
C39   C     C_R   0.965870 0.573574 0.519815 -0.203865
C40   C     C_R   0.034362 0.438456 0.515229 -0.182898
C41   C     C_R   0.036620 0.571800 0.506853 -0.194240
C42   C     C_R   0.963030 0.440151 0.517142 -0.190574
Cu1   Cu    Cu3+1 0.500000 0.573360 0.500000 0.949840
Cu2   Cu    Cu3+1 0.500000 0.426640 0.500000 0.947866
H1    H     H_    0.941001 0.626663 0.527012 0.183399
H2    H     H_    0.059987 0.385526 0.518722 0.179171
H3    H     H_    0.063879 0.623536 0.498912 0.177597
H4    H     H_    0.935361 0.388386 0.515977 0.176431
H5    H     H_    0.405936 0.689633 0.410544 0.153584
H6    H     H_    0.586188 0.311062 0.607104 0.166747
H7    H     H_    0.593836 0.690099 0.589857 0.152811
H8    H     H_    0.413543 0.311533 0.391803 0.162813
H9    H     H_    0.598017 0.932485 0.418499 0.132606
H10   H     H_    0.400359 0.068615 0.576190 0.134520
H11   H     H_    0.400494 0.933081 0.578666 0.132484
H12   H     H_    0.598443 0.067935 0.418725 0.130892
N1    N     N_R   0.500000 0.683620 0.500000 -0.211932
N2    N     N_R   0.500000 0.316380 0.500000 -0.208139
O1    O     O_R   0.400190 0.561980 0.499980 -0.562604
O2    O     O_R   0.599810 0.438020 0.500020 -0.558371
O3    O     O_R   0.599810 0.561980 0.500020 -0.564231
O4    O     O_R   0.400190 0.438020 0.499980 -0.563157
O5    O     O_R   0.500010 0.561950 0.337200 -0.574036
O6    O     O_R   0.499990 0.438050 0.662800 -0.574275
O7    O     O_R   0.499990 0.561950 0.662800 -0.576930
O8    O     O_R   0.500010 0.438050 0.337200 -0.577202
O9    O     O_3   0.708874 0.403091 0.646725 -0.589857
C43   C     C_3   0.689402 0.435272 0.751198 0.091161
H13   H     H_    0.646085 0.474197 0.737030 0.115544
H14   H     H_    0.732208 0.466246 0.792080 0.142683
C44   C     C_3   0.666714 0.374245 0.832850 -0.333082
H15   H     H_    0.615480 0.353550 0.805516 0.213154
H16   H     H_    0.703590 0.327572 0.830014 0.220258
C45   C     C_3   0.663233 0.401731 0.955634 -0.926238
H17   H     H_    0.715331 0.415401 0.988472 0.253378
H18   H     H_    0.641106 0.358142 0.010738 0.264073
H19   H     H_    0.630740 0.451642 0.960268 0.267977
O10   O     O_3   0.294258 0.604884 0.630988 -0.575030
C46   C     C_3   0.314301 0.576747 0.739155 0.112249
H20   H     H_    0.367194 0.554964 0.734136 0.145111
H21   H     H_    0.281203 0.530884 0.770146 0.097321
C47   C     C_3   0.313324 0.639904 0.825419 -0.315211
H22   H     H_    0.353256 0.680981 0.802900 0.220093
H23   H     H_    0.262615 0.667816 0.821479 0.232375
C48   C     C_3   0.326286 0.612506 0.947027 -0.947795
H24   H     H_    0.284369 0.575052 0.973449 0.247030
H25   H     H_    0.327924 0.660193 0.006294 0.260567
H26   H     H_    0.375909 0.582881 0.953093 0.272363
O11   O     O_3   0.286861 0.399052 0.365790 -0.585383
C49   C     C_3   0.308029 0.431437 0.261936 0.071727
H27   H     H_    0.362148 0.449343 0.270804 0.141549
H28   H     H_    0.277314 0.480850 0.236108 0.106714
C50   C     C_3   0.303172 0.373527 0.167473 -0.322960
H29   H     H_    0.343151 0.330765 0.182299 0.208772
H30   H     H_    0.252175 0.346306 0.169685 0.231184
C51   C     C_3   0.312750 0.407720 0.049639 -0.932179
H31   H     H_    0.269918 0.446164 0.029610 0.243421
H32   H     H_    0.312935 0.363575 0.984143 0.259596
H33   H     H_    0.362063 0.438019 0.046163 0.270215
O12   O     O_3   0.708777 0.604646 0.372696 -0.573052
C52   C     C_3   0.690759 0.573062 0.266089 0.096145
H34   H     H_    0.638989 0.548135 0.271382 0.145209
H35   H     H_    0.726894 0.529021 0.238460 0.098281
C53   C     C_3   0.689157 0.634221 0.175893 -0.310068
H36   H     H_    0.648377 0.674602 0.196907 0.223689
H37   H     H_    0.739085 0.663718 0.176516 0.223682
C54   C     C_3   0.675628 0.603594 0.056567 -0.954178
H38   H     H_    0.716399 0.563891 0.033088 0.248608
H39   H     H_    0.675164 0.649463 0.993543 0.260161
H40   H     H_    0.625170 0.575601 0.053052 0.270232
O13   O     O_3   0.848486 0.414320 0.670098 -0.593957
C55   C     C_3   0.872374 0.456732 0.764122 0.074789
H41   H     H_    0.841566 0.507787 0.778184 0.116199
H42   H     H_    0.926147 0.474015 0.749621 0.158069
C56   C     C_3   0.870712 0.408871 0.871965 -0.315001
H43   H     H_    0.822007 0.377301 0.874150 0.237523
H44   H     H_    0.913638 0.368589 0.870257 0.209991
C57   C     C_3   0.876346 0.455209 0.980287 -0.984076
H45   H     H_    0.923822 0.488589 0.979768 0.272024
H46   H     H_    0.877684 0.418458 0.056265 0.262862
H47   H     H_    0.831539 0.492669 0.986908 0.250130
O14   O     O_3   0.155316 0.602010 0.645747 -0.590857
C58   C     C_3   0.131478 0.566191 0.745027 0.073359
H48   H     H_    0.173034 0.563638 0.810389 0.139694
H49   H     H_    0.113070 0.508829 0.728773 0.135391
C59   C     C_3   0.072648 0.611091 0.793615 -0.309839
H50   H     H_    0.091803 0.665957 0.821792 0.217143
H51   H     H_    0.032710 0.620084 0.726775 0.227436
C60   C     C_3   0.040204 0.571493 0.893829 -0.992788
H52   H     H_    0.026958 0.513787 0.870811 0.264087
H53   H     H_    0.992376 0.600644 0.915751 0.270252
H54   H     H_    0.075743 0.571358 0.968724 0.266772
O15   O     O_3   0.147032 0.402100 0.366708 -0.587047
C61   C     C_3   0.121918 0.435980 0.265730 0.065237
H55   H     H_    0.164589 0.457871 0.213931 0.135486
H56   H     H_    0.086197 0.482035 0.284916 0.142263
C62   C     C_3   0.083190 0.378316 0.195230 -0.312003
H57   H     H_    0.117564 0.330832 0.177968 0.219777
H58   H     H_    0.038692 0.357944 0.244475 0.219114
C63   C     C_3   0.057608 0.410398 0.081989 -0.961973
H59   H     H_    0.023400 0.458071 0.097646 0.261086
H60   H     H_    0.028341 0.367801 0.033892 0.265132
H61   H     H_    0.101521 0.428643 0.029576 0.258402
O16   O     O_3   0.846886 0.614824 0.391643 -0.595732
C64   C     C_3   0.875091 0.590661 0.288121 0.073691
H62   H     H_    0.833928 0.577646 0.225175 0.144452
H63   H     H_    0.907972 0.540917 0.299904 0.143835
C65   C     C_3   0.918692 0.653316 0.241051 -0.308926
H64   H     H_    0.886362 0.703352 0.229213 0.223442
H65   H     H_    0.960601 0.666487 0.302924 0.217757
C66   C     C_3   0.949764 0.632708 0.127386 -0.975961
H66   H     H_    0.983210 0.583539 0.137862 0.260835
H67   H     H_    0.981144 0.679354 0.095638 0.265472
H68   H     H_    0.908491 0.620807 0.063817 0.261100
O17   O     O_3   0.388938 0.836224 0.402622 -0.602938
C67   C     C_3   0.325150 0.813581 0.447753 0.045751
H69   H     H_    0.298332 0.863651 0.478545 0.153351
H70   H     H_    0.329371 0.775655 0.522911 0.147674
C68   C     C_3   0.280951 0.778309 0.353630 -0.334608
H71   H     H_    0.269986 0.819942 0.285960 0.225246
H72   H     H_    0.308893 0.731750 0.314180 0.209705
C69   C     C_3   0.213395 0.749527 0.400495 -0.901910
H73   H     H_    0.223199 0.706442 0.466320 0.292851
H74   H     H_    0.182394 0.724813 0.330198 0.245059
H75   H     H_    0.183734 0.795318 0.438737 0.253809
O18   O     O_3   0.602065 0.159446 0.615925 -0.608906
C70   C     C_3   0.668031 0.192177 0.620838 0.070571
H76   H     H_    0.701370 0.154221 0.671384 0.171867
H77   H     H_    0.668424 0.244457 0.669557 0.144914
C71   C     C_3   0.700094 0.201089 0.502366 -0.382855
H78   H     H_    0.700342 0.146873 0.458370 0.214339
H79   H     H_    0.669798 0.240552 0.449433 0.218746
C72   C     C_3   0.773509 0.229650 0.512073 -0.863394
H80   H     H_    0.774640 0.284069 0.555309 0.302941
H81   H     H_    0.795096 0.236206 0.425458 0.244610
H82   H     H_    0.805971 0.190094 0.561186 0.246773
O19   O     O_3   0.609317 0.837280 0.598156 -0.601166
C73   C     C_3   0.673939 0.814021 0.557422 0.048527
H83   H     H_    0.701500 0.863718 0.526630 0.156151
H84   H     H_    0.671144 0.775484 0.483216 0.146866
C74   C     C_3   0.716075 0.779590 0.655156 -0.342121
H85   H     H_    0.725977 0.821953 0.721800 0.227246
H86   H     H_    0.687066 0.733727 0.694784 0.209628
C75   C     C_3   0.784338 0.749764 0.613106 -0.892656
H87   H     H_    0.775429 0.706037 0.548413 0.297824
H88   H     H_    0.813790 0.725596 0.685869 0.244142
H89   H     H_    0.815056 0.794846 0.574829 0.254332
O20   O     O_3   0.397899 0.162648 0.380036 -0.605408
C76   C     C_3   0.331734 0.192544 0.395581 0.059841
H90   H     H_    0.324093 0.240856 0.338242 0.169289
H91   H     H_    0.323551 0.209273 0.486022 0.142478
C77   C     C_3   0.278195 0.134415 0.363805 -0.328332
H92   H     H_    0.286201 0.116066 0.274513 0.230562
H93   H     H_    0.284198 0.085823 0.421223 0.217565
C78   C     C_3   0.205664 0.165048 0.374023 -0.899179
H94   H     H_    0.196074 0.182623 0.463144 0.260748
H95   H     H_    0.167948 0.121659 0.350348 0.248771
H96   H     H_    0.198264 0.212997 0.315796 0.268526

loop_
_geom_bond_atom_site_label_1
_geom_bond_atom_site_label_2
_ccdc_geom_bond_type
C15   C18   A    
C50   H29   S    
C29   C33   A    
C21   O8    A    
C6    N2    A    
Cu2   O8    S    
O13   C55   S    
C65   C66   S    
C1    O4    A    
C17   C20   A    
C61   C62   S    
C55   H42   S    
C64   H62   S    
Cu1   O5    S    
C58   H48   S    
C39   C41   A    
C72   H80   S    
Cu2   O6    S    
C40   H2    S    
C62   H58   S    
C34   O16   S    
C52   H34   S    
C45   H18   S    
C15   H9    S    
C67   H69   S    
C63   H60   S    
C18   C19   A    
C1    O1    A    
C2    O2    A    
C48   H26   S    
C71   H78   S    
C56   H43   S    
C12   O20   S    
C51   H33   S    
C30   O12   S    
C33   C36   A    
C75   H87   S    
C55   C56   S    
C34   C35   A    
C66   H68   S    
C76   H91   S    
C9    C13   A    
C57   H45   S    
C53   H36   S    
C58   H49   S    
C8    N2    A    
Cu2   N2    S    
C16   C17   A    
C56   H44   S    
C45   H19   S    
C51   H32   S    
C29   C38   A    
C54   H38   S    
C68   H72   S    
C11   O19   S    
C28   O10   S    
C8    H8    S    
C2    O3    A    
Cu1   O1    S    
C39   H1    S    
C60   H54   S    
C40   C42   A    
C4    C35   S    
C52   H35   S    
C54   H39   S    
C5    H5    S    
C53   H37   S    
C55   H41   S    
C64   H63   S    
C73   H83   S    
C70   C71   S    
C69   H74   S    
C48   H25   S    
C16   C19   A    
C15   C20   A    
C62   C63   S    
C45   H17   S    
C30   C34   A    
C27   C31   A    
O9    C43   S    
C77   C78   S    
C32   O14   S    
C28   C32   A    
C63   H59   S    
C70   H77   S    
C10   C14   A    
C74   H86   S    
C70   H76   S    
C44   H16   S    
C29   O11   S    
C43   H13   S    
C58   C59   S    
C61   H56   S    
C59   C60   S    
Cu2   O4    S    
C25   C26   S    
C48   H24   S    
C6    H6    S    
C78   H94   S    
C30   C37   A    
O20   C76   S    
C57   H47   S    
C77   H93   S    
C74   H85   S    
C76   C77   S    
C7    C11   A    
Cu1   Cu2   S    
C22   O7    A    
C5    C9    A    
C46   C47   S    
C69   H75   S    
C49   H28   S    
C68   H71   S    
C4    C39   A    
C28   C38   A    
C8    C12   A    
C56   C57   S    
C51   H31   S    
C41   H3    S    
C68   C69   S    
C42   H4    S    
C65   H64   S    
C63   H61   S    
C72   H81   S    
C1    C38   S    
C43   H14   S    
C12   C14   A    
C3    C40   A    
O19   C73   S    
C52   C53   S    
C47   H23   S    
C21   C23   S    
O15   C61   S    
C54   H40   S    
C31   C35   A    
C32   C36   A    
C64   C65   S    
Cu1   O3    S    
C49   C50   S    
C46   H21   S    
C69   H73   S    
C74   C75   S    
C17   H11   S    
C3    C41   A    
C59   H51   S    
C13   C20   S    
O10   C46   S    
C14   C19   S    
C67   C68   S    
C24   C26   T    
C65   H65   S    
O16   C64   S    
C6    C10   A    
C44   C45   S    
C73   H84   S    
C43   C44   S    
C61   H55   S    
C18   H12   S    
C10   O18   S    
C50   C51   S    
C47   C48   S    
C62   H57   S    
C75   H89   S    
C5    N1    A    
C77   H92   S    
C78   H96   S    
C16   H10   S    
C67   H70   S    
Cu1   O7    S    
C7    H7    S    
C44   H15   S    
C11   C13   A    
C2    C37   S    
C49   H27   S    
O18   C70   S    
C4    C42   A    
C3    C36   S    
Cu2   O2    S    
C59   H50   S    
O12   C52   S    
C72   H82   S    
C75   H88   S    
C22   C24   S    
C66   H67   S    
C76   H90   S    
C57   H46   S    
C21   O5    A    
C73   C74   S    
C27   O9    S    
Cu1   N1    S    
C22   O6    A    
C46   H20   S    
C33   O15   S    
C23   C25   T    
C9    O17   S    
C50   H30   S    
C47   H22   S    
O17   C67   S    
O14   C58   S    
C31   O13   S    
C60   H52   S    
C71   H79   S    
C60   H53   S    
O11   C49   S    
C66   H66   S    
C7    N1    A    
C53   C54   S    
C27   C37   A    
C78   H95   S    
C71   C72   S    
