data_mof_unit_10404.cif
_audit_creation_date              2012-10-26T20:51:09-0400
_audit_creation_method            fapswitch 2.2
_symmetry_space_group_name_H-M    P1
_symmetry_Int_Tables_number       1
_space_group_crystal_system       triclinic
_cell_length_a                    12.999406
_cell_length_b                    10.813375
_cell_length_c                    9.543253
_cell_angle_alpha                 89.802888
_cell_angle_beta                  96.080378
_cell_angle_gamma                 90.181455
_cell_volume                      1333.91082314

loop_
_atom_site_label
_atom_site_type_symbol
_atom_type_description
_atom_site_fract_x
_atom_site_fract_y
_atom_site_fract_z
_atom_type_partial_charge
C1    C     C_R   0.501547 0.262418 0.500520 0.549498
C2    C     C_R   0.547603 0.936339 0.391715 -0.163015
C3    C     C_R   0.509746 0.871045 0.503077 0.006711
C4    C     C_R   0.300515 0.500100 0.473769 0.546005
C5    C     C_R   0.485568 0.936118 0.621279 0.015539
C6    C     C_3   0.390132 0.930068 0.695857 -0.269360
C7    C     C_3   0.391407 0.070359 0.696916 -0.271319
C8    C     C_R   0.576156 0.560025 0.084403 0.148646
C9    C     C_R   0.430709 0.431176 0.064718 -0.016991
C10   C     C_R   0.430656 0.431211 0.915803 -0.018747
C11   C     C_R   0.576777 0.559350 0.936901 0.176100
C12   C     C_R   0.027980 0.498620 0.567538 0.048262
C13   C     C_3   0.602204 0.694214 0.934418 -0.150039
C14   C     C_3   0.600331 0.694682 0.093417 -0.261647
C15   C     C_R   0.501465 0.737717 0.500216 0.546408
C16   C     C_R   0.699475 0.500303 0.526229 0.542352
C17   C     C_R   0.812250 0.500507 0.541332 -0.001642
C18   C     C_R   0.187717 0.500994 0.458661 -0.001433
C19   C     C_R   0.024238 0.507991 0.311650 -0.140118
C20   C     C_R   0.131760 0.506299 0.324667 -0.138092
C21   C     C_R   0.135406 0.497148 0.579672 -0.134212
C22   C     C_3   0.709007 0.720719 0.887383 -0.408186
C23   C     C_R   0.971975 0.504127 0.432474 0.047943
C24   C     C_R   0.864543 0.505333 0.420338 -0.131308
C25   C     C_R   0.868208 0.495217 0.675303 -0.141375
C26   C     C_R   0.975718 0.494451 0.688353 -0.139962
C27   C     C_R   0.486203 0.063474 0.621621 0.026627
C28   C     C_R   0.510294 0.129406 0.503542 0.009612
C29   C     C_R   0.547338 0.065343 0.391458 -0.160233
Cu1   Cu    Cu3+1 0.499990 0.499980 0.640670 0.931333
Cu2   Cu    Cu3+1 0.500010 0.500020 0.359330 0.930180
H1    H     H_    0.821904 0.509734 0.316413 0.119551
H2    H     H_    0.982075 0.512209 0.207491 0.098173
H3    H     H_    0.017866 0.490183 0.792512 0.098224
H4    H     H_    0.170950 0.509416 0.230048 0.125610
H5    H     H_    0.178029 0.492859 0.683601 0.116442
H6    H     H_    0.572745 0.114414 0.302092 0.134733
H7    H     H_    0.574396 0.888480 0.303462 0.120226
H8    H     H_    0.322777 0.890293 0.629248 0.138767
H9    H     H_    0.373388 0.377334 0.112538 0.113926
H10   H     H_    0.706505 0.708870 0.771662 0.170414
H11   H     H_    0.731371 0.817814 0.913254 0.130789
H12   H     H_    0.404689 0.889282 0.803031 0.127998
H13   H     H_    0.768573 0.657905 0.940541 0.123150
H14   H     H_    0.324573 0.112393 0.631451 0.132068
H15   H     H_    0.408030 0.109957 0.804317 0.133812
H16   H     H_    0.373303 0.377347 0.851929 0.110677
H17   H     H_    0.539674 0.750787 0.878324 0.158781
H18   H     H_    0.676254 0.713198 0.155110 0.125086
H19   H     H_    0.534533 0.749102 0.125551 0.135024
H20   H     H_    0.829038 0.491080 0.769859 0.127058
N1    N     N_R   0.500660 0.500930 0.148010 -0.234078
N2    N     N_R   0.500660 0.500890 0.852110 -0.237190
O1    O     O_R   0.500000 0.319640 0.618810 -0.497124
O2    O     O_R   0.500010 0.319680 0.381230 -0.507340
O3    O     O_R   0.348990 0.499960 0.599490 -0.512741
O4    O     O_R   0.349000 0.500000 0.361910 -0.507200
O5    O     O_R   0.499990 0.680320 0.618770 -0.505013
O6    O     O_R   0.500000 0.680360 0.381190 -0.506774
O7    O     O_R   0.651000 0.500000 0.638090 -0.505660
O8    O     O_R   0.651010 0.500040 0.400510 -0.504928

loop_
_geom_bond_atom_site_label_1
_geom_bond_atom_site_label_2
_ccdc_geom_bond_type
C4    O4    A    
C1    C28   S    
C19   C23   A    
C23   C24   A    
C25   H20   S    
C6    C7    S    
C13   H17   S    
C18   C21   A    
C11   C13   S    
C9    C10   A    
C2    H7    S    
C19   C20   A    
C11   N2    A    
C5    C27   A    
Cu2   N1    S    
C1    O1    A    
C4    C18   S    
Cu2   O4    S    
C24   H1    S    
C2    C3    A    
C1    O2    A    
C7    C27   S    
C21   H5    S    
C22   H11   S    
C13   C14   S    
C4    O3    A    
C17   C25   A    
Cu1   O1    S    
C12   C23   A    
C14   H19   S    
C9    N1    A    
C15   O6    A    
C2    C29   A    
Cu1   O5    S    
C28   C29   A    
C15   O5    A    
C13   C22   S    
C18   C20   A    
C6    H12   S    
C8    C11   A    
C16   O7    A    
C5    C6    S    
Cu1   N2    S    
C22   H10   S    
C16   O8    A    
C29   H6    S    
C17   C24   A    
C7    H15   S    
C7    H14   S    
C8    N1    A    
C27   C28   A    
C3    C15   S    
C14   H18   S    
C19   H2    S    
Cu2   O6    S    
C10   H16   S    
C10   N2    A    
Cu2   O8    S    
Cu1   Cu2   S    
C8    C14   S    
Cu2   O2    S    
C25   C26   A    
C6    H8    S    
C20   H4    S    
Cu1   O3    S    
C12   C21   A    
C26   H3    S    
C9    H9    S    
C22   H13   S    
C12   C26   A    
C16   C17   S    
C3    C5    A    
Cu1   O7    S    
