data_mof_unit_58072.cif
_audit_creation_date              2012-10-26T21:08:07-0400
_audit_creation_method            fapswitch 2.2
_symmetry_space_group_name_H-M    P1
_symmetry_Int_Tables_number       1
_space_group_crystal_system       triclinic
_cell_length_a                    15.826393
_cell_length_b                    10.805013
_cell_length_c                    9.596447
_cell_angle_alpha                 90.382671
_cell_angle_beta                  88.076257
_cell_angle_gamma                 92.642882
_cell_volume                      1638.34343029

loop_
_atom_site_label
_atom_site_type_symbol
_atom_type_description
_atom_site_fract_x
_atom_site_fract_y
_atom_site_fract_z
_atom_type_partial_charge
C1    C     C_R   0.508604 0.263617 0.499579 0.551935
C2    C     C_R   0.549700 0.065450 0.878034 -0.092875
C3    C     C_R   0.500603 0.955671 0.887228 -0.133688
C4    C     C_R   0.339874 0.498642 0.502359 0.553532
C5    C     C_R   0.477872 0.892533 0.766074 -0.107931
C6    C     C_R   0.501007 0.941779 0.633067 0.008141
C7    C     C_R   0.531791 0.066047 0.626425 0.045872
C8    C     C_R   0.521298 0.130457 0.500067 -0.010611
C9    C     C_R   0.507753 0.064095 0.376452 -0.166490
C10   C     C_R   0.498947 0.936469 0.378697 -0.165367
C11   C     C_R   0.494597 0.873455 0.505984 -0.010137
C12   C     C_3   0.082421 0.488557 0.515732 -0.069561
C13   C     C_R   0.612582 0.664131 0.139524 -0.098720
C14   C     C_R   0.666114 0.747373 0.065825 -0.158882
C15   C     C_R   0.665869 0.749554 0.921660 -0.031305
C16   C     C_R   0.495803 0.737909 0.501599 0.532720
C17   C     C_R   0.611677 0.666832 0.851837 -0.076587
C18   C     C_R   0.555249 0.581284 0.923074 0.082644
C19   C     C_R   0.555330 0.580823 0.072453 0.125283
C20   C     C_R   0.447170 0.423352 0.076742 -0.001979
C21   C     C_R   0.445128 0.425171 0.928113 0.367615
C22   C     C_R   0.660060 0.499387 0.497711 0.520125
C23   C     C_3   0.968348 0.566683 0.598051 0.244170
C24   C     C_3   0.967322 0.375034 0.532932 0.238702
C25   C     C_3   0.031540 0.406333 0.412182 -0.097103
C26   C     C_1   0.249957 0.495022 0.509163 -0.046806
C27   C     C_1   0.749637 0.494684 0.491869 -0.031629
C28   C     C_3   0.019677 0.454017 0.638408 -0.141060
C29   C     C_3   0.723015 0.840040 0.840520 -0.413024
C30   C     C_3   0.304307 0.368965 0.896183 0.007577
C31   C     C_3   0.260166 0.252155 0.958575 -0.270561
C32   C     C_3   0.168207 0.274354 0.001066 -0.493385
C33   C     C_3   0.962387 0.186381 0.652190 0.011175
C34   C     C_3   0.916626 0.487495 0.495231 0.093921
C35   C     C_3   0.047588 0.136421 0.602264 -0.268814
C36   C     C_3   0.078237 0.041570 0.704062 -0.486829
C37   C     C_3   0.034123 0.582480 0.160551 -0.000627
C38   C     C_3   0.039805 0.720104 0.123243 -0.260013
C39   C     C_3   0.112636 0.749914 0.018702 -0.487855
C40   C     C_3   0.913304 0.615529 0.820041 0.001392
C41   C     C_3   0.836981 0.522504 0.831114 -0.285559
C42   C     C_3   0.814640 0.489550 0.982671 -0.449926
C43   C     C_3   0.637570 0.220838 0.741467 -0.356609
C44   C     C_3   0.032948 0.603722 0.479819 -0.075527
C45   C     C_3   0.981593 0.521083 0.378945 0.247932
C46   C     C_1   0.174202 0.491624 0.515010 -0.078874
C47   C     C_1   0.825114 0.490528 0.489782 0.018788
C48   C     C_R   0.568512 0.119824 0.747890 0.039948
Cu1   Cu    Cu3+1 0.499990 0.499990 0.640660 0.950694
Cu2   Cu    Cu3+1 0.500010 0.500010 0.359340 0.914075
H1    H     H_    0.058532 0.339754 0.336126 0.105719
H2    H     H_    0.040276 0.427744 0.743088 0.074180
H3    H     H_    0.502807 0.110734 0.277647 0.135459
H4    H     H_    0.574477 0.107024 0.972192 0.108232
H5    H     H_    0.762286 0.899583 0.910290 0.127447
H6    H     H_    0.765837 0.789272 0.768880 0.154030
H7    H     H_    0.684443 0.900565 0.777632 0.149570
H8    H     H_    0.271457 0.392168 0.799996 0.166823
H9    H     H_    0.296222 0.448940 0.969167 0.096055
H10   H     H_    0.261822 0.175777 0.880444 0.174802
H11   H     H_    0.293931 0.223219 0.051709 0.154965
H12   H     H_    0.484003 0.915854 0.988272 0.111100
H13   H     H_    0.165118 0.348487 0.081651 0.140595
H14   H     H_    0.137689 0.187960 0.045052 0.143806
H15   H     H_    0.132725 0.301762 0.909075 0.137411
H16   H     H_    0.917738 0.106168 0.675119 0.160180
H17   H     H_    0.967959 0.238326 0.752126 0.109992
H18   H     H_    0.040705 0.091883 0.498267 0.176462
H19   H     H_    0.096060 0.213794 0.592417 0.158997
H20   H     H_    0.084546 0.083425 0.809367 0.142886
H21   H     H_    0.140991 0.009991 0.667369 0.149728
H22   H     H_    0.033068 0.959828 0.710734 0.169051
H23   H     H_    0.439690 0.807782 0.779030 0.147953
H24   H     H_    0.029748 0.525539 0.064383 0.128683
H25   H     H_    0.094465 0.558202 0.208551 0.119340
H26   H     H_    0.979523 0.746663 0.078564 0.165052
H27   H     H_    0.049656 0.776115 0.219293 0.158972
H28   H     H_    0.173850 0.727015 0.063281 0.146245
H29   H     H_    0.114826 0.850279 0.993876 0.147089
H30   H     H_    0.103687 0.696513 0.920591 0.150911
H31   H     H_    0.898151 0.697901 0.884184 0.154078
H32   H     H_    0.970012 0.577252 0.864822 0.122543
H33   H     H_    0.781439 0.562899 0.784124 0.182550
H34   H     H_    0.493065 0.887506 0.280347 0.136771
H35   H     H_    0.851197 0.435753 0.774290 0.164775
H36   H     H_    0.867190 0.440714 0.028662 0.179613
H37   H     H_    0.756674 0.427537 0.987574 0.146021
H38   H     H_    0.802555 0.574327 0.044822 0.183265
H39   H     H_    0.694964 0.187662 0.790307 0.101916
H40   H     H_    0.656351 0.246315 0.632673 0.140108
H41   H     H_    0.617098 0.303740 0.800103 0.170597
H42   H     H_    0.404988 0.359881 0.135157 0.120398
H43   H     H_    0.618797 0.669554 0.249093 0.189157
H44   H     H_    0.708205 0.810138 0.122217 0.120377
H45   H     H_    0.616113 0.674866 0.741839 0.192536
H46   H     H_    0.061107 0.698229 0.460206 0.111458
N1    N     N_R   0.500800 0.501210 0.147910 -0.270965
N2    N     N_R   0.500830 0.501290 0.852040 -0.244044
O1    O     O_R   0.499990 0.319640 0.618810 -0.448026
O2    O     O_3   0.926096 0.256642 0.547963 -0.574215
O3    O     O_3   0.959976 0.556091 0.244026 -0.578006
O4    O     O_3   0.929985 0.657700 0.682435 -0.581514
O5    O     O_R   0.500000 0.319660 0.381240 -0.510232
O6    O     O_R   0.379070 0.499980 0.618770 -0.469265
O7    O     O_R   0.379080 0.500000 0.381190 -0.497919
O8    O     O_R   0.500000 0.680340 0.618760 -0.537077
O9    O     O_R   0.500010 0.680360 0.381190 -0.520832
O10   O     O_R   0.620920 0.500000 0.618810 -0.541214
O11   O     O_R   0.620930 0.500020 0.381230 -0.508541
O12   O     O_3   0.389651 0.345666 0.858353 -0.533953

loop_
_geom_bond_atom_site_label_1
_geom_bond_atom_site_label_2
_ccdc_geom_bond_type
C37   H24   S    
C1    C8    S    
C41   C42   S    
C31   H11   S    
C35   C36   S    
C1    O1    A    
Cu1   O6    S    
C21   O12   S    
C19   N1    A    
C7    C8    A    
C38   H26   S    
C20   H42   S    
C43   H39   S    
C30   O12   S    
C5    C6    A    
C30   C31   S    
C23   O4    S    
C41   H33   S    
C4    O6    A    
C18   C19   A    
C16   O9    A    
Cu1   N2    S    
C20   N1    A    
C8    C9    A    
Cu2   O7    S    
C42   H36   S    
C9    C10   A    
C1    O5    A    
C36   H21   S    
C16   O8    A    
C23   C34   S    
C37   H25   S    
Cu2   O5    S    
C13   C14   A    
C36   H20   S    
C33   H16   S    
C15   C29   S    
Cu1   O10   S    
C43   H40   S    
C13   C19   A    
C39   H28   S    
C40   H32   S    
C24   C25   S    
C32   H14   S    
C12   C46   S    
C2    H4    S    
C6    C11   A    
C29   H5    S    
C2    C48   A    
Cu2   O11   S    
C43   H41   S    
C23   C44   S    
C13   H43   S    
C39   H29   S    
C31   H10   S    
C25   H1    S    
C37   C38   S    
C44   H46   S    
Cu1   O1    S    
C11   C16   S    
C31   C32   S    
C22   O11   A    
C30   H9    S    
C17   C18   A    
C34   C45   S    
C23   C28   S    
C6    C7    A    
C45   O3    S    
C17   H45   S    
C40   C41   S    
C29   H6    S    
C29   H7    S    
C22   C27   S    
Cu2   O9    S    
C9    H3    S    
C25   C45   S    
C44   C45   S    
C33   H17   S    
C43   C48   S    
C3    H12   S    
C27   C47   T    
C15   C17   A    
Cu2   N1    S    
C24   O2    S    
C40   H31   S    
C24   C28   S    
C32   H13   S    
C3    C5    A    
C4    C26   S    
Cu1   O8    S    
C34   C47   S    
C38   H27   S    
C41   H35   S    
C4    O7    A    
C12   C25   S    
C33   O2    S    
C7    C48   A    
C2    C3    A    
C12   C44   S    
C39   H30   S    
C37   O3    S    
C21   N2    A    
C28   H2    S    
C38   C39   S    
C35   H18   S    
C22   O10   A    
C30   H8    S    
C10   H34   S    
C33   C35   S    
C5    H23   S    
C24   C34   S    
C10   C11   A    
C26   C46   T    
C40   O4    S    
C42   H38   S    
C20   C21   A    
C35   H19   S    
Cu1   Cu2   S    
C14   C15   A    
C42   H37   S    
C18   N2    A    
C12   C28   S    
C14   H44   S    
C36   H22   S    
C32   H15   S    
