data_mof_unit_64984.cif
_audit_creation_date              2012-12-10T20:26:57-0500
_audit_creation_method            fapswitch 2.2
_symmetry_space_group_name_H-M    P1
_symmetry_Int_Tables_number       1
_space_group_crystal_system       triclinic
_cell_length_a                    41.685537
_cell_length_b                    35.502048
_cell_length_c                    21.630306
_cell_angle_alpha                 90.043924
_cell_angle_beta                  121.631964
_cell_angle_gamma                 89.993429
_cell_volume                      27255.3995471

loop_
_atom_site_label
_atom_site_type_symbol
_atom_type_description
_atom_site_fract_x
_atom_site_fract_y
_atom_site_fract_z
_atom_type_partial_charge
C1    C     C_R   0.073364 0.000018 0.072438 0.868849
C2    C     C_R   0.979907 0.026890 0.698625 0.057894
C3    C     C_R   0.385447 0.499840 0.888049 -0.085703
C4    C     C_R   0.133894 0.971006 0.162457 -0.226499
C5    C     C_R   0.866155 0.969902 0.839799 -0.219609
C6    C     C_R   0.633893 0.470992 0.162417 -0.226956
C7    C     C_R   0.366099 0.470935 0.837559 -0.226932
C8    C     C_R   0.173033 0.969929 0.201332 -0.174298
C9    C     C_R   0.827023 0.968676 0.800882 -0.176476
C10   C     C_R   0.673031 0.469900 0.201265 -0.173750
C11   C     C_R   0.326959 0.469830 0.798707 -0.173358
C12   C     C_R   0.193067 0.997583 0.189742 0.138337
C13   C     C_R   0.519242 0.527503 0.300747 0.066661
C14   C     C_R   0.806851 0.997306 0.809668 0.137142
C15   C     C_R   0.693066 0.497528 0.189617 0.138385
C16   C     C_R   0.306933 0.497470 0.810390 0.138174
C17   C     C_R   0.999993 0.073352 0.499899 0.958565
C18   C     C_R   0.500005 0.573380 0.500007 0.928987
C19   C     C_R   0.999885 0.999999 0.379602 0.923735
C20   C     C_R   0.000140 0.000067 0.620287 0.917316
C21   C     C_R   0.499859 0.500044 0.379739 0.908910
C22   C     C_R   0.500141 0.500034 0.620260 0.909135
C23   C     C_R   0.999995 0.926617 0.500022 0.867391
C24   C     C_R   0.480741 0.527458 0.699302 0.066580
C25   C     C_R   0.499994 0.426617 0.499999 0.868916
C26   C     C_R   0.499999 0.073256 0.500020 0.892871
C27   C     C_R   0.999999 0.573256 0.500023 0.892699
C28   C     C_R   0.426615 0.999757 0.426426 0.869284
C29   C     C_R   0.573380 0.999734 0.573562 0.869444
C30   C     C_R   0.926615 0.499754 0.426424 0.868933
C31   C     C_R   0.073385 0.499755 0.573576 0.869452
C32   C     C_R   0.950999 0.914831 0.122911 -0.097638
C33   C     C_R   0.041929 0.908937 0.863061 -0.105958
C34   C     C_R   0.459392 0.408063 0.138935 -0.108332
C35   C     C_R   0.022866 0.023349 0.239900 -0.261831
C36   C     C_R   0.540505 0.408009 0.860711 -0.108411
C37   C     C_R   0.500004 0.926562 0.499983 0.930979
C38   C     C_R   0.999908 0.426571 0.499866 0.930110
C39   C     C_R   0.509580 0.826347 0.563884 0.448756
C40   C     C_R   0.490540 0.826315 0.436004 0.448803
C41   C     C_R   0.012170 0.326022 0.563541 0.447882
C42   C     C_R   0.986558 0.326650 0.432847 0.448072
C43   C     C_R   0.509961 0.865583 0.563756 -0.280422
C44   C     C_R   0.490117 0.865552 0.436156 -0.280456
C45   C     C_R   0.012481 0.365314 0.564009 -0.284761
C46   C     C_R   0.980650 0.026396 0.763074 -0.269917
C47   C     C_R   0.986447 0.365897 0.433784 -0.285364
C48   C     C_R   0.500026 0.885352 0.499962 -0.181319
C49   C     C_R   0.999564 0.385378 0.499259 -0.174603
C50   C     C_R   0.500068 0.806822 0.499936 -0.101381
C51   C     C_R   0.999306 0.306828 0.497800 -0.098281
C52   C     C_1   0.500069 0.766750 0.499919 0.053739
C53   C     C_1   0.999471 0.266726 0.496979 0.053471
C54   C     C_1   0.999669 0.233123 0.496413 -0.041474
C55   C     C_1   0.500062 0.733170 0.499927 -0.053447
C56   C     C_R   0.030537 0.173503 0.553874 0.004976
C57   C     C_R   0.518389 0.527146 0.236184 -0.252396
C58   C     C_R   0.969481 0.172928 0.440107 -0.018646
C59   C     C_R   0.532840 0.673358 0.550141 0.009222
C60   C     C_R   0.467236 0.673332 0.449804 0.008940
C61   C     C_R   0.030310 0.134298 0.554621 -0.266967
C62   C     C_R   0.969432 0.133727 0.442096 -0.187007
C63   C     C_R   0.532631 0.634154 0.549930 -0.187712
C64   C     C_R   0.467416 0.634128 0.450060 -0.187037
C65   C     C_R   0.999956 0.114368 0.498767 -0.054261
C66   C     C_R   0.500018 0.614450 0.500001 -0.093573
C67   C     C_R   0.944417 0.953136 0.128125 0.132311
C68   C     C_R   0.481568 0.527078 0.763836 -0.252412
C69   C     C_R   0.050383 0.947400 0.865779 0.141034
C70   C     C_R   0.450512 0.446468 0.135109 0.141454
C71   C     C_R   0.549409 0.446416 0.864682 0.141402
C72   C     C_R   0.000026 0.192907 0.496438 0.012833
C73   C     C_R   0.500047 0.693001 0.499954 -0.001234
C74   C     C_R   0.499755 0.173507 0.443454 0.019842
C75   C     C_R   0.500172 0.173514 0.556743 0.019803
C76   C     C_R   0.999786 0.673519 0.443540 0.019826
C77   C     C_R   0.000172 0.673501 0.556798 0.019821
C78   C     C_R   0.499776 0.134276 0.443752 -0.237909
C79   C     C_R   0.997759 0.999867 0.183720 -0.092823
C80   C     C_R   0.500182 0.134283 0.556391 -0.237843
C81   C     C_R   0.999801 0.634288 0.443806 -0.238147
C82   C     C_R   0.000176 0.634270 0.556415 -0.238163
C83   C     C_R   0.499987 0.114490 0.500058 -0.075562
C84   C     C_R   0.999993 0.614489 0.500081 -0.075575
C85   C     C_R   0.499956 0.193209 0.500112 0.046202
C86   C     C_R   0.999974 0.693208 0.500198 0.046150
C87   C     C_1   0.499949 0.233456 0.500142 -0.033441
C88   C     C_1   0.999968 0.733455 0.500260 -0.033684
C89   C     C_1   0.999966 0.767071 0.500293 -0.048514
C90   C     C_R   0.002356 0.999752 0.816012 -0.097272
C91   C     C_1   0.499949 0.267072 0.500146 -0.047879
C92   C     C_R   0.034077 0.826450 0.538715 -0.158619
C93   C     C_R   0.965867 0.826430 0.461814 -0.158341
C94   C     C_R   0.534065 0.326447 0.538615 -0.158130
C95   C     C_R   0.465861 0.326436 0.461595 -0.157955
C96   C     C_R   0.034134 0.865611 0.538658 -0.184534
C97   C     C_R   0.965825 0.865592 0.461697 -0.188627
C98   C     C_R   0.534127 0.365607 0.538594 -0.184307
C99   C     C_R   0.465823 0.365597 0.461520 -0.184340
C100  C     C_R   0.999984 0.885444 0.500119 -0.037560
C101  C     C_R   0.497445 0.499879 0.183868 -0.100324
C102  C     C_R   0.499981 0.385445 0.500031 -0.036853
C103  C     C_R   0.910465 0.969666 0.074669 -0.167355
C104  C     C_R   0.083836 0.961588 0.925262 -0.153176
C105  C     C_R   0.417112 0.460141 0.074799 -0.147693
C106  C     C_R   0.582809 0.460087 0.925060 -0.147514
C107  C     C_R   0.999969 0.807028 0.500296 0.155206
C108  C     C_R   0.499957 0.307029 0.500130 0.154499
C109  C     C_R   0.883307 0.948004 0.016717 -0.123896
C110  C     C_R   0.108632 0.937486 0.981213 -0.119037
C111  C     C_R   0.392799 0.435595 0.019151 -0.118740
C112  C     C_R   0.926612 0.000016 0.927486 0.872984
C113  C     C_R   0.502504 0.499817 0.816077 -0.100258
C114  C     C_R   0.607096 0.435539 0.980635 -0.118786
C115  C     C_R   0.890135 0.909966 0.011289 -0.096438
C116  C     C_R   0.099984 0.899256 0.978473 -0.102279
C117  C     C_R   0.401861 0.397421 0.023042 -0.103390
C118  C     C_R   0.598011 0.397364 0.976599 -0.103580
C119  C     C_R   0.974099 0.975458 0.256061 -0.075723
C120  C     C_R   0.022746 0.972505 0.740141 -0.074462
C121  C     C_R   0.477814 0.472026 0.260442 -0.071335
C122  C     C_R   0.522156 0.471997 0.739454 -0.071394
C123  C     C_3   0.150831 0.106710 0.591200 0.082976
C124  C     C_R   0.972852 0.975996 0.190411 -0.053155
C125  C     C_3   0.128252 0.105793 0.628735 -0.375557
C126  C     C_3   0.152006 0.091443 0.706542 -0.935108
C127  C     C_3   0.909798 0.180974 0.521969 0.060265
C128  C     C_3   0.879462 0.208839 0.470894 -0.291280
C129  C     C_3   0.893498 0.249414 0.488835 -0.973940
C130  C     C_3   0.615675 0.669267 0.475121 0.053637
C131  C     C_3   0.629047 0.705071 0.521159 -0.294869
C132  C     C_3   0.649013 0.731583 0.496542 -0.981014
C133  C     C_3   0.384433 0.669200 0.525070 0.053570
C134  C     C_3   0.371074 0.704947 0.478977 -0.294655
C135  C     C_R   0.024284 0.973033 0.806126 -0.049762
C136  C     C_3   0.351205 0.731570 0.503676 -0.981456
C137  C     C_3   0.992662 0.123730 0.305173 0.061958
C138  C     C_3   0.950582 0.125087 0.247998 -0.304172
C139  C     C_3   0.939987 0.161624 0.204525 -0.941092
C140  C     C_3   0.029483 0.111309 0.748042 0.090064
C141  C     C_3   0.047378 0.148311 0.744867 -0.350936
C142  C     C_3   0.064271 0.170027 0.816138 -0.934294
C143  C     C_3   0.471518 0.621365 0.250990 0.087138
C144  C     C_3   0.447812 0.651808 0.258559 -0.337998
C145  C     C_3   0.432708 0.680256 0.196653 -0.947884
C146  C     C_R   0.476152 0.472610 0.194333 -0.048312
C147  C     C_3   0.528581 0.621331 0.748951 0.087219
C148  C     C_3   0.552263 0.651728 0.741226 -0.338380
C149  C     C_3   0.567453 0.680243 0.803121 -0.947653
C150  C     C_1   0.116562 0.056498 0.045199 0.161537
C151  C     C_1   0.882914 0.058793 0.948773 0.164506
C152  C     C_1   0.616557 0.556427 0.045040 0.161911
C153  C     C_1   0.383462 0.556431 0.955052 0.161894
C154  C     C_3   0.490218 0.793400 0.629635 0.082718
C155  C     C_3   0.501686 0.757027 0.674090 -0.294094
C156  C     C_3   0.468334 0.739026 0.673607 -1.009364
C157  C     C_R   0.523793 0.472560 0.805542 -0.048397
C158  C     C_3   0.509948 0.793369 0.370259 0.082763
C159  C     C_3   0.498523 0.756959 0.325808 -0.294288
C160  C     C_3   0.531890 0.739015 0.326252 -1.009165
C161  C     C_3   0.998666 0.295408 0.639738 0.075900
C162  C     C_3   0.014014 0.265159 0.698740 -0.293316
C163  C     C_3   0.983510 0.250428 0.711299 -0.999597
C164  C     C_3   0.001130 0.297224 0.356856 0.084987
C165  C     C_3   0.988077 0.263566 0.305104 -0.308737
C166  C     C_3   0.018817 0.250115 0.292087 -0.979325
C167  C     C_1   0.062090 0.193257 0.612875 0.133513
C168  C     C_R   0.089882 0.041920 0.396893 -0.293465
C169  C     C_1   0.937756 0.192071 0.380410 0.148826
C170  C     C_1   0.566868 0.692845 0.602601 0.175610
C171  C     C_1   0.433217 0.692792 0.397342 0.174991
C172  C     C_1   0.499523 0.192961 0.384530 0.156600
C173  C     C_1   0.500389 0.192978 0.615693 0.156804
C174  C     C_1   0.999574 0.692987 0.384650 0.156163
C175  C     C_1   0.000376 0.692950 0.615747 0.156268
C176  C     C_1   0.950219 0.949260 0.265544 0.188659
C177  C     C_1   0.043569 0.944067 0.726978 0.178206
C178  C     C_1   0.457629 0.443148 0.274244 0.177209
C179  C     C_R   0.919703 0.055940 0.602461 -0.298985
C180  C     C_1   0.542342 0.443136 0.725575 0.177260
C181  C     C_R   0.578365 0.555924 0.401881 -0.275716
C182  C     C_R   0.421609 0.555882 0.598350 -0.275845
C183  C     C_R   0.116146 0.066267 0.450067 -0.258337
C184  C     C_R   0.573364 0.500014 0.072418 0.869330
C185  C     C_R   0.899683 0.085117 0.554004 -0.187358
C186  C     C_R   0.597738 0.585251 0.450600 -0.241337
C187  C     C_R   0.402246 0.585174 0.549635 -0.241239
C188  C     C_R   0.104073 0.097993 0.471320 0.535542
C189  C     C_R   0.918312 0.116990 0.550036 0.514206
C190  C     C_R   0.578468 0.617858 0.449460 0.504474
C191  C     C_R   0.421543 0.617734 0.550672 0.504550
C192  C     C_R   0.065510 0.106157 0.435434 -0.324675
C193  C     C_R   0.958023 0.118517 0.594410 -0.370529
C194  C     C_R   0.539636 0.620602 0.400264 -0.332506
C195  C     C_R   0.426636 0.500004 0.927583 0.869321
C196  C     C_R   0.460388 0.620468 0.599776 -0.332666
C197  C     C_R   0.038847 0.082243 0.380357 0.429223
C198  C     C_R   0.978295 0.089214 0.642798 0.453047
C199  C     C_R   0.519920 0.591318 0.350897 0.431578
C200  C     C_R   0.480094 0.591222 0.649143 0.431603
C201  C     C_R   0.998950 0.999983 0.119037 0.896436
C202  C     C_R   0.001015 0.999950 0.880787 0.893036
C203  C     C_R   0.498944 0.499984 0.119200 0.891412
C204  C     C_R   0.501039 0.499961 0.880781 0.891421
C205  C     C_R   0.051193 0.049336 0.362674 0.055274
C206  C     C_R   0.999401 0.999673 0.312730 -0.110814
C207  C     C_R   0.959033 0.057630 0.646547 0.021959
C208  C     C_R   0.539414 0.558597 0.352494 0.023122
C209  C     C_R   0.460574 0.558542 0.647633 0.023222
C210  C     C_R   0.326315 0.997675 0.268762 -0.162138
C211  C     C_R   0.673691 0.997241 0.731061 -0.162133
C212  C     C_R   0.826327 0.497615 0.268729 -0.161583
C213  C     C_R   0.173672 0.497575 0.731263 -0.161383
C214  C     C_R   0.365501 0.998622 0.308387 -0.194805
C215  C     C_R   0.634512 0.998356 0.691529 -0.194737
C216  C     C_R   0.865511 0.498574 0.308374 -0.194847
C217  C     C_R   0.000695 0.999648 0.687008 -0.099437
C218  C     C_R   0.134488 0.498551 0.691622 -0.194669
C219  C     C_R   0.385348 0.999051 0.384659 -0.039000
C220  C     C_R   0.614634 0.998894 0.615265 -0.039086
C221  C     C_R   0.885348 0.499035 0.384644 -0.038972
C222  C     C_R   0.114652 0.499029 0.615353 -0.039173
C223  C     C_R   0.365410 0.998487 0.420623 -0.196944
C224  C     C_R   0.634523 0.998254 0.579207 -0.196895
C225  C     C_R   0.865400 0.498486 0.420588 -0.196643
C226  C     C_R   0.134599 0.498483 0.579407 -0.196235
C227  C     C_R   0.326218 0.997538 0.380831 -0.162900
C228  C     C_R   0.499298 0.499619 0.313056 -0.101803
C229  C     C_R   0.673702 0.997135 0.618900 -0.162813
C230  C     C_R   0.826207 0.497523 0.380775 -0.163344
C231  C     C_R   0.173791 0.497504 0.619217 -0.162736
C232  C     C_R   0.306811 0.997130 0.305080 0.160146
C233  C     C_R   0.693143 0.996629 0.694641 0.159886
C234  C     C_R   0.806812 0.497087 0.305024 0.159956
C235  C     C_R   0.193187 0.497047 0.694966 0.159880
C236  C     C_1   0.266769 0.996757 0.264482 -0.069644
C237  C     C_1   0.733172 0.996225 0.735117 -0.069875
C238  C     C_1   0.766769 0.496707 0.264400 -0.069624
C239  C     C_R   0.500696 0.499596 0.686934 -0.101616
C240  C     C_1   0.233229 0.496652 0.735590 -0.069225
C241  C     C_1   0.233105 0.996871 0.230328 -0.055677
C242  C     C_1   0.766829 0.996403 0.769165 -0.055271
C243  C     C_1   0.733105 0.496818 0.230221 -0.056047
C244  C     C_1   0.266894 0.496756 0.769774 -0.055730
C245  C     C_R   0.174276 0.026186 0.139040 -0.204438
C246  C     C_R   0.825479 0.027063 0.857557 -0.211503
C247  C     C_R   0.674275 0.526112 0.138868 -0.204127
C248  C     C_R   0.325734 0.526077 0.861181 -0.204251
C249  C     C_R   0.923959 0.893389 0.064347 -0.139838
C250  C     C_R   0.024015 0.023599 0.304769 0.068684
C251  C     C_R   0.066659 0.884992 0.919454 -0.142227
C252  C     C_R   0.435130 0.383667 0.082876 -0.141574
C253  C     C_R   0.564743 0.383610 0.916695 -0.141508
C254  C     C_R   0.135000 0.027560 0.099720 -0.016843
C255  C     C_R   0.864744 0.028590 0.896959 -0.019567
C256  C     C_R   0.634999 0.527497 0.099572 -0.017713
C257  C     C_R   0.365011 0.527475 0.900479 -0.017650
C258  C     C_R   0.114554 0.999898 0.112036 -0.083772
C259  C     C_R   0.885378 0.999887 0.887545 -0.078672
C260  C     C_R   0.614553 0.499872 0.111962 -0.085684
H1    H     H_    0.869177 0.893326 0.966093 0.126497
H2    H     H_    0.688794 0.996962 0.789868 0.135876
H3    H     H_    0.640582 0.654121 0.481240 0.143116
H4    H     H_    0.604416 0.719888 0.516686 0.227717
H5    H     H_    0.648695 0.697465 0.579030 0.237012
H6    H     H_    0.674097 0.717564 0.501552 0.267977
H7    H     H_    0.658393 0.757213 0.531132 0.271331
H8    H     H_    0.629574 0.740194 0.439216 0.265721
H9    H     H_    0.403522 0.677511 0.583071 0.135290
H10   H     H_    0.359527 0.654115 0.519080 0.143108
H11   H     H_    0.395700 0.719700 0.483315 0.227727
H12   H     H_    0.351366 0.697278 0.421136 0.236945
H13   H     H_    0.811269 0.497370 0.209923 0.136178
H14   H     H_    0.326126 0.717615 0.498803 0.267950
H15   H     H_    0.341831 0.757155 0.469043 0.271292
H16   H     H_    0.370706 0.740245 0.560969 0.265706
H17   H     H_    0.008459 0.125652 0.276576 0.140872
H18   H     H_    0.999992 0.148299 0.342203 0.155037
H19   H     H_    0.943090 0.100809 0.210332 0.233292
H20   H     H_    0.934121 0.122833 0.274878 0.225049
H21   H     H_    0.946412 0.186208 0.240959 0.267847
H22   H     H_    0.909346 0.161598 0.163231 0.273358
H23   H     H_    0.955749 0.164303 0.176308 0.263650
H24   H     H_    0.188729 0.497317 0.790067 0.136193
H25   H     H_    0.051221 0.094237 0.794106 0.178809
H26   H     H_    0.006973 0.117256 0.760167 0.120103
H27   H     H_    0.069961 0.142216 0.733518 0.237741
H28   H     H_    0.025732 0.166173 0.700361 0.214933
H29   H     H_    0.042230 0.176347 0.828804 0.259819
H30   H     H_    0.076284 0.197013 0.811402 0.271753
H31   H     H_    0.087095 0.153355 0.861216 0.271967
H32   H     H_    0.454295 0.607736 0.196944 0.181079
H33   H     H_    0.496059 0.634750 0.251939 0.110371
H34   H     H_    0.423722 0.638498 0.258732 0.241389
H35   H     H_    0.380188 0.999013 0.279354 0.159149
H36   H     H_    0.465286 0.666943 0.310727 0.211574
H37   H     H_    0.456292 0.693897 0.195266 0.262440
H38   H     H_    0.416448 0.702370 0.204857 0.275092
H39   H     H_    0.413817 0.666088 0.143836 0.271660
H40   H     H_    0.545844 0.607761 0.803000 0.181057
H41   H     H_    0.504078 0.634749 0.748109 0.110394
H42   H     H_    0.576309 0.638383 0.740935 0.241345
H43   H     H_    0.534752 0.666817 0.689068 0.211619
H44   H     H_    0.543914 0.693924 0.804620 0.262424
H45   H     H_    0.583695 0.702320 0.794807 0.275124
H46   H     H_    0.619856 0.998796 0.720622 0.159302
H47   H     H_    0.586379 0.666124 0.855924 0.271629
H48   H     H_    0.465298 0.787147 0.574567 0.129840
H49   H     H_    0.481584 0.814681 0.655889 0.146919
H50   H     H_    0.512891 0.736687 0.650927 0.231366
H51   H     H_    0.524319 0.763184 0.731022 0.229534
H52   H     H_    0.457194 0.758364 0.698349 0.269960
H53   H     H_    0.477400 0.712398 0.705153 0.264058
H54   H     H_    0.445652 0.732428 0.617089 0.270603
H55   H     H_    0.534872 0.787175 0.425331 0.129818
H56   H     H_    0.518563 0.814646 0.344010 0.147021
H57   H     H_    0.880206 0.498951 0.279354 0.159280
H58   H     H_    0.487359 0.736611 0.348997 0.231307
H59   H     H_    0.475870 0.763053 0.268884 0.229575
H60   H     H_    0.542981 0.758357 0.301462 0.270036
H61   H     H_    0.522858 0.712351 0.294731 0.264008
H62   H     H_    0.554600 0.732493 0.382763 0.270565
H63   H     H_    0.973986 0.283367 0.589719 0.134000
H64   H     H_    0.989146 0.320091 0.657774 0.143228
H65   H     H_    0.025170 0.241259 0.682284 0.233095
H66   H     H_    0.037495 0.277082 0.750304 0.229942
H67   H     H_    0.971529 0.273838 0.727030 0.270887
H68   H     H_    0.119794 0.498926 0.720643 0.159272
H69   H     H_    0.995822 0.229265 0.755611 0.272657
H70   H     H_    0.960683 0.236722 0.661302 0.258346
H71   H     H_    0.027404 0.288856 0.408316 0.133505
H72   H     H_    0.007765 0.321244 0.332399 0.145616
H73   H     H_    0.980402 0.240041 0.328799 0.228191
H74   H     H_    0.962699 0.271519 0.252333 0.233889
H75   H     H_    0.026791 0.273033 0.267753 0.269771
H76   H     H_    0.008277 0.225768 0.254193 0.267623
H77   H     H_    0.044080 0.241025 0.344001 0.271002
H78   H     H_    0.380032 0.998770 0.479342 0.158473
H79   H     H_    0.619873 0.998611 0.520487 0.158761
H80   H     H_    0.880014 0.498791 0.479306 0.158548
H81   H     H_    0.119142 0.880677 0.021996 0.126021
H82   H     H_    0.119986 0.498803 0.520691 0.158656
H83   H     H_    0.311072 0.997206 0.409023 0.134933
H84   H     H_    0.688814 0.996772 0.590640 0.135469
H85   H     H_    0.811053 0.497206 0.408951 0.134867
H86   H     H_    0.188946 0.497188 0.591040 0.135067
H87   H     H_    0.190244 0.047256 0.130006 0.141901
H88   H     H_    0.809385 0.048897 0.864444 0.143120
H89   H     H_    0.690244 0.547164 0.129794 0.141746
H90   H     H_    0.309773 0.547139 0.870283 0.141731
H91   H     H_    0.118688 0.949466 0.172303 0.159262
H92   H     H_    0.383072 0.378494 0.979768 0.126596
H93   H     H_    0.881438 0.947555 0.832111 0.159792
H94   H     H_    0.618686 0.449476 0.172315 0.159792
H95   H     H_    0.381299 0.449411 0.827633 0.159921
H96   H     H_    0.929168 0.863901 0.060213 0.127368
H97   H     H_    0.060024 0.855370 0.917348 0.130409
H98   H     H_    0.442092 0.354091 0.085855 0.131034
H99   H     H_    0.557762 0.354033 0.913603 0.131092
H100  H     H_    0.187658 0.947672 0.240563 0.139758
H101  H     H_    0.812514 0.945527 0.763824 0.139941
H102  H     H_    0.687654 0.447658 0.240532 0.140130
H103  H     H_    0.616780 0.378434 0.019815 0.126396
H104  H     H_    0.312329 0.447571 0.759408 0.140619
H105  H     H_    0.518217 0.880491 0.613672 0.184763
H106  H     H_    0.481847 0.880435 0.386254 0.184710
H107  H     H_    0.023296 0.380034 0.615089 0.181749
H108  H     H_    0.975881 0.381044 0.383250 0.182185
H109  H     H_    0.053232 0.119292 0.599728 0.174818
H110  H     H_    0.945790 0.118264 0.399133 0.169057
H111  H     H_    0.557849 0.619025 0.588955 0.182051
H112  H     H_    0.442187 0.618980 0.411053 0.182161
H113  H     H_    0.499618 0.119233 0.399947 0.166324
H114  H     H_    0.056340 0.131138 0.450589 0.168537
H115  H     H_    0.500351 0.119245 0.600173 0.166329
H116  H     H_    0.999653 0.619253 0.400004 0.166324
H117  H     H_    0.000331 0.619223 0.600175 0.166314
H118  H     H_    0.060536 0.811344 0.568604 0.138970
H119  H     H_    0.939404 0.811307 0.431972 0.139297
H120  H     H_    0.560520 0.311336 0.568542 0.139375
H121  H     H_    0.439398 0.311317 0.431696 0.139535
H122  H     H_    0.060816 0.880295 0.568815 0.164634
H123  H     H_    0.939149 0.880260 0.431479 0.164965
H124  H     H_    0.560807 0.380288 0.568811 0.164909
H125  H     H_    0.973596 0.141819 0.590976 0.154067
H126  H     H_    0.439152 0.380269 0.431269 0.164969
H127  H     H_    0.977054 0.901739 0.163954 0.122366
H128  H     H_    0.016194 0.897640 0.817526 0.123251
H129  H     H_    0.485103 0.397159 0.185069 0.123241
H130  H     H_    0.514795 0.397106 0.814523 0.123361
H131  H     H_    0.904996 0.999171 0.078208 0.132390
H132  H     H_    0.090722 0.991200 0.928024 0.123014
H133  H     H_    0.409906 0.489705 0.071127 0.124132
H134  H     H_    0.590034 0.489652 0.928844 0.124057
H135  H     H_    0.856995 0.960714 0.975903 0.147171
H136  H     H_    0.524854 0.645473 0.400938 0.172233
H137  H     H_    0.134552 0.948434 0.026693 0.145419
H138  H     H_    0.366934 0.446157 0.973015 0.145570
H139  H     H_    0.632960 0.446101 0.026827 0.145463
H140  H     H_    0.041882 0.041394 0.233269 0.157146
H141  H     H_    0.964349 0.047052 0.772171 0.159208
H142  H     H_    0.534159 0.548259 0.226695 0.155898
H143  H     H_    0.465795 0.548179 0.773373 0.156012
H144  H     H_    0.099700 0.017347 0.381850 0.172927
H145  H     H_    0.904580 0.031799 0.605109 0.174490
H146  H     H_    0.593594 0.530933 0.403104 0.172426
H147  H     H_    0.475186 0.645302 0.599025 0.172205
H148  H     H_    0.406360 0.530924 0.597188 0.172510
H149  H     H_    0.145886 0.060569 0.474247 0.151541
H150  H     H_    0.869342 0.083038 0.519401 0.164103
H151  H     H_    0.627672 0.582630 0.489409 0.155005
H152  H     H_    0.372300 0.582559 0.510898 0.155069
H153  H     H_    0.176271 0.124404 0.624201 0.175814
H154  H     H_    0.161275 0.078021 0.589990 0.117806
H155  H     H_    0.118118 0.134648 0.629354 0.240763
H156  H     H_    0.103541 0.086921 0.598050 0.229535
H157  H     H_    0.162058 0.062385 0.707167 0.260871
H158  H     H_    0.311248 0.997454 0.209955 0.135670
H159  H     H_    0.134661 0.091050 0.731745 0.271093
H160  H     H_    0.176621 0.110207 0.739067 0.265800
H161  H     H_    0.935481 0.186570 0.520174 0.157025
H162  H     H_    0.915836 0.185646 0.578090 0.128085
H163  H     H_    0.871139 0.202660 0.413974 0.245140
H164  H     H_    0.854211 0.205574 0.475289 0.219165
H165  H     H_    0.901748 0.256496 0.545319 0.258900
H166  H     H_    0.870704 0.268867 0.451150 0.274079
H167  H     H_    0.918034 0.253459 0.482447 0.269048
H168  H     H_    0.596645 0.677511 0.417091 0.135263
N1    N     N_1   0.101799 0.079630 0.001422 -0.212480
N2    N     N_1   0.500564 0.208572 0.662872 -0.202923
N3    N     N_1   0.999404 0.708585 0.337518 -0.203321
N4    N     N_1   0.000539 0.708532 0.662925 -0.203431
N5    N     N_1   0.931229 0.928351 0.273069 -0.200208
N6    N     N_1   0.060119 0.921395 0.716468 -0.201278
N7    N     N_1   0.441588 0.420129 0.285272 -0.200848
N8    N     N_1   0.558384 0.420129 0.714487 -0.200927
N9    N     N_1   0.897452 0.082950 0.990381 -0.202307
N10   N     N_1   0.601788 0.579555 0.001258 -0.210773
N11   N     N_1   0.398239 0.579579 0.998866 -0.210893
N12   N     N_1   0.087340 0.209076 0.660146 -0.191739
N13   N     N_1   0.912364 0.207424 0.332621 -0.195493
N14   N     N_1   0.594084 0.708455 0.644688 -0.205555
N15   N     N_1   0.406008 0.708379 0.355255 -0.205514
N16   N     N_1   0.499337 0.208547 0.337373 -0.203134
O1    O     O_R   0.055440 0.968710 0.055440 -0.616590
O2    O     O_R   0.555440 0.999880 0.607160 -0.623888
O3    O     O_R   0.944560 0.499880 0.392840 -0.624270
O4    O     O_R   0.055440 0.499880 0.607160 -0.624107
O5    O     O_R   0.500000 0.944470 0.551750 -0.623215
O6    O     O_R   0.500000 0.944470 0.448250 -0.623187
O7    O     O_R   0.000000 0.444470 0.551750 -0.622452
O8    O     O_R   0.000000 0.444470 0.448250 -0.622683
O9    O     O_R   0.055440 0.031290 0.055450 -0.611288
O10   O     O_R   0.944560 0.031290 0.944550 -0.612749
O11   O     O_R   0.555440 0.531290 0.055450 -0.612036
O12   O     O_R   0.944560 0.968710 0.944560 -0.616737
O13   O     O_R   0.444560 0.531290 0.944550 -0.612063
O14   O     O_R   1.000000 0.968710 0.091620 -0.621394
O15   O     O_R   0.000000 0.968710 0.908380 -0.616995
O16   O     O_R   0.500000 0.468710 0.091620 -0.616549
O17   O     O_R   0.500000 0.468710 0.908380 -0.616499
O18   O     O_R   0.000000 0.031290 0.091630 -0.619638
O19   O     O_R   0.000000 0.031290 0.908370 -0.624298
O20   O     O_R   0.500000 0.531290 0.091630 -0.623627
O21   O     O_R   0.500000 0.531290 0.908370 -0.623596
O22   O     O_R   0.968720 0.055450 0.468730 -0.619620
O23   O     O_R   0.555440 0.468710 0.055440 -0.616157
O24   O     O_R   0.031280 0.055450 0.531270 -0.633691
O25   O     O_R   0.468720 0.555450 0.468730 -0.617539
O26   O     O_R   0.531280 0.555450 0.531270 -0.617500
O27   O     O_R   0.968700 0.000020 0.377090 -0.608616
O28   O     O_R   0.031300 0.000020 0.622910 -0.604669
O29   O     O_R   0.468700 0.500020 0.377090 -0.604333
O30   O     O_R   0.531300 0.500020 0.622910 -0.604319
O31   O     O_R   0.031300 0.000000 0.439680 -0.629902
O32   O     O_R   0.968700 0.000000 0.560320 -0.626989
O33   O     O_R   0.531300 0.500000 0.439680 -0.627776
O34   O     O_R   0.444560 0.468710 0.944560 -0.616126
O35   O     O_R   0.468700 0.500000 0.560320 -0.627707
O36   O     O_R   0.968690 0.944590 0.468690 -0.625155
O37   O     O_R   0.031310 0.944590 0.531310 -0.625037
O38   O     O_R   0.468690 0.444590 0.468690 -0.625318
O39   O     O_R   0.531310 0.444590 0.531310 -0.625385
O40   O     O_R   0.500000 0.055330 0.551710 -0.622683
O41   O     O_R   0.500000 0.055330 0.448290 -0.622710
O42   O     O_R   0.000000 0.555330 0.551710 -0.622779
O43   O     O_R   0.000000 0.555330 0.448290 -0.622727
O44   O     O_3   0.129548 0.123504 0.521654 -0.641094
O45   O     O_R   0.444560 0.999900 0.496290 -0.623533
O46   O     O_3   0.896731 0.143944 0.497815 -0.640027
O47   O     O_3   0.596879 0.646265 0.499448 -0.638576
O48   O     O_3   0.403142 0.646093 0.500666 -0.638569
O49   O     O_3   0.000626 0.089856 0.344926 -0.659171
O50   O     O_3   0.017216 0.090475 0.683546 -0.655331
O51   O     O_3   0.481224 0.593222 0.304393 -0.644224
O52   O     O_3   0.518800 0.593117 0.695558 -0.644303
O53   O     O_3   0.521651 0.807339 0.628281 -0.632890
O54   O     O_3   0.478496 0.807272 0.371598 -0.632946
O55   O     O_3   0.027711 0.306582 0.628402 -0.627487
O56   O     O_R   0.555440 0.999900 0.503710 -0.623572
O57   O     O_3   0.971652 0.307760 0.367489 -0.629775
O58   O     O_R   0.944560 0.499900 0.496290 -0.623432
O59   O     O_R   0.055440 0.499900 0.503710 -0.623241
O60   O     O_R   0.444560 0.999880 0.392840 -0.623937
Zn1   Zn    Zn3+2 0.000000 0.958210 0.000000 0.962193
Zn2   Zn    Zn3+2 0.500000 0.999910 0.430920 0.948995
Zn3   Zn    Zn3+2 0.000000 0.499910 0.569080 0.949082
Zn4   Zn    Zn3+2 0.000000 0.499910 0.430920 0.949092
Zn5   Zn    Zn3+2 0.500000 0.458210 0.000000 0.966966
Zn6   Zn    Zn3+2 1.000000 0.041790 0.000000 0.978612
Zn7   Zn    Zn3+2 0.500000 0.541790 0.000000 0.971846
Zn8   Zn    Zn3+2 0.958200 0.000020 0.458210 0.985263
Zn9   Zn    Zn3+2 0.041800 0.000020 0.541790 0.971426
Zn10  Zn    Zn3+2 0.458200 0.500020 0.458210 0.986106
Zn11  Zn    Zn3+2 0.541800 0.500020 0.541790 0.985839
Zn12  Zn    Zn3+2 0.500000 0.999910 0.569080 0.949047

loop_
_geom_bond_atom_site_label_1
_geom_bond_atom_site_label_2
_ccdc_geom_bond_type
C200  O52   S    
C58   C62   A    
C26   C83   S    
C225  H80   S    
C87   C91   T    
C165  H74   S    
C27   O42   A    
C167  N12   T    
C153  C257  S    
C96   H122  S    
O56   Zn2   S    
C237  C242  T    
O19   Zn6   S    
C5    H93   S    
C22   C239  S    
C156  H54   S    
C202  O19   A    
C112  C259  S    
C86   C88   S    
C150  C254  S    
C148  H43   S    
C246  C255  A    
C229  H84   S    
C143  C144  S    
C221  C225  A    
O24   Zn9   S    
C240  C244  T    
C184  O23   A    
O1    Zn1   S    
C233  C237  S    
C191  C196  A    
C117  H92   S    
C104  H132  S    
C117  C252  A    
C144  H34   S    
C120  C217  A    
C56   C72   A    
O7    Zn3   S    
C50   C52   S    
C125  H155  S    
O31   Zn9   S    
O20   Zn7   S    
C140  H25   S    
C203  O20   A    
C59   C73   A    
C141  H28   S    
O41   Zn2   S    
C139  H22   S    
C36   C71   A    
C33   C69   A    
C142  H29   S    
C149  H45   S    
C156  H52   S    
C69   C135  S    
C224  H79   S    
C214  C219  A    
O28   Zn9   S    
O23   Zn5   S    
C127  H162  S    
C38   O8    A    
C155  H51   S    
C16   C248  A    
C216  H57   S    
C71   C157  S    
C179  C207  A    
C139  H21   S    
C231  H86   S    
C105  H133  S    
C150  N1    T    
C192  H114  S    
C204  O17   A    
C152  C256  S    
C98   C102  A    
C32   H127  S    
C3    C195  S    
C39   O53   S    
C64   C66   A    
C186  C190  A    
C120  C177  S    
C183  C188  A    
C64   H112  S    
C119  C176  S    
C173  N2    T    
C159  H58   S    
C154  C155  S    
C41   O55   S    
C46   C90   A    
C6    H94   S    
C82   C84   A    
C158  C159  S    
O26   Zn11  S    
C110  C116  A    
C25   O38   A    
C179  H145  S    
C1    C258  S    
O34   Zn5   S    
C103  H131  S    
C176  N5    T    
C138  H20   S    
C200  C209  A    
C144  C145  S    
C70   C105  A    
C204  O21   A    
C212  C234  A    
C24   C209  S    
C145  H39   S    
C131  H5    S    
C164  H71   S    
O4    Zn3   S    
C59   C63   A    
C225  C230  A    
C28   O45   A    
C60   C64   A    
C120  C135  A    
C158  H55   S    
C98   H124  S    
C130  C131  S    
C57   H142  S    
C104  C110  A    
C162  H65   S    
C77   C82   A    
C144  H36   S    
C126  H160  S    
C238  C243  T    
C151  N9    T    
C95   C99   A    
C206  C250  A    
C95   C108  A    
C61   C65   A    
C149  H47   S    
C78   H113  S    
C88   C89   T    
C71   C106  A    
C155  C156  S    
C41   C45   A    
C34   H129  S    
C113  C157  A    
C213  C235  A    
C41   C51   A    
C12   C245  A    
C94   H120  S    
C90   C202  S    
C213  H24   S    
C147  H41   S    
C4    H91   S    
C20   C217  S    
C95   H121  S    
C147  C148  S    
C187  H152  S    
C128  C129  S    
C170  N14   T    
C140  O50   S    
C67   C103  A    
C212  H13   S    
C189  O46   S    
C137  H17   S    
C68   H143  S    
C27   O43   A    
C27   C84   S    
C61   H109  S    
C223  C227  A    
C25   C102  S    
C18   O25   A    
C13   C57   A    
C168  H144  S    
C152  N10   T    
C232  C236  S    
C4    C8    A    
C127  O46   S    
C182  H148  S    
C205  C250  S    
C92   C107  A    
C99   H126  S    
C14   C242  S    
C148  H42   S    
C194  C199  A    
C160  H61   S    
C195  O34   A    
C180  N8    T    
C163  H70   S    
C230  C234  A    
C70   C146  S    
C115  H1    S    
C97   H123  S    
C109  H135  S    
C247  C256  A    
C23   C100  S    
C172  N16   T    
O43   Zn4   S    
C29   O56   A    
C129  H167  S    
C224  C229  A    
C92   C96   A    
C181  H146  S    
C15   C243  S    
C166  H75   S    
O2    Zn12  S    
C58   C169  S    
C177  N6    T    
C101  C203  S    
C128  H164  S    
C29   O2    A    
C143  H33   S    
C79   C201  S    
C3    C257  A    
C219  C223  A    
C32   C249  A    
C35   C250  A    
C211  C233  A    
C51   C53   S    
C44   H106  S    
C236  C241  T    
C193  H125  S    
C203  O16   A    
C42   O57   S    
C5    C9    A    
C118  C253  A    
C201  O14   A    
C8    C12   A    
C168  C183  A    
O14   Zn1   S    
O6    Zn2   S    
O3    Zn4   S    
C13   C208  S    
C147  O52   S    
C81   H116  S    
C32   C67   A    
C16   C244  S    
C129  H165  S    
C106  H134  S    
C136  H15   S    
C186  H151  S    
C47   H108  S    
O18   Zn6   S    
C93   C97   A    
C130  O47   S    
C97   C100  A    
C160  H60   S    
C211  H2    S    
C111  H138  S    
C198  C207  A    
C60   C171  S    
C197  O49   S    
C153  N11   T    
C77   C86   A    
C181  C186  A    
O40   Zn12  S    
C185  C189  A    
C115  C249  A    
C116  C251  A    
C18   C66   S    
C57   C101  A    
C79   C124  A    
C82   H117  S    
C188  C192  A    
C76   C174  S    
C22   O30   A    
C132  H7    S    
C90   C135  A    
C20   O32   A    
C31   O59   A    
C133  H10   S    
C96   C100  A    
C56   C167  S    
C35   C79   A    
O27   Zn8   S    
C245  H87   S    
C74   C85   A    
C229  C233  A    
C155  H50   S    
C55   C73   S    
C189  C193  A    
C143  H32   S    
C40   C44   A    
C17   O22   A    
C210  C232  A    
C168  C205  A    
C231  C235  A    
C140  H26   S    
C191  O48   S    
C141  H27   S    
C142  H30   S    
C159  H59   S    
O25   Zn10  S    
C197  C205  A    
C247  H89   S    
C127  H161  S    
C184  O11   A    
O38   Zn10  S    
C161  C162  S    
O17   Zn5   S    
C38   C49   S    
O59   Zn4   S    
C122  C180  S    
C8    H100  S    
C184  C260  S    
O30   Zn11  S    
C164  C165  S    
C3    C7    A    
C80   C83   A    
C28   O60   A    
C123  C125  S    
C94   C98   A    
C193  C198  A    
C60   C73   A    
C5    C259  A    
C6    C260  A    
C235  C240  S    
C216  C221  A    
C78   C83   A    
C75   C85   A    
C29   C220  S    
C214  H35   S    
C93   H119  S    
C161  H64   S    
C19   C206  S    
C45   H107  S    
C123  H154  S    
C175  N4    T    
C22   O35   A    
C34   C70   A    
C52   C55   T    
C171  N15   T    
C68   C113  A    
C105  C111  A    
C63   C66   A    
C169  N13   T    
C156  H53   S    
C165  H73   S    
O60   Zn2   S    
C30   C221  S    
C19   O27   A    
O58   Zn3   S    
C181  C208  A    
C23   O36   A    
C130  H3    S    
C130  H168  S    
C183  H149  S    
C145  H38   S    
C190  O47   S    
C164  H72   S    
C53   C54   T    
C40   O54   S    
C158  H56   S    
C9    C14   A    
C188  O44   S    
O12   Zn1   S    
C31   C222  S    
C11   C16   A    
C162  H66   S    
C159  C160  S    
C45   C49   A    
C213  C218  A    
C17   O24   A    
O8    Zn4   S    
C125  H156  S    
C119  C206  A    
C192  C197  A    
C140  C141  S    
C121  C228  A    
C24   C239  A    
C21   O33   A    
C15   C247  A    
C62   H110  S    
C28   C219  S    
C154  H48   S    
C246  H88   S    
C125  C126  S    
C218  H68   S    
C9    H101  S    
C131  C132  S    
C76   C86   A    
C38   O7    A    
O36   Zn8   S    
C162  C163  S    
C158  O54   S    
C21   C228  S    
C174  N3    T    
C230  H85   S    
C91   C108  S    
C136  H14   S    
C253  H99   S    
C6    C10   A    
O35   Zn10  S    
C201  O18   A    
C179  C185  A    
C245  C254  A    
C111  C117  A    
C35   H140  S    
C103  C109  A    
C63   H111  S    
O37   Zn9   S    
O13   Zn7   S    
O21   Zn7   S    
C215  H46   S    
O11   Zn7   S    
C18   O26   A    
C40   C50   A    
O32   Zn8   S    
C112  O10   A    
C23   O37   A    
C122  C157  A    
C154  O53   S    
C210  H158  S    
C202  O15   A    
C24   C68   A    
C132  H6    S    
C143  O51   S    
C99   C102  A    
C19   O31   A    
C39   C43   A    
C160  H62   S    
C12   C241  S    
C74   C78   A    
C222  C226  A    
C56   C61   A    
C163  H69   S    
C2    C207  S    
C134  H12   S    
C31   O4    A    
C25   O39   A    
C93   C107  A    
C126  H159  S    
C133  O48   S    
C37   O5    A    
C110  H137  S    
C44   C48   A    
C165  C166  S    
C92   H118  S    
C138  H19   S    
C75   C173  S    
C138  C139  S    
C251  H97   S    
C30   O3    A    
C196  C200  A    
C67   C124  S    
C13   C228  A    
C137  H18   S    
C47   C49   A    
C119  C124  A    
C2    C46   A    
C7    C11   A    
C164  O57   S    
C94   C108  A    
C249  H96   S    
C166  H76   S    
C106  C114  A    
C33   H128  S    
C10   C15   A    
C10   H102  S    
C211  C215  A    
C254  C258  A    
C226  C231  A    
C256  C260  A    
O5    Zn12  S    
C113  C204  S    
C33   C251  A    
C199  C208  A    
C248  H90   S    
C30   O58   A    
O15   Zn1   S    
C223  H78   S    
C1    O9    A    
C212  C216  A    
C36   H130  S    
C2    C217  A    
C195  O13   A    
C59   C170  S    
C43   C48   A    
C187  C191  A    
C42   C51   A    
C42   C47   A    
C114  H139  S    
O10   Zn6   S    
C227  C232  A    
C77   C175  S    
C89   C107  S    
C136  H16   S    
C227  H83   S    
C218  C222  A    
O45   Zn12  S    
C85   C87   S    
C137  O49   S    
C255  C259  A    
C101  C146  A    
C161  O55   S    
C148  C149  S    
C11   H104  S    
C196  H147  S    
C109  C115  A    
C134  C136  S    
C43   H105  S    
C134  H11   S    
C210  C214  A    
C118  H103  S    
C112  O12   A    
C182  C209  A    
C252  H98   S    
O29   Zn10  S    
C199  O51   S    
C116  H81   S    
C1    O1    A    
C46   H141  S    
C132  H8    S    
C185  H150  S    
C145  H37   S    
C133  H9    S    
C122  C239  A    
C149  H44   S    
C178  N7    T    
C163  H67   S    
C37   C48   S    
O22   Zn8   S    
C114  C118  A    
C7    H95   S    
O9    Zn6   S    
C215  C220  A    
O42   Zn3   S    
C20   O28   A    
C220  C224  A    
C81   C84   A    
C194  H136  S    
C151  C255  S    
C131  H4    S    
C75   C80   A    
C69   C104  A    
C142  H31   S    
C4    C258  A    
C198  O50   S    
C62   C65   A    
C121  C146  A    
C74   C172  S    
C123  O44   S    
C26   O40   A    
C76   C81   A    
C128  H163  S    
C121  C178  S    
O39   Zn11  S    
C126  H157  S    
C137  C138  S    
C17   C65   S    
C36   C253  A    
C139  H23   S    
C226  H82   S    
C80   H115  S    
C21   O29   A    
C141  C142  S    
C37   O6    A    
O16   Zn5   S    
C58   C72   A    
C133  C134  S    
C166  H77   S    
C182  C187  A    
C26   O41   A    
C234  C238  S    
C190  C194  A    
C248  C257  A    
C154  H49   S    
C129  H166  S    
C39   C50   A    
C54   C72   S    
C147  H40   S    
C161  H63   S    
C34   C252  A    
C123  H153  S    
O33   Zn11  S    
C127  C128  S    
C14   C246  A    
