data_mof_unit_6897.cif
_audit_creation_date              2012-12-11T14:58:35-0500
_audit_creation_method            fapswitch 2.2
_symmetry_space_group_name_H-M    P1
_symmetry_Int_Tables_number       1
_space_group_crystal_system       triclinic
_cell_length_a                    10.911601
_cell_length_b                    10.950178
_cell_length_c                    18.804231
_cell_angle_alpha                 90.5666
_cell_angle_beta                  90.436233
_cell_angle_gamma                 59.822268
_cell_volume                      1942.19133764

loop_
_atom_site_label
_atom_site_type_symbol
_atom_type_description
_atom_site_fract_x
_atom_site_fract_y
_atom_site_fract_z
_atom_type_partial_charge
C1    C     C_R   0.359219 0.772740 0.397680 0.542741
C2    C     C_R   0.246618 0.441767 0.199252 -0.154501
C3    C     C_R   0.244990 0.450000 0.273321 -0.032998
C4    C     C_R   0.386023 0.354921 0.387352 0.532052
C5    C     C_R   0.877444 0.801888 0.368227 -0.117790
C6    C     C_R   0.925849 0.665396 0.393172 -0.101671
C7    C     C_R   0.044654 0.550370 0.362415 -0.048042
C8    C     C_R   0.118372 0.571197 0.307194 0.057904
C9    C     C_R   0.362710 0.343418 0.311442 -0.002655
C10   C     C_R   0.955799 0.301643 0.307796 -0.157509
C11   C     C_R   0.984723 0.293202 0.235664 -0.126001
C12   C     C_R   0.613320 0.116303 0.166227 0.059862
C13   C     C_R   0.874990 0.332330 0.185891 0.038879
C14   C     C_R   0.735895 0.383015 0.207533 -0.151871
C15   C     C_R   0.706676 0.393491 0.279625 -0.117956
C16   C     C_R   0.778145 0.377943 0.403186 0.533656
C17   C     C_R   0.816646 0.353024 0.329468 0.039246
C18   C     C_R   0.471593 0.786949 0.286924 -0.141867
C19   C     C_R   0.459433 0.813865 0.214250 -0.153644
C20   C     C_R   0.324638 0.887933 0.184155 0.033140
C21   C     C_R   0.203303 0.945477 0.227629 -0.141777
C22   C     C_R   0.215343 0.920173 0.299552 -0.149816
C23   C     C_R   0.359871 0.330601 0.162671 -0.003687
C24   C     C_R   0.348610 0.834658 0.328751 0.029696
C25   C     C_R   0.391344 0.199965 0.694550 -0.141266
C26   C     C_R   0.383467 0.190075 0.766807 -0.147607
C27   C     C_R   0.300296 0.311196 0.808876 0.008026
C28   C     C_R   0.343899 0.770460 0.604410 0.545908
C29   C     C_R   0.214719 0.443383 0.776105 0.041335
C30   C     C_R   0.223083 0.451376 0.702498 -0.125847
C31   C     C_R   0.318158 0.331585 0.662754 0.001301
C32   C     C_R   0.747384 0.474857 0.731854 -0.108832
C33   C     C_R   0.756940 0.462386 0.804718 -0.114625
C34   C     C_R   0.479534 0.237961 0.273993 -0.151273
C35   C     C_R   0.813488 0.329306 0.835847 0.028113
C36   C     C_R   0.843007 0.211301 0.793291 -0.130071
C37   C     C_R   0.827580 0.225169 0.719513 -0.134084
C38   C     C_R   0.785400 0.356373 0.688372 0.031885
C39   C     C_R   0.196889 0.841288 0.711846 -0.135573
C40   C     C_R   0.367594 0.350171 0.594848 0.548913
C41   C     C_R   0.188610 0.851865 0.784978 -0.106596
C42   C     C_R   0.300432 0.846523 0.824338 0.045225
C43   C     C_R   0.421121 0.830252 0.789512 -0.148413
C44   C     C_R   0.428680 0.821496 0.716111 -0.148595
C45   C     C_R   0.482773 0.232259 0.200496 -0.025250
C46   C     C_R   0.318566 0.822542 0.677048 0.027542
C47   C     C_R   0.911097 0.316123 0.111896 0.529604
C48   C     C_R   0.329773 0.295016 0.092022 0.541924
C49   C     C_R   0.301287 0.910715 0.108353 0.551062
C50   C     C_R   0.878672 0.310450 0.905833 0.539164
C51   C     C_R   0.293825 0.286502 0.884219 0.574164
C52   C     C_R   0.757131 0.380262 0.612365 0.547958
C53   C     C_R   0.275715 0.893915 0.897696 0.562814
C54   C     C_R   0.850083 0.894456 0.097696 -0.111427
C55   C     C_R   0.793938 0.033102 0.074191 -0.084953
C56   C     C_R   0.067956 0.709331 0.282346 -0.087022
C57   C     C_R   0.677457 0.143954 0.108754 -0.058307
C58   C     C_2   0.122576 0.575641 0.816048 0.570633
C59   C     C_R   0.948490 0.823815 0.312875 -0.113527
C60   C     C_R   0.671116 0.975987 0.189456 -0.095863
C61   C     C_R   0.788577 0.865913 0.155232 -0.125602
Cr1   Cr    Cr6+3 0.601770 0.606860 0.505860 0.999568
Cr2   Cr    Cr6+3 0.291380 0.601660 0.495070 1.024949
Cr3   Cr    Cr6+3 0.606880 0.291510 0.499120 1.012190
Cr4   Cr    Cr6+3 0.062440 0.063090 0.008210 0.994248
Cr5   Cr    Cr6+3 0.062880 0.375170 0.998920 1.050266
Cr6   Cr    Cr6+3 0.374700 0.061720 0.992470 1.024775
H1    H     H_    0.573859 0.161087 0.302017 0.141132
H2    H     H_    0.553467 0.770939 0.181451 0.122907
H3    H     H_    0.097564 0.006377 0.205539 0.150066
H4    H     H_    0.831479 0.758306 0.173173 0.123647
H5    H     H_    0.120423 0.959694 0.331455 0.128781
H6    H     H_    0.462724 0.106097 0.664381 0.134447
H7    H     H_    0.445000 0.085914 0.789670 0.146672
H8    H     H_    0.165558 0.553962 0.677396 0.162113
H9    H     H_    0.710047 0.578364 0.709661 0.142905
H10   H     H_    0.731537 0.555462 0.836314 0.138157
H11   H     H_    0.886371 0.107494 0.816402 0.124176
H12   H     H_    0.785147 0.890696 0.391900 0.111633
H13   H     H_    0.852296 0.133532 0.686934 0.123091
H14   H     H_    0.110036 0.842446 0.682948 0.141307
H15   H     H_    0.910796 0.929640 0.293456 0.115152
H16   H     H_    0.092566 0.868996 0.810380 0.150223
H17   H     H_    0.507524 0.829243 0.818786 0.122295
H18   H     H_    0.522633 0.808935 0.690199 0.122981
H19   H     H_    0.940580 0.809038 0.070993 0.122707
H20   H     H_    0.839863 0.054423 0.028609 0.145530
H21   H     H_    0.634392 0.250510 0.089243 0.094775
H22   H     H_    0.121612 0.728506 0.239443 0.117554
H23   H     H_    0.871825 0.648993 0.436777 0.133985
H24   H     H_    0.624011 0.951357 0.233437 0.109683
H25   H     H_    0.153229 0.517648 0.170201 0.135283
H26   H     H_    0.937607 0.760822 0.819276 0.322682
H27   H     H_    0.081326 0.445746 0.382930 0.097025
H28   H     H_    0.040748 0.268417 0.346251 0.096972
H29   H     H_    0.092795 0.254417 0.218421 0.123986
H30   H     H_    0.650817 0.415725 0.169145 0.100900
H31   H     H_    0.597984 0.435904 0.296786 0.125415
H32   H     H_    0.576311 0.720278 0.309181 0.144832
O1    O     O_R   0.748800 0.497470 0.428000 -0.531457
O2    O     O_R   0.417600 0.174890 0.067840 -0.506136
O3    O     O_R   0.375320 0.946260 0.070860 -0.495126
O4    O     O_R   0.476420 0.724060 0.429470 -0.512524
O5    O     O_R   0.160600 0.919630 0.926660 -0.508544
O6    O     O_R   0.933060 0.190520 0.936020 -0.523995
O7    O     O_R   0.908880 0.403460 0.925020 -0.511229
O8    O     O_R   0.179600 0.361450 0.918490 -0.457203
O9    O     O_R   0.391510 0.170860 0.907530 -0.536841
O10   O     O_R   0.351130 0.942530 0.922260 -0.514236
O11   O     O_3   0.166667 0.166667 0.999870 -0.257872
O12   O     O_R   0.300070 0.471040 0.567100 -0.509121
O13   O     O_R   0.264580 0.744340 0.416750 -0.505843
O14   O     O_R   0.309380 0.472470 0.418200 -0.494147
O15   O     O_R   0.501710 0.260430 0.414300 -0.532784
O16   O     O_R   0.728090 0.305600 0.428960 -0.503097
O17   O     O_R   0.738760 0.495930 0.588610 -0.526351
O18   O     O_R   0.467110 0.722640 0.578360 -0.508809
O19   O     O_R   0.254530 0.742800 0.577360 -0.526273
O20   O     O_2   0.162093 0.599842 0.872759 -0.517843
O21   O     O_R   0.991702 0.675212 0.787250 -0.730937
O22   O     O_R   0.491670 0.258900 0.574910 -0.516245
O23   O     O_R   0.718780 0.304180 0.577850 -0.500069
O24   O     O_3   0.500010 0.500010 0.500020 -0.246907
O25   O     O_R   0.186690 0.923650 0.086970 -0.527880
O26   O     O_R   0.957250 0.194250 0.084630 -0.522429
O27   O     O_R   0.934970 0.407490 0.085330 -0.518044
O28   O     O_R   0.203780 0.365190 0.067090 -0.503294

loop_
_geom_bond_atom_site_label_1
_geom_bond_atom_site_label_2
_ccdc_geom_bond_type
C11   H29   S    
C25   C31   A    
C23   C45   A    
C27   C29   A    
C41   C42   A    
C19   C20   A    
C59   H15   S    
Cr5   O8    S    
C8    C56   A    
C7    C8    A    
C39   C41   A    
C31   C40   S    
C40   O22   A    
C28   C46   S    
C26   C27   A    
C29   C30   A    
C47   O27   A    
C18   C24   A    
C4    O15   A    
C36   C37   A    
C37   C38   A    
C28   O18   A    
C1    O13   A    
C30   C31   A    
Cr6   O9    S    
C38   C52   S    
C10   C17   A    
Cr3   O22   S    
C41   H16   S    
Cr5   O28   S    
C18   C19   A    
Cr4   O25   S    
C22   H5    S    
Cr2   O13   S    
Cr1   O18   S    
C26   H7    S    
C52   O23   A    
Cr6   O10   S    
C35   C36   A    
C27   C51   S    
C16   C17   S    
C50   O6    A    
H26   O21   S    
C32   C38   A    
C5    H12   S    
C1    O4    A    
C61   H4    S    
Cr3   O16   S    
C13   C14   A    
Cr2   O12   S    
C43   H17   S    
Cr5   O7    S    
Cr4   O6    S    
Cr1   O24   S    
C44   C46   A    
C47   O26   A    
C40   O12   A    
C52   O17   A    
C37   H13   S    
Cr3   O15   S    
C5    C59   A    
C4    O14   A    
C39   H14   S    
C3    C8    S    
C34   H1    S    
C49   O3    A    
C13   C47   S    
Cr2   O19   S    
C16   O1    A    
C25   C26   A    
C6    H23   S    
C49   O25   A    
Cr5   O27   S    
C60   C61   A    
Cr4   O26   S    
C43   C44   A    
Cr1   O17   S    
C20   C49   S    
C3    C9    A    
Cr6   O11   S    
C35   C50   S    
C58   O21   S    
C34   C45   A    
Cr5   O11   S    
C2    H25   S    
C39   C46   A    
Cr1   O1    S    
C12   C57   A    
C56   H22   S    
C51   O9    A    
C55   C57   A    
C9    C34   A    
C22   C24   A    
C19   H2    S    
C42   C43   A    
C15   H31   S    
C44   H18   S    
C16   O16   A    
C29   C58   S    
Cr6   O2    S    
C14   H30   S    
C54   H19   S    
Cr1   O4    S    
C60   H24   S    
C53   O10   A    
C15   C17   A    
C7    H27   S    
C54   C55   A    
C23   C48   S    
C12   C45   S    
C32   H9    S    
Cr2   O24   S    
C57   H21   S    
C6    C7    A    
C54   C61   A    
Cr3   O24   S    
C56   C59   A    
C21   H3    S    
C32   C33   A    
C2    C3    A    
C42   C53   S    
C36   H11   S    
C48   O28   A    
C30   H8    S    
C11   C13   A    
C33   H10   S    
C5    C6    A    
C10   H28   S    
Cr3   O23   S    
C48   O2    A    
C58   O20   D    
C33   C35   A    
Cr2   O14   S    
C25   H6    S    
C55   H20   S    
Cr4   O11   S    
C10   C11   A    
C12   C60   A    
C20   C21   A    
C1    C24   S    
C51   O8    A    
C18   H32   S    
C2    C23   A    
C50   O7    A    
C14   C15   A    
C28   O19   A    
C53   O5    A    
Cr4   O5    S    
C4    C9    S    
C21   C22   A    
Cr6   O3    S    
