data_mof_unit_33942.cif
_audit_creation_date              2013-03-05T16:31:29-0500
_audit_creation_method            fapswitch 2.2
_symmetry_space_group_name_H-M    P1
_symmetry_Int_Tables_number       1
_space_group_crystal_system       triclinic
_cell_length_a                    15.019198
_cell_length_b                    10.810975
_cell_length_c                    9.550052
_cell_angle_alpha                 90.049784
_cell_angle_beta                  90.04106
_cell_angle_gamma                 89.679954
_cell_volume                      1550.63753616

loop_
_atom_site_label
_atom_site_type_symbol
_atom_site_description
_atom_site_fract_x
_atom_site_fract_y
_atom_site_fract_z
_atom_type_partial_charge
O1    O     O_R   0.500000 0.319640 0.618810 -0.583582
O2    O     O_R   0.500010 0.319680 0.381230 -0.567266
C1    C     C_R   0.501325 0.262313 0.499873 0.809681
O3    O     O_R   0.370250 0.499950 0.618800 -0.588645
O4    O     O_R   0.370260 0.499990 0.381220 -0.587269
C2    C     C_R   0.329184 0.500403 0.499959 0.787213
Cu1   Cu    Cu3+1 0.500000 0.499980 0.640670 0.976503
Cu2   Cu    Cu3+1 0.500000 0.500020 0.359330 0.993409
O5    O     O_R   0.499990 0.680320 0.618770 -0.576698
O6    O     O_R   0.500000 0.680360 0.381190 -0.582720
O7    O     O_R   0.629740 0.500010 0.618780 -0.573138
O8    O     O_R   0.629750 0.500050 0.381200 -0.566711
C3    C     C_R   0.501696 0.737630 0.499963 0.840105
C4    C     C_R   0.670800 0.499820 0.500155 0.897533
C5    C     C_R   0.810972 0.615309 0.512196 0.284365
C6    C     C_R   0.767423 0.501230 0.501041 -0.209323
C7    C     C_R   0.814607 0.389631 0.492024 -0.118640
C8    C     C_R   0.907923 0.391558 0.489111 0.090447
C9    C     C_R   0.953434 0.506229 0.501520 -0.001347
C10   C     C_R   0.905523 0.619775 0.515137 -0.050135
C11   C     C_R   0.956903 0.280789 0.474183 -0.136911
C12   C     C_R   0.049006 0.281794 0.471791 -0.197634
C13   C     C_R   0.094598 0.392974 0.485369 0.120569
C14   C     C_R   0.047365 0.506115 0.500911 0.078254
C15   C     C_R   0.094660 0.618086 0.516050 0.064332
C16   C     C_R   0.048006 0.730703 0.531472 -0.075484
C17   C     C_R   0.954104 0.732272 0.531433 -0.093860
C18   C     C_R   0.187237 0.392118 0.484014 -0.230698
C19   C     C_R   0.233262 0.502213 0.499856 -0.044852
C20   C     C_R   0.188247 0.614167 0.516099 -0.238107
H1    H     H_    0.924507 0.192141 0.463367 0.177544
H2    H     H_    0.084733 0.195030 0.459770 0.169535
H3    H     H_    0.223810 0.305891 0.471878 0.131360
H4    H     H_    0.227241 0.697546 0.528109 0.134619
C21   C     C_R   0.520546 0.063671 0.623671 0.128626
C22   C     C_R   0.509945 0.129117 0.498829 -0.102302
C23   C     C_R   0.512731 0.064048 0.371373 -0.142584
H5    H     H_    0.509507 0.111770 0.271851 0.194223
C24   C     C_R   0.513424 0.935300 0.371476 -0.156488
H6    H     H_    0.510959 0.887242 0.271993 0.182539
C25   C     C_R   0.510827 0.870602 0.499057 -0.098790
C26   C     C_R   0.521104 0.936282 0.623931 0.178904
C27   C     C_3   0.469857 0.929991 0.757885 -0.284365
C28   C     C_3   0.469502 0.070959 0.757808 -0.506524
H7    H     H_    0.402885 0.887848 0.746086 0.144087
H8    H     H_    0.401899 0.111494 0.743326 0.197659
H9    H     H_    0.509295 0.114270 0.842938 0.217334
C29   C     C_R   0.559363 0.429817 0.073652 0.213262
N1    N     N_R   0.500570 0.500930 0.147930 -0.211327
C30   C     C_R   0.436892 0.564629 0.074371 -0.056000
H10   H     H_    0.387081 0.617918 0.130079 0.140675
C31   C     C_R   0.436800 0.564428 0.925542 -0.046286
H11   H     H_    0.386941 0.617617 0.869792 0.131756
N2    N     N_R   0.500570 0.500890 0.852020 -0.178764
C32   C     C_R   0.559609 0.430488 0.926112 0.180926
C33   C     C_3   0.658533 0.440271 0.919242 -0.510895
C34   C     C_3   0.658869 0.439800 0.078040 0.119800
H12   H     H_    0.689400 0.356951 0.870536 0.221244
H13   H     H_    0.681076 0.529945 0.875131 0.223735
H14   H     H_    0.682989 0.527381 0.125680 0.149512
N3    N     N_R   0.757240 0.725205 0.518304 0.094779
O9    O     O_R   0.719572 0.756991 0.635691 -0.361984
O10   O     O_R   0.732956 0.779344 0.402708 -0.344828
C35   C     C_1   0.523373 0.875993 0.871817 0.360495
N4    N     N_1   0.565466 0.833407 0.961360 -0.258139
N5    N     N_R   0.703104 0.329735 0.134706 0.147423
O11   O     O_R   0.789650 0.324535 0.137146 -0.340944
O12   O     O_R   0.657547 0.236611 0.182122 -0.355025
C36   C     C_1   0.766395 0.273422 0.488148 0.309129
N6    N     N_1   0.728207 0.180776 0.485464 -0.196983
C37   C     C_1   0.096436 0.846090 0.547720 0.226839
N7    N     N_1   0.134912 0.937867 0.560658 -0.309762
C38   C     C_1   0.910301 0.851141 0.551377 0.382222
N8    N     N_1   0.876235 0.946416 0.567526 -0.215625

loop_
_geom_bond_atom_site_label_1
_geom_bond_atom_site_label_2
_geom_bond_distance
_ccdc_geom_bond_type
C29   C32   1.409044 A    
N5    O12   1.302194 A    
C32   C33   1.491612 S    
C7    C36   1.454007 S    
C8    C11   1.409102 A    
C38   N8    1.157782 T    
C21   C22   1.395476 A    
C34   N5    1.463527 S    
C3    C25   1.444876 S    
C29   C34   1.499558 S    
C24   C25   1.406104 A    
Cu1   O7    1.959922 S    
C11   H1    1.082056 S    
C16   C17   1.410343 A    
C19   C20   1.391666 A    
C12   H2    1.084086 S    
C18   C19   1.387847 A    
O4    C2    1.291302 A    
O7    C4    1.290229 A    
C5    C6    1.403173 A    
C33   C34   1.516550 S    
C8    C9    1.423808 A    
C25   C26   1.396309 A    
N3    O10   1.300946 A    
C21   C26   1.377187 A    
O5    C3    1.293574 A    
C9    C10   1.425336 A    
C31   N2    1.369283 A    
C6    C7    1.398427 A    
C30   C31   1.421331 A    
C13   C14   1.418298 A    
C28   H9    1.113180 S    
N5    O11   1.300940 A    
C11   C12   1.383629 A    
C16   C37   1.455649 S    
C36   N6    1.157221 T    
O3    Cu1   1.959756 S    
C28   H8    1.112219 S    
C27   C35   1.471495 S    
C30   H10   1.081596 S    
C5    C10   1.421424 A    
C20   H4    1.083649 S    
Cu1   Cu2   2.686812 S    
C14   C15   1.414204 A    
O3    C2    1.291317 A    
C24   H6    1.083158 S    
C34   H14   1.112465 S    
C15   C16   1.408995 A    
O1    C1    1.293581 A    
C27   C28   1.523989 S    
C23   H5    1.082763 S    
Cu2   O8    1.959754 S    
C7    C8    1.402100 A    
C5    N3    1.433672 S    
C13   C18   1.391413 A    
C21   C28   1.495162 S    
C27   H7    1.112172 S    
C29   N1    1.366141 A    
O8    C4    1.292152 A    
C18   H3    1.085503 S    
C4    C6    1.451390 S    
C26   C27   1.495227 S    
C31   H11   1.081691 S    
C15   C20   1.406012 A    
Cu1   O5    1.961016 S    
N2    C32   1.363353 A    
C22   C23   1.405868 A    
O1    Cu1   1.960616 S    
O2    Cu2   1.961016 S    
O6    C3    1.292095 A    
O4    Cu2   1.959925 S    
C10   C17   1.430100 A    
C33   H13   1.111991 S    
C35   N4    1.157401 T    
O2    C1    1.292235 A    
C37   N7    1.157484 T    
C23   C24   1.391871 A    
C1    C22   1.445083 S    
C33   H12   1.112473 S    
C9    C14   1.410775 A    
N3    O9    1.301154 A    
C2    C19   1.440690 S    
Cu2   O6    1.960616 S    
N1    C30   1.369285 A    
C12   C13   1.392550 A    
Cu1   N2    2.018431 S    
C17   C38   1.452877 S    
Cu2   N1    2.018938 S    
