data_mof_unit_53045.cif
_audit_creation_date              2012-12-11T16:15:05-0500
_audit_creation_method            fapswitch 2.2
_symmetry_space_group_name_H-M    P1
_symmetry_Int_Tables_number       1
_space_group_crystal_system       triclinic
_cell_length_a                    8.191039
_cell_length_b                    14.923279
_cell_length_c                    17.352728
_cell_angle_alpha                 96.889211
_cell_angle_beta                  96.027234
_cell_angle_gamma                 97.8041
_cell_volume                      2070.40621834

loop_
_atom_site_label
_atom_site_type_symbol
_atom_type_description
_atom_site_fract_x
_atom_site_fract_y
_atom_site_fract_z
_atom_type_partial_charge
Ba1   Ba    Ba6+2 0.159600 0.544390 0.464780 1.635847
Ba2   Ba    Ba6+2 0.650580 0.455600 0.535150 1.638832
C1    C     C_3   0.429969 0.783085 0.182075 0.192485
C2    C     C_R   0.891908 0.791300 0.516386 0.074633
C3    C     C_R   0.072999 0.234087 0.523415 -0.283536
C4    C     C_3   0.950792 0.793066 0.302498 0.354199
C5    C     C_R   0.170580 0.172216 0.550552 -0.014367
C6    C     C_R   0.109510 0.079129 0.540106 -0.155029
C7    C     C_R   0.947919 0.045331 0.501572 0.015747
C8    C     C_R   0.854160 0.108913 0.468404 -0.023332
C9    C     C_R   0.878155 0.950316 0.493542 -0.000967
C10   C     C_R   0.714946 0.921015 0.453440 -0.019346
C11   C     C_R   0.629643 0.984423 0.419081 -0.089592
C12   C     C_3   0.422595 0.745774 0.259834 0.367829
C13   C     C_R   0.699228 0.075525 0.424777 -0.045898
C14   C     C_R   0.962922 0.883591 0.525872 -0.133971
C15   C     C_R   0.733135 0.764615 0.477122 -0.301694
C16   C     C_3   0.984205 0.888494 0.279587 -0.345839
C17   C     C_R   0.918623 0.204237 0.479593 0.038836
C18   C     C_R   0.601957 0.537577 0.280466 -0.290912
C19   C     C_R   0.445076 0.487748 0.254442 0.071365
C20   C     C_R   0.386178 0.474251 0.174280 -0.121419
C21   C     C_R   0.485607 0.509479 0.120343 -0.013308
C22   C     C_R   0.645951 0.556871 0.147056 -0.138620
C23   C     C_3   0.572725 0.733755 0.651069 0.308951
C24   C     C_R   0.704930 0.569274 0.227130 0.009498
C25   C     C_R   0.412213 0.519324 0.835779 -0.096196
C26   C     C_R   0.354432 0.514540 0.756359 0.045250
C27   C     C_R   0.091462 0.430355 0.777465 0.002468
C28   C     C_3   0.748036 0.344464 0.297449 0.312473
C29   C     C_R   0.149928 0.433744 0.856988 -0.129273
C30   C     C_R   0.312071 0.477330 0.886206 0.015732
C31   C     C_1   0.373064 0.484899 0.968603 -0.014454
C32   C     C_1   0.424716 0.494896 0.037628 -0.013818
C33   C     C_R   0.195893 0.468692 0.727517 -0.262480
C34   C     C_3   0.616287 0.836607 0.673909 -0.393586
C35   C     C_3   0.718986 0.319766 0.208963 -0.395084
C36   C     C_3   0.045923 0.678787 0.715728 0.285187
C37   C     C_3   0.068100 0.729482 0.799608 -0.253215
C38   C     C_3   0.240562 0.268475 0.362616 0.313876
C39   C     C_3   0.211592 0.165433 0.338981 -0.394130
C40   C     C_R   0.054072 0.671046 0.864277 -0.016979
C41   C     C_R   0.904196 0.615073 0.868989 -0.048247
C42   C     C_R   0.883124 0.570762 0.934726 -0.067900
C43   C     C_R   0.009229 0.584659 0.997483 -0.062892
C44   C     C_R   0.156849 0.642235 0.994290 -0.034287
C45   C     C_3   0.874726 0.205863 0.693438 0.413389
C46   C     C_R   0.180700 0.684102 0.927637 -0.046873
C47   C     C_R   0.264000 0.133533 0.856356 0.001639
C48   C     C_R   0.187579 0.044979 0.862876 -0.058572
C49   C     C_R   0.059937 0.032418 0.909896 -0.067055
C50   C     C_R   0.008058 0.107956 0.950745 -0.049868
C51   C     C_R   0.084273 0.196157 0.944941 -0.043102
C52   C     C_R   0.212100 0.208916 0.898124 -0.058421
C53   C     C_3   0.847194 0.108641 0.712807 -0.372225
C54   C     C_3   0.335951 0.181748 0.729387 0.307721
C55   C     C_3   0.399791 0.147878 0.804979 -0.209458
C56   C     C_R   0.641536 0.828343 0.448133 -0.000534
H1    H     H_    0.334234 0.680929 0.250335 0.030053
H2    H     H_    0.336520 0.285423 0.414346 0.072333
H3    H     H_    0.304165 0.794660 0.157998 0.056561
H4    H     H_    0.111513 0.146292 0.288994 0.125447
H5    H     H_    0.174511 0.130082 0.388360 0.066848
H6    H     H_    0.327444 0.142317 0.321648 0.119806
H7    H     H_    0.548333 0.731127 0.279714 -0.061927
H8    H     H_    0.472296 0.731869 0.139860 0.037358
H9    H     H_    0.685946 0.706458 0.635493 0.011593
H10   H     H_    0.476184 0.720211 0.599442 0.066733
H11   H     H_    0.716163 0.852366 0.724167 0.120402
H12   H     H_    0.609100 0.265916 0.192037 0.127023
H13   H     H_    0.660294 0.868888 0.624000 0.062241
H14   H     H_    0.505055 0.865721 0.690465 0.123487
H15   H     H_    0.962592 0.939699 0.327916 0.071558
H16   H     H_    0.798619 0.207587 0.636871 0.084079
H17   H     H_    0.008219 0.224881 0.687660 -0.122606
H18   H     H_    0.713219 0.086080 0.715162 0.140701
H19   H     H_    0.890640 0.061789 0.667385 0.065642
H20   H     H_    0.917310 0.105053 0.770254 0.121122
H21   H     H_    0.227406 0.131691 0.700504 -0.024934
H22   H     H_    0.298755 0.250321 0.743365 -0.004099
H23   H     H_    0.696974 0.380357 0.180685 0.065273
H24   H     H_    0.505079 0.197933 0.837099 0.119462
H25   H     H_    0.035276 0.790484 0.356270 0.092080
H26   H     H_    0.448359 0.082763 0.789759 0.088006
H27   H     H_    0.677058 0.694007 0.472915 0.075549
H28   H     H_    0.507560 0.964478 0.386660 0.101327
H29   H     H_    0.082827 0.901060 0.560222 0.092031
H30   H     H_    0.123060 0.305945 0.531563 0.070256
H31   H     H_    0.192675 0.035166 0.561480 0.072828
H32   H     H_    0.627266 0.119452 0.395179 0.105765
H33   H     H_    0.532826 0.557357 0.858465 0.051004
H34   H     H_    0.829751 0.294354 0.187651 0.124452
H35   H     H_    0.725482 0.582055 0.105863 0.076551
H36   H     H_    0.069513 0.403679 0.895757 0.067984
H37   H     H_    0.820311 0.780629 0.314985 -0.036739
H38   H     H_    0.265094 0.434730 0.153892 0.080734
H39   H     H_    0.648356 0.546350 0.342035 0.071530
H40   H     H_    0.151078 0.466373 0.666278 0.065522
H41   H     H_    0.114874 0.903796 0.267589 0.131815
H42   H     H_    0.899876 0.893652 0.226393 0.161239
H43   H     H_    0.634649 0.365690 0.318276 0.006702
H44   H     H_    0.852863 0.401459 0.312549 0.068125
H45   H     H_    0.157952 0.647723 0.704720 -0.009806
H46   H     H_    0.802390 0.608009 0.822848 0.093276
H47   H     H_    0.768274 0.526781 0.937766 0.073535
H48   H     H_    0.992523 0.551146 0.048673 0.079120
H49   H     H_    0.253547 0.653702 0.043270 0.049773
H50   H     H_    0.295789 0.729033 0.926717 0.063216
H51   H     H_    0.485780 0.913766 0.213065 0.315858
H52   H     H_    0.225429 0.985818 0.831056 0.061638
H53   H     H_    0.000817 0.964118 0.914384 0.067352
H54   H     H_    0.909019 0.098147 0.986977 0.068228
H55   H     H_    0.044615 0.254640 0.976833 0.057559
H56   H     H_    0.934567 0.625991 0.705505 0.045804
H57   H     H_    0.271540 0.277300 0.894585 0.060216
H58   H     H_    0.189862 0.775028 0.809089 0.102102
H59   H     H_    0.971595 0.775019 0.804245 0.106736
H60   H     H_    0.123400 0.290849 0.377454 0.005496
O1    O     O_2   0.167760 0.722240 0.545330 -0.453481
O2    O     O_2   0.745729 0.428222 0.769766 -0.477395
O3    O     O_3   0.826146 0.264828 0.753248 -0.582120
O4    O     O_3   0.895630 0.608830 0.542770 -0.492105
O5    O     O_3   0.421020 0.453750 0.407560 -0.490227
O6    O     O_2   0.649640 0.543870 0.686710 -0.469046
O7    O     O_3   0.513902 0.694786 0.714473 -0.649369
O8    O     O_2   0.501450 0.174286 0.534997 -0.488041
O9    O     O_3   0.463615 0.187130 0.681536 -0.577846
O10   O     O_3   0.383340 0.666720 0.405900 -0.481545
O11   O     O_2   0.302197 0.827867 0.458870 -0.495552
O12   O     O_3   0.291854 0.309773 0.299283 -0.636036
O13   O     O_3   0.027514 0.746589 0.668014 -0.647197
O14   O     O_3   0.367457 0.809507 0.313818 -0.619159
O15   O     O_2   0.160650 0.456070 0.313260 -0.462518
O16   O     O_3   0.956180 0.620960 0.366010 -0.491174
O17   O     O_2   0.042734 0.561502 0.227210 -0.493749
O18   O     O_3   0.543619 0.863963 0.191275 -0.727935
O19   O     O_3   0.979680 0.728890 0.241173 -0.596000
O20   O     O_2   0.642530 0.277700 0.454650 -0.465385
O21   O     O_3   0.914670 0.391160 0.457170 -0.494518
O22   O     O_3   0.426950 0.333280 0.594040 -0.456559
O23   O     O_3   0.783850 0.267299 0.330241 -0.639449
O24   O     O_3   0.389270 0.546240 0.592370 -0.472363
O25   O     O_3   0.854110 0.379030 0.633930 -0.482712
P1    P     P_3+3 0.994810 0.708030 0.567580 0.987645
P2    P     P_3+3 0.329370 0.428660 0.324010 0.987716
P3    P     P_3+3 0.920628 0.619042 0.264474 0.944559
P4    P     P_3+3 0.815490 0.291960 0.432360 0.974231
P5    P     P_3+3 0.879431 0.377362 0.735143 0.977446
P6    P     P_3+3 0.423290 0.784831 0.408137 0.944099
P7    P     P_3+3 0.475182 0.575896 0.690057 0.942164
P8    P     P_3+3 0.387593 0.214904 0.590818 0.963131

loop_
_geom_bond_atom_site_label_1
_geom_bond_atom_site_label_2
_ccdc_geom_bond_type
C38   H60   S    
C26   P7    S    
C38   H2    S    
Ba1   P2    S    
C23   H9    S    
Ba1   O10   S    
O4    P1    S    
C27   P5    S    
C5    C6    A    
C12   O14   S    
C51   C52   A    
C43   H48   S    
C12   H1    S    
O21   P4    S    
C28   O23   S    
C15   H27   S    
Ba2   O21   S    
C22   C24   A    
C1    O18   S    
C8    C13   A    
C36   C37   S    
C36   H56   S    
Ba1   O15   S    
C45   O3    S    
C50   H54   S    
C47   C52   A    
C48   H52   S    
C47   C55   S    
C54   C55   S    
Ba1   Ba2   S    
Ba1   O1    S    
C54   O9    S    
C24   P3    S    
C23   O7    S    
Ba1   O4    S    
O6    P7    D    
Ba1   O24   S    
O9    P8    S    
C41   H46   S    
C3    H30   S    
C18   H39   S    
O5    P2    S    
C26   C33   A    
C6    C7    A    
C11   H28   S    
C14   H29   S    
C21   C22   A    
C25   H33   S    
C33   H40   S    
C7    C8    A    
C8    C17   A    
Ba1   O21   S    
C56   P6    S    
C15   C56   A    
C10   C56   A    
O17   P3    D    
Ba2   O4    S    
C35   H12   S    
C52   H57   S    
H51   O18   S    
Ba2   O25   S    
C35   H23   S    
C23   H10   S    
C16   H42   S    
C39   H4    S    
C4    C16   S    
C51   H55   S    
C31   C32   T    
C37   C40   S    
C1    H3    S    
O25   P5    S    
O16   P3    S    
C44   C46   A    
O3    P5    S    
C49   C50   A    
Ba2   O20   S    
O19   P3    S    
C3    C5    A    
C53   H20   S    
Ba2   P4    S    
C43   C44   A    
C17   P4    S    
C28   C35   S    
C19   P2    S    
C2    C14   A    
C41   C42   A    
Ba1   O5    S    
O11   P6    D    
C36   H45   S    
O8    P8    D    
O14   P6    S    
C29   C30   A    
O20   P4    D    
C21   C32   S    
C44   H49   S    
C28   H44   S    
C48   C49   A    
C55   H26   S    
C4    H37   S    
C40   C46   A    
C10   C11   A    
C7    C9    A    
O22   P8    S    
C1    C12   S    
C5    P8    S    
C53   H18   S    
C38   C39   S    
C47   C48   A    
C16   H15   S    
C11   C13   A    
Ba2   O24   S    
C1    H8    S    
O15   P2    D    
C40   C41   A    
C2    C15   A    
O1    P1    D    
Ba1   O16   S    
C50   C51   A    
C42   H47   S    
C45   C53   S    
C38   O12   S    
C49   H53   S    
C4    H25   S    
C35   H34   S    
C25   C30   A    
C55   H24   S    
C20   H38   S    
C42   C43   A    
C45   H16   S    
C2    P1    S    
C9    C10   A    
C34   H13   S    
O2    P5    D    
C3    C17   A    
Ba2   O6    S    
C29   H36   S    
C27   C33   A    
C54   H22   S    
Ba2   O22   S    
C36   O13   S    
O24   P7    S    
C4    O19   S    
C54   H21   S    
C27   C29   A    
Ba1   P1    S    
C37   H59   S    
C22   H35   S    
C30   C31   S    
C13   H32   S    
C46   H50   S    
C18   C24   A    
C53   H19   S    
C28   H43   S    
C12   H7    S    
C34   H11   S    
C9    C14   A    
O7    P7    S    
O23   P4    S    
C23   C34   S    
C45   H17   S    
O10   P6    S    
C18   C19   A    
C37   H58   S    
C16   H41   S    
C25   C26   A    
C39   H5    S    
C20   C21   A    
C6    H31   S    
C39   H6    S    
C19   C20   A    
Ba2   O5    S    
O13   P1    S    
C34   H14   S    
O12   P2    S    
