data_mof_unit_42737.cif
_audit_creation_date              2012-12-11T16:21:58-0500
_audit_creation_method            fapswitch 2.2
_symmetry_space_group_name_H-M    P1
_symmetry_Int_Tables_number       1
_space_group_crystal_system       triclinic
_cell_length_a                    13.485973
_cell_length_b                    14.013608
_cell_length_c                    30.084775
_cell_angle_alpha                 97.808757
_cell_angle_beta                  90.697034
_cell_angle_gamma                 118.696454
_cell_volume                      4921.41728957

loop_
_atom_site_label
_atom_site_type_symbol
_atom_type_description
_atom_site_fract_x
_atom_site_fract_y
_atom_site_fract_z
_atom_type_partial_charge
C1    C     C_R   0.722726 0.099771 0.568819 0.529250
C2    C     C_R   0.351323 0.692602 0.680490 -0.059865
C3    C     C_R   0.255049 0.677277 0.655505 0.286593
C4    C     C_R   0.261729 0.693252 0.610366 0.224864
C5    C     C_R   0.243516 0.656337 0.832825 0.238496
C6    C     C_R   0.227217 0.632678 0.876516 0.241024
C7    C     C_R   0.404724 0.625331 0.880069 0.233468
C8    C     C_R   0.423604 0.654771 0.836691 0.254044
C9    C     C_R   0.339546 0.664690 0.812602 -0.024293
C10   C     C_1   0.347570 0.677996 0.766375 0.124858
C11   C     C_1   0.349453 0.684689 0.727175 0.074982
C12   C     C_R   0.384433 0.788628 0.551200 0.559788
C13   C     C_R   0.302647 0.607354 0.898991 -0.055566
C14   C     C_3   0.239403 0.155944 0.723473 -0.105302
C15   C     C_3   0.223553 0.066936 0.752604 -0.134888
C16   C     C_1   0.294593 0.195815 0.876764 0.027119
C17   C     C_1   0.370027 0.132813 0.615042 0.033006
C18   C     C_3   0.326599 0.247584 0.760620 -0.098960
C19   C     C_3   0.310862 0.158422 0.788977 0.019711
C20   C     C_3   0.423441 0.235201 0.738909 0.283567
C21   C     C_3   0.337061 0.144861 0.702198 -0.003165
C22   C     C_3   0.407626 0.147054 0.767641 0.310437
C23   C     C_R   0.398600 0.118148 0.570001 0.545245
C24   C     C_3   0.321587 0.055330 0.730526 -0.127180
C25   C     C_1   0.301231 0.174026 0.837315 0.029481
C26   C     C_1   0.352630 0.139407 0.654135 0.009022
C27   C     C_3   0.907623 0.274006 0.734967 0.230023
C28   C     C_3   0.810271 0.253681 0.765394 0.283769
C29   C     C_1   0.891964 0.203206 0.878736 0.079213
C30   C     C_1   0.776426 0.134762 0.613587 0.047859
C31   C     C_3   0.940906 0.203962 0.760650 0.186142
C32   C     C_3   0.842599 0.182880 0.790939 -0.043543
C33   C     C_3   0.859409 0.098925 0.727720 0.220398
C34   C     C_R   0.720434 0.095615 0.442847 0.548662
C35   C     C_3   0.827395 0.169549 0.701807 -0.042639
C36   C     C_3   0.760870 0.077086 0.757940 0.165791
C37   C     C_3   0.729789 0.148599 0.732065 0.271088
C38   C     C_1   0.862334 0.192321 0.839659 0.117796
C39   C     C_1   0.807480 0.155394 0.652967 0.074039
C40   C     C_3   0.245164 0.658824 0.258186 0.222893
C41   C     C_3   0.327661 0.743552 0.230572 0.268054
C42   C     C_1   0.309459 0.605451 0.111551 0.049271
C43   C     C_1   0.363781 0.733132 0.378641 0.088319
C44   C     C_3   0.255393 0.565401 0.228395 -0.154453
C45   C     C_R   0.381592 0.783778 0.424556 0.553149
C46   C     C_3   0.338684 0.651298 0.200823 -0.008919
C47   C     C_3   0.357648 0.586203 0.260583 -0.131072
C48   C     C_3   0.346882 0.679774 0.289761 -0.009077
C49   C     C_3   0.440237 0.671124 0.232267 0.218200
C50   C     C_3   0.429577 0.764193 0.261682 0.260760
C51   C     C_1   0.327585 0.631546 0.151714 0.054053
C52   C     C_1   0.353961 0.703071 0.338760 0.085450
C53   C     C_R   0.349297 0.137391 0.402925 -0.028038
C54   C     C_R   0.399695 0.245938 0.392241 0.223830
C55   C     C_R   0.383024 0.261771 0.348229 0.272593
C56   C     C_R   0.394342 0.115183 0.443353 0.583688
C57   C     C_R   0.312275 0.170730 0.315856 -0.043542
C58   C     C_R   0.249182 0.067171 0.328011 -0.128142
C59   C     C_R   0.266607 0.049136 0.371006 0.163801
C60   C     C_R   0.223715 0.109376 0.152494 0.236038
C61   C     C_R   0.221758 0.122832 0.107565 -0.140268
C62   C     C_R   0.413149 0.279088 0.120981 0.257652
C63   C     C_R   0.413627 0.266273 0.166348 -0.122648
C64   C     C_R   0.318061 0.184436 0.182259 -0.014909
C65   C     C_1   0.315367 0.182030 0.229516 0.068766
C66   C     C_1   0.312631 0.178783 0.269061 0.073036
C67   C     C_R   0.367915 0.734665 0.591694 -0.028662
C68   C     C_R   0.312949 0.211649 0.091967 -0.022541
C69   C     C_R   0.783207 0.136297 0.403474 -0.066002
C70   C     C_R   0.828754 0.077847 0.376952 0.281208
C71   C     C_R   0.859697 0.102480 0.333809 0.218086
C72   C     C_R   0.850262 0.188170 0.318207 -0.014302
C73   C     C_R   0.817457 0.253920 0.346550 0.197757
C74   C     C_R   0.784663 0.228142 0.388868 -0.146179
C75   C     C_R   0.877270 0.296028 0.167175 -0.130827
C76   C     C_R   0.894546 0.303292 0.121787 0.199197
C77   C     C_R   0.881235 0.122150 0.111319 -0.146028
C78   C     C_R   0.461327 0.739827 0.616524 0.170433
C79   C     C_R   0.861119 0.114048 0.156552 0.278157
C80   C     C_R   0.866169 0.204523 0.184767 -0.009291
C81   C     C_1   0.863488 0.204337 0.232213 0.084171
C82   C     C_1   0.860366 0.199770 0.271686 0.107134
C83   C     C_R   0.903159 0.218098 0.093798 -0.020293
C84   C     C_R   0.283436 0.232313 0.922068 0.543673
C85   C     C_R   0.266812 0.549130 0.938462 0.572752
C86   C     C_R   0.944226 0.221783 0.923004 0.550191
C87   C     C_R   0.292827 0.243859 0.049399 0.557827
C88   C     C_R   0.275589 0.558559 0.065207 0.537498
C89   C     C_R   0.451813 0.719273 0.660605 -0.151747
C90   C     C_R   0.954728 0.233367 0.050294 0.565371
Cr1   Cr    Cr6+3 0.583430 0.162610 0.509470 1.098243
Cr2   Cr    Cr6+3 0.584210 0.916680 0.495400 1.147230
Cr3   Cr    Cr6+3 0.332380 0.920740 0.495100 1.120683
Cr4   Cr    Cr6+3 0.086810 0.177030 0.983130 1.047982
Cr5   Cr    Cr6+3 0.337180 0.419300 0.994610 1.081526
Cr6   Cr    Cr6+3 0.084840 0.422330 0.995830 1.129931
H1    H     H_    0.170309 0.159267 0.704492 0.200174
H2    H     H_    0.321192 0.977344 0.717405 0.101267
H3    H     H_    0.328570 0.326381 0.773672 0.160822
H4    H     H_    0.369433 0.521509 0.273537 0.206942
H5    H     H_    0.183466 0.483416 0.213962 0.166568
H6    H     H_    0.145005 0.068234 0.085762 0.172487
H7    H     H_    0.190777 0.998237 0.303037 0.200859
H8    H     H_    0.486923 0.323469 0.189504 0.177580
H9    H     H_    0.876823 0.363832 0.189171 0.200355
H10   H     H_    0.753127 0.276220 0.409042 0.203084
H11   H     H_    0.888302 0.056304 0.090861 0.158249
H12   H     H_    0.524838 0.728143 0.680066 0.187076
H13   H     H_    0.141700 0.997579 0.759205 0.133171
O1    O     O_R   0.493980 0.188910 0.559650 -0.472046
O2    O     O_R   0.480180 0.824400 0.444640 -0.481291
O3    O     O_R   0.308310 0.808540 0.439800 -0.455024
O4    O     O_R   0.340740 0.020600 0.455570 -0.449250
O5    O     O_3   0.500010 0.000010 0.499990 -0.296555
O6    O     O_R   0.969650 0.150960 0.933380 -0.495380
O7    O     O_R   0.187740 0.180870 0.937580 -0.489104
O8    O     O_R   0.358510 0.327410 0.940870 -0.526118
O9    O     O_R   0.324180 0.507870 0.953930 -0.472355
O10   O     O_R   0.170560 0.527890 0.952050 -0.462691
O11   O     O_R   0.987620 0.318470 0.945550 -0.478273
O12   O     O_R   0.678640 0.153520 0.554450 -0.497522
O13   O     O_R   0.976400 0.159270 0.031530 -0.529254
O14   O     O_R   0.194000 0.188570 0.028560 -0.520494
O15   O     O_R   0.365260 0.335720 0.039020 -0.441717
O16   O     O_R   0.330440 0.515580 0.044910 -0.491131
O17   O     O_R   0.177310 0.536200 0.050190 -0.467919
O18   O     O_R   0.993870 0.326170 0.036530 -0.434416
O19   O     O_3   0.169610 0.339550 0.991190 -0.279119
O20   O     O_R   0.698130 0.004030 0.549500 -0.461012
O21   O     O_R   0.481060 0.827210 0.535360 -0.445467
O22   O     O_R   0.309260 0.811560 0.537660 -0.470085
O23   O     O_R   0.341620 0.023400 0.546290 -0.503873
O24   O     O_R   0.493030 0.185890 0.461780 -0.454994
O25   O     O_R   0.677760 0.150720 0.463730 -0.516162
O26   O     O_R   0.697180 0.001010 0.451640 -0.446163
O27   O     O_3   0.131138 0.625103 0.895341 -0.472470
C91   C     C_3   0.160467 0.727730 0.921698 -0.046681
H14   H     H_    0.190150 0.794498 0.900749 0.144905
H15   H     H_    0.226101 0.749302 0.949689 0.102358
H16   H     H_    0.083782 0.722107 0.936983 0.162269
Cl1   Cl    Cl    0.512605 0.138440 0.800741 -0.464718
Cl2   Cl    Cl    0.554800 0.347578 0.729024 -0.474480
Cl3   Cl    Cl    0.780354 0.357771 0.791509 -0.336651
Cl4   Cl    Cl    0.004903 0.403055 0.719468 -0.397379
O28   O     O_3   0.621933 0.128519 0.715412 -0.468245
C92   C     C_3   0.557130 0.019067 0.692859 -0.059129
H17   H     H_    0.508058 0.964501 0.717074 0.187140
H18   H     H_    0.608376 0.986069 0.674642 0.137657
H19   H     H_    0.495205 0.016413 0.667446 0.112573
Cl5   Cl    Cl    0.663465 0.951165 0.776052 -0.573383
O29   O     O_3   0.889068 0.023196 0.704336 -0.526496
C93   C     C_3   0.900555 0.958718 0.733927 -0.041987
H20   H     H_    0.816067 0.890792 0.738991 0.191441
H21   H     H_    0.947388 0.007771 0.766908 0.156995
H22   H     H_    0.949327 0.920213 0.718075 0.133582
Cl6   Cl    Cl    0.139532 0.672415 0.803388 -0.486552
Cl7   Cl    Cl    0.081804 0.245944 0.782055 -0.630715
O30   O     O_3   0.309586 0.820913 0.211279 -0.537287
C94   C     C_3   0.315895 0.903853 0.245294 -0.050184
H23   H     H_    0.405576 0.965059 0.256680 0.132056
H24   H     H_    0.269154 0.870615 0.274618 0.183698
H25   H     H_    0.276811 0.948047 0.230918 0.175000
Cl8   Cl    Cl    0.113841 0.645399 0.275641 -0.432169
O31   O     O_3   0.517324 0.867805 0.282801 -0.553571
C95   C     C_3   0.590337 0.923361 0.250919 -0.062693
H26   H     H_    0.545438 0.909820 0.217426 0.117506
H27   H     H_    0.657372 0.899247 0.247296 0.224791
H28   H     H_    0.632676 0.013058 0.263676 0.136681
Cl9   Cl    Cl    0.565478 0.671801 0.213742 -0.527034
Cl10  Cl    Cl    0.103031 0.003013 0.171175 -0.490235
O32   O     O_3   0.152625 0.641748 0.674368 -0.473793
C96   C     C_3   0.142281 0.734757 0.691967 -0.027275
H29   H     H_    0.147093 0.785107 0.665619 0.125329
H30   H     H_    0.207752 0.786279 0.720431 0.124548
H31   H     H_    0.058029 0.706087 0.705316 0.202847
Cl11  Cl    Cl    0.186683 0.911935 0.380717 -0.493588
Cl12  Cl    Cl    0.483874 0.363529 0.433107 -0.438850
O33   O     O_3   0.505098 0.366099 0.106748 -0.516123
C97   C     C_3   0.592016 0.338171 0.100585 -0.052681
H32   H     H_    0.562597 0.260990 0.075909 0.108112
H33   H     H_    0.625458 0.330364 0.133104 0.138919
H34   H     H_    0.663281 0.405304 0.086736 0.204140
Cl13  Cl    Cl    0.454910 0.394675 0.332976 -0.458668
Cl14  Cl    Cl    0.910467 0.423340 0.103068 -0.555904
Cl15  Cl    Cl    0.807141 0.363692 0.328562 -0.461481
O34   O     O_3   0.832948 0.989806 0.390943 -0.473947
C98   C     C_3   0.937630 0.030513 0.416450 -0.024757
H35   H     H_    0.010438 0.070938 0.395961 0.153349
H36   H     H_    0.941864 0.960152 0.427564 0.193289
H37   H     H_    0.945614 0.088624 0.447208 0.090210
O35   O     O_3   0.165679 0.677305 0.586213 -0.526850
C99   C     C_3   0.113629 0.570588 0.560669 -0.050977
H38   H     H_    0.087272 0.506338 0.582774 0.156340
H39   H     H_    0.170273 0.561319 0.535872 0.113475
H40   H     H_    0.035978 0.556908 0.541439 0.165493
O36   O     O_3   0.852235 0.025119 0.175059 -0.492645
C100  C     C_3   0.757122 0.927103 0.153805 -0.053721
H41   H     H_    0.679270 0.935710 0.152112 0.080809
H42   H     H_    0.740678 0.861208 0.173950 0.223735
H43   H     H_    0.773814 0.899702 0.119691 0.136173
Cl16  Cl    Cl    0.903941 0.020848 0.298704 -0.456863
Cl17  Cl    Cl    0.594772 0.775718 0.595984 -0.510824
O37   O     O_3   0.528282 0.682564 0.820328 -0.506113
C101  C     C_3   0.518280 0.601487 0.784240 -0.069424
H44   H     H_    0.515908 0.629250 0.751650 0.149828
H45   H     H_    0.443600 0.518692 0.784424 0.093407
H46   H     H_    0.595275 0.592181 0.786444 0.188380
O38   O     O_3   0.488654 0.621507 0.905623 -0.523702
C102  C     C_3   0.502050 0.530449 0.887322 -0.021112
H47   H     H_    0.422262 0.458565 0.870050 0.102018
H48   H     H_    0.530387 0.502542 0.915231 0.168373
H49   H     H_    0.570305 0.555887 0.864194 0.166707

loop_
_geom_bond_atom_site_label_1
_geom_bond_atom_site_label_2
_ccdc_geom_bond_type
Cr5   O15   S    
C49   Cl9   S    
O37   C101  S    
C95   H26   S    
C12   O22   A    
C100  H43   S    
C22   Cl1   S    
C73   C74   A    
C14   C18   S    
Cr6   O10   S    
Cr2   O21   S    
C57   C66   S    
C21   C26   S    
C36   Cl5   S    
C102  H49   S    
C56   O24   A    
C53   C59   A    
C45   O3    A    
C7    C8    A    
C47   C49   S    
C53   C54   A    
Cr5   O8    S    
C15   C19   S    
C91   H15   S    
C46   C49   S    
C86   O11   A    
O38   C102  S    
C41   C46   S    
C12   O21   A    
C24   H2    S    
C17   C26   T    
C32   C36   S    
Cr1   O1    S    
C36   C37   S    
C35   C37   S    
C1    O20   A    
C69   C70   A    
C87   O15   A    
C43   C52   T    
C34   O25   A    
C16   C84   S    
C33   C36   S    
Cr6   O19   S    
C85   O10   A    
C18   C19   S    
O36   C100  S    
C70   O34   S    
C100  H42   S    
C15   H13   S    
C98   H37   S    
C88   O17   A    
C33   C35   S    
C54   C55   A    
Cr5   O19   S    
C28   C32   S    
C47   C48   S    
C44   C46   S    
C8    C9    A    
C29   C38   T    
C23   O23   A    
C6    O27   S    
C90   O18   A    
C94   H24   S    
C70   C71   A    
C44   H5    S    
C32   C38   S    
Cr3   O23   S    
C75   C80   A    
C40   C44   S    
C8    O37   S    
C44   C47   S    
C42   C51   T    
C97   H34   S    
Cr4   O14   S    
C48   C50   S    
O29   C93   S    
C95   H27   S    
C90   O13   A    
C4    O35   S    
O31   C95   S    
C85   O9    A    
C67   C78   A    
C17   C23   S    
C2    C11   S    
C76   C83   A    
C91   H16   S    
C96   H30   S    
O28   C92   S    
C92   H18   S    
C77   C79   A    
C78   C89   A    
C12   C67   S    
C50   O31   S    
O35   C99   S    
C99   H40   S    
O33   C97   S    
C77   H11   S    
C19   C22   S    
C40   Cl8   S    
C59   Cl11  S    
C33   O29   S    
Cr4   O7    S    
C72   C73   A    
C27   C35   S    
C58   C59   A    
C27   C31   S    
C46   C51   S    
C81   C82   T    
C79   O36   S    
C63   C64   A    
Cr6   O18   S    
C60   C61   A    
C99   H39   S    
C2    C89   A    
C35   C39   S    
C75   C76   A    
C5    C9    A    
C62   C63   A    
C20   Cl2   S    
C74   H10   S    
C92   H19   S    
Cr5   O16   S    
C94   H23   S    
Cr1   O24   S    
C101  H46   S    
C7    C13   A    
C56   O4    A    
C31   C33   S    
C102  H47   S    
C94   H25   S    
Cr6   O17   S    
C69   C74   A    
C28   Cl3   S    
Cr3   O4    S    
C20   C21   S    
C43   C45   S    
O32   C96   S    
C29   C86   S    
C31   Cl7   S    
C93   H22   S    
Cr4   O13   S    
C40   C41   S    
C93   H21   S    
C75   H9    S    
C95   H28   S    
Cr4   O19   S    
C10   C11   T    
C55   C57   A    
O30   C94   S    
C7    O38   S    
C49   C50   S    
C22   C24   S    
Cr2   O26   S    
C42   C88   S    
C18   H3    S    
C20   C22   S    
C3    C4    A    
C41   C50   S    
C96   H29   S    
C14   C21   S    
C14   H1    S    
C92   H17   S    
C9    C10   S    
C53   C56   S    
C16   C25   T    
C71   Cl16  S    
C83   C90   S    
C40   C48   S    
C15   C24   S    
C55   Cl13  S    
C41   O30   S    
Cr5   O9    S    
C34   C69   S    
Cr6   O11   S    
C31   C32   S    
C78   Cl17  S    
C101  H45   S    
C80   C81   S    
C62   O33   S    
C4    C67   A    
C73   Cl15  S    
Cr4   O6    S    
C96   H31   S    
Cr2   O2    S    
C58   H7    S    
C27   Cl4   S    
C97   H32   S    
C5    Cl6   S    
C91   H14   S    
C54   Cl12  S    
C62   C68   A    
C60   C64   A    
C60   Cl10  S    
C64   C65   S    
Cr2   O20   S    
C28   C37   S    
C98   H35   S    
Cr3   O22   S    
C45   O2    A    
C99   H38   S    
C6    C13   A    
C87   O14   A    
C61   C68   A    
C3    O32   S    
C57   C58   A    
C5    C6    A    
Cr1   O25   S    
C34   O26   A    
C89   H12   S    
C1    C30   S    
C102  H48   S    
C30   C39   T    
C61   H6    S    
C63   H8    S    
C18   C20   S    
Cr3   O5    S    
C100  H41   S    
C19   C25   S    
C1    O12   A    
C98   H36   S    
C88   O16   A    
C84   O8    A    
C47   H4    S    
Cr3   O3    S    
C79   C80   A    
C48   C52   S    
C71   C72   A    
C101  H44   S    
C84   O7    A    
C65   C66   T    
Cr1   O12   S    
C21   C24   S    
C13   C85   S    
C27   C28   S    
C68   C87   S    
C77   C83   A    
C14   C15   S    
C86   O6    A    
C2    C3    A    
C93   H20   S    
C23   O1    A    
C37   O28   S    
O34   C98   S    
C76   Cl14  S    
Cr2   O5    S    
Cr1   O5    S    
C72   C82   S    
O27   C91   S    
C97   H33   S    
