data_mof_unit_66726.cif
_audit_creation_date              2013-03-05T15:39:25-0500
_audit_creation_method            fapswitch 2.2
_symmetry_space_group_name_H-M    P1
_symmetry_Int_Tables_number       1
_space_group_crystal_system       triclinic
_cell_length_a                    20.672666
_cell_length_b                    22.708589
_cell_length_c                    8.423923
_cell_angle_alpha                 90.000033
_cell_angle_beta                  104.203673
_cell_angle_gamma                 89.982654
_cell_volume                      3833.69264328

loop_
_atom_site_label
_atom_site_type_symbol
_atom_site_description
_atom_site_fract_x
_atom_site_fract_y
_atom_site_fract_z
_atom_type_partial_charge
P1    P     P_3+3 0.859590 0.433890 0.993820 0.490849
P2    P     P_3+3 0.859590 0.566110 0.493820 0.490774
P3    P     P_3+3 0.359590 0.933890 0.993820 0.496584
P4    P     P_3+3 0.359590 0.066110 0.493820 0.496611
O1    O     O_2   0.866180 0.413660 0.823810 -0.373659
O2    O     O_2   0.866180 0.586340 0.323810 -0.373731
O3    O     O_2   0.366180 0.913660 0.823810 -0.325090
O4    O     O_2   0.366180 0.086340 0.323810 -0.324994
O5    O     O_3   0.922050 0.469730 0.097400 -0.409375
O6    O     O_3   0.922050 0.530270 0.597400 -0.409396
O7    O     O_3   0.422050 0.969730 0.097400 -0.411639
O8    O     O_3   0.422050 0.030270 0.597400 -0.411645
O9    O     O_3   0.976760 0.360270 0.628090 -0.384044
O10   O     O_3   0.976760 0.639730 0.128090 -0.384102
O11   O     O_3   0.476760 0.860270 0.628090 -0.415274
O12   O     O_3   0.476760 0.139730 0.128090 -0.415240
O13   O     O_2   0.869524 0.312834 0.682397 -0.247795
O14   O     O_2   0.869381 0.687092 0.182055 -0.248484
O15   O     O_2   0.376801 0.802180 0.683617 -0.209033
O16   O     O_2   0.376718 0.197766 0.183530 -0.208890
O17   O     O_3   0.786494 0.475255 0.952902 -0.584944
O18   O     O_3   0.786448 0.524857 0.452848 -0.584766
O19   O     O_3   0.286864 0.975733 0.944063 -0.593225
O20   O     O_3   0.286860 0.024310 0.444106 -0.593175
O21   O     O_3   0.964542 0.240408 0.650353 -0.412288
O22   O     O_3   0.964390 0.759571 0.150501 -0.412125
O23   O     O_3   0.471701 0.735788 0.628872 -0.428240
O24   O     O_3   0.471576 0.264198 0.128924 -0.428340
H1    H     H_    0.021998 0.268141 0.487248 -0.028035
H2    H     H_    0.021852 0.731961 0.987220 -0.028291
H3    H     H_    0.559579 0.783731 0.698330 0.125528
H4    H     H_    0.559514 0.216301 0.198361 0.125566
C1    C     C_3   0.075149 0.204526 0.653902 0.045907
C2    C     C_3   0.075042 0.795348 0.154446 0.045374
C3    C     C_3   0.581907 0.693378 0.676166 -0.019938
C4    C     C_3   0.581721 0.306655 0.175960 -0.020151
H5    H     H_    0.094970 0.234291 0.759105 0.194406
H6    H     H_    0.094952 0.765318 0.259000 0.193915
H7    H     H_    0.582670 0.682824 0.805359 0.189711
H8    H     H_    0.582357 0.317334 0.305006 0.189784
P5    P     P_3+3 0.140130 0.433190 0.695710 0.497321
P6    P     P_3+3 0.140130 0.566810 0.195710 0.497326
P7    P     P_3+3 0.640130 0.933190 0.695710 0.491999
P8    P     P_3+3 0.640130 0.066810 0.195710 0.491993
P9    P     P_3+3 0.082683 0.305053 0.113494 0.553910
P10   P     P_3+3 0.082730 0.694892 0.613668 0.553774
P11   P     P_3+3 0.583183 0.805458 0.113268 0.529794
P12   P     P_3+3 0.583113 0.194562 0.613355 0.529776
O25   O     O_2   0.133470 0.412980 0.865660 -0.370029
O26   O     O_2   0.133470 0.587020 0.365660 -0.370798
O27   O     O_2   0.633470 0.912980 0.865660 -0.375053
O28   O     O_2   0.633470 0.087020 0.365660 -0.375208
O29   O     O_3   0.022720 0.360150 0.061220 -0.373627
O30   O     O_3   0.022720 0.639850 0.561220 -0.373870
O31   O     O_3   0.522720 0.860150 0.061220 -0.369528
O32   O     O_3   0.522720 0.139850 0.561220 -0.369684
O33   O     O_2   0.127351 0.313924 0.993860 -0.306291
O34   O     O_2   0.127400 0.686002 0.494060 -0.306647
O35   O     O_2   0.627129 0.813928 0.991935 -0.317425
O36   O     O_2   0.627117 0.186061 0.492165 -0.317265
O37   O     O_3   0.211139 0.476614 0.770773 -0.581320
O38   O     O_3   0.211312 0.523507 0.270725 -0.582154
O39   O     O_3   0.711033 0.976920 0.769025 -0.582063
O40   O     O_3   0.711065 0.023026 0.269142 -0.583505
O41   O     O_3   0.044372 0.238298 0.043313 -0.432313
O42   O     O_3   0.044479 0.761737 0.543817 -0.431937
O43   O     O_3   0.544354 0.738986 0.044688 -0.482157
O44   O     O_3   0.544253 0.261017 0.544527 -0.482108
C5    C     C_3   0.020791 0.211112 0.167619 0.128250
C6    C     C_3   0.020999 0.788909 0.668369 0.130591
C7    C     C_3   0.523524 0.711115 0.171947 0.110452
C8    C     C_3   0.523231 0.288883 0.671531 0.112215
H9    H     H_    0.980172 0.238222 0.195781 0.058109
H10   H     H_    0.979998 0.762075 0.695559 0.058409
H11   H     H_    0.485428 0.738467 0.210716 0.084083
H12   H     H_    0.484982 0.261588 0.709789 0.083904
H13   H     H_    0.061734 0.204768 0.279299 0.018495
H14   H     H_    0.061863 0.794713 0.780460 0.015665
H15   H     H_    0.566533 0.702998 0.277353 0.097132
H16   H     H_    0.566087 0.296891 0.777354 0.096847
C9    C     C_3   0.993840 0.150192 0.105742 0.345104
C10   C     C_3   0.994845 0.850219 0.607770 0.344886
C11   C     C_3   0.493286 0.651875 0.105781 0.350215
C12   C     C_3   0.493222 0.348207 0.605302 0.349506
H17   H     H_    0.036842 0.122575 0.094300 0.132329
H18   H     H_    0.038302 0.877598 0.598431 0.131424
H19   H     H_    0.533609 0.624918 0.074934 0.094226
H20   H     H_    0.533729 0.375109 0.575230 0.094818
C13   C     C_3   0.214851 0.476940 0.166428 0.222684
C14   C     C_3   0.214856 0.522827 0.665823 0.224446
C15   C     C_3   0.714394 0.977081 0.162798 0.223024
C16   C     C_3   0.714148 0.022854 0.662585 0.225768
H21   H     H_    0.192763 0.489944 0.037957 0.139606
H22   H     H_    0.192858 0.509594 0.537556 0.137889
H23   H     H_    0.691277 0.990508 0.035231 0.140456
H24   H     H_    0.690920 0.009465 0.535054 0.139449
C17   C     C_3   0.289210 0.459875 0.179453 0.010439
C18   C     C_3   0.289230 0.539608 0.678993 0.007891
C19   C     C_3   0.788634 0.960917 0.170847 0.000888
C20   C     C_3   0.788260 0.038992 0.670119 -0.002757
H25   H     H_    0.293389 0.451911 0.053544 0.167127
H26   H     H_    0.293261 0.548373 0.553393 0.167453
H27   H     H_    0.791555 0.953732 0.043702 0.168315
H28   H     H_    0.790692 0.047300 0.543217 0.169105
Ba1   Ba    Ba6+2 0.999900 0.456810 0.844860 1.623872
Ba2   Ba    Ba6+2 0.999900 0.543190 0.344860 1.623804
Ba3   Ba    Ba6+2 0.499900 0.956810 0.844860 1.624488
Ba4   Ba    Ba6+2 0.499900 0.043190 0.344860 1.624376
C21   C     C_3   0.797859 0.534402 0.924351 0.129192
C22   C     C_3   0.797747 0.465674 0.424565 0.128914
C23   C     C_3   0.299944 0.033854 0.909850 0.104321
C24   C     C_3   0.299925 0.966183 0.409867 0.104370
H29   H     H_    0.799761 0.539060 0.794395 0.115736
H30   H     H_    0.799620 0.460914 0.294612 0.115731
H31   H     H_    0.321717 0.036000 0.802063 0.079515
H32   H     H_    0.321690 0.964022 0.302068 0.079508
H33   H     H_    0.845257 0.551528 0.003502 0.117278
H34   H     H_    0.845133 0.448516 0.503762 0.117325
H35   H     H_    0.335577 0.053743 0.016880 0.153422
H36   H     H_    0.335552 0.946264 0.516891 0.153355
C25   C     C_3   0.739933 0.570844 0.959862 0.027421
C26   C     C_3   0.739781 0.429387 0.460295 0.027547
C27   C     C_3   0.232582 0.066370 0.876075 0.019682
C28   C     C_3   0.232555 0.933718 0.376092 0.019736
H37   H     H_    0.752781 0.582851 0.092020 0.156802
H38   H     H_    0.752589 0.417529 0.592562 0.156669
H39   H     H_    0.200961 0.045905 0.950586 0.174623
H40   H     H_    0.200990 0.954132 0.450852 0.174493
O45   O     O_3   0.077880 0.530130 0.092320 -0.417111
O46   O     O_3   0.077880 0.469870 0.592320 -0.417151
O47   O     O_3   0.577880 0.030130 0.092320 -0.414013
O48   O     O_3   0.577880 0.969870 0.592320 -0.414261
P13   P     P_3+3 0.919301 0.696156 0.074701 0.601455
P14   P     P_3+3 0.919359 0.303830 0.574782 0.601515
P15   P     P_3+3 0.424732 0.200032 0.069321 0.596443
P16   P     P_3+3 0.424791 0.799951 0.569338 0.596406
C29   C     C_3   0.009119 0.228687 0.551919 0.176246
C30   C     C_3   0.008998 0.771352 0.052218 0.175472
C31   C     C_3   0.537362 0.746556 0.617719 0.247603
C32   C     C_3   0.537237 0.253452 0.117682 0.247374
H41   H     H_    0.985766 0.195812 0.459542 0.124439
H42   H     H_    0.985690 0.804346 0.960113 0.124532
H43   H     H_    0.538277 0.757098 0.489977 -0.039442
H44   H     H_    0.538128 0.242887 0.989931 -0.039385
H45   H     H_    0.111866 0.203555 0.577345 0.030103
H46   H     H_    0.111693 0.796605 0.077732 0.030895
H47   H     H_    0.633311 0.705719 0.671423 0.123112
H48   H     H_    0.633169 0.294287 0.171587 0.123156
C33   C     C_R   0.117079 0.647539 0.931004 -0.533698
C34   C     C_R   0.116933 0.352377 0.430979 -0.533772
C35   C     C_R   0.617568 0.147441 0.930262 -0.552699
C36   C     C_R   0.617549 0.852571 0.430179 -0.552320
C37   C     C_R   0.133415 0.691132 0.830719 0.050889
C38   C     C_R   0.133297 0.308779 0.330653 0.050265
C39   C     C_R   0.634253 0.190806 0.829778 0.059896
C40   C     C_R   0.634340 0.809262 0.329640 0.060117
C41   C     C_R   0.190280 0.727024 0.888747 0.184252
C42   C     C_R   0.190211 0.272920 0.388652 0.184573
C43   C     C_R   0.691603 0.226305 0.887105 0.209297
C44   C     C_R   0.691825 0.773889 0.386888 0.208615
C45   C     C_R   0.228791 0.724165 0.055834 -0.142889
C46   C     C_R   0.228783 0.275839 0.555673 -0.141706
C47   C     C_R   0.730298 0.223267 0.054245 -0.150930
C48   C     C_R   0.730468 0.776899 0.554023 -0.149871
C49   C     C_R   0.209573 0.677455 0.153938 0.206513
C50   C     C_R   0.209593 0.322597 0.653665 0.207328
C51   C     C_R   0.710953 0.176312 0.151715 0.207284
C52   C     C_R   0.711053 0.823811 0.651474 0.207707
C53   C     C_R   0.156462 0.637238 0.087811 0.205534
C54   C     C_R   0.156424 0.362766 0.587649 0.204335
C55   C     C_R   0.657079 0.136826 0.086569 0.181371
C56   C     C_R   0.657078 0.863210 0.586446 0.180710
C57   C     C_R   0.835501 0.260918 0.276557 -0.070432
C58   C     C_R   0.835668 0.739221 0.776309 -0.071387
C59   C     C_R   0.335915 0.760004 0.273611 -0.037837
C60   C     C_R   0.335915 0.239993 0.773526 -0.038513
C61   C     C_R   0.878743 0.305900 0.351974 0.122720
C62   C     C_R   0.878814 0.694162 0.851825 0.123504
C63   C     C_R   0.380054 0.804390 0.349262 0.152465
C64   C     C_R   0.380046 0.195592 0.849226 0.152159
C65   C     C_R   0.849252 0.363565 0.103512 0.311058
C66   C     C_R   0.849312 0.636492 0.603381 0.311764
C67   C     C_R   0.347850 0.863972 0.104289 0.285118
C68   C     C_R   0.347874 0.136024 0.604274 0.285266
C69   C     C_R   0.797077 0.322789 0.040091 -0.085761
C70   C     C_R   0.797229 0.677371 0.539804 -0.086548
C71   C     C_R   0.293937 0.824503 0.044267 -0.189834
C72   C     C_R   0.293968 0.175511 0.544204 -0.190330
C73   C     C_R   0.788669 0.268492 0.122296 0.170426
C74   C     C_R   0.788856 0.731675 0.622030 0.169435
C75   C     C_R   0.287231 0.769158 0.123111 0.193050
C76   C     C_R   0.287247 0.230856 0.623002 0.191981
C77   C     C_R   0.888319 0.355069 0.261689 -0.474612
C78   C     C_R   0.888336 0.644949 0.761614 -0.474777
C79   C     C_R   0.388850 0.854091 0.259888 -0.482246
C80   C     C_R   0.388860 0.145883 0.759889 -0.482300
H49   H     H_    0.840481 0.221295 0.345552 0.221850
H50   H     H_    0.840679 0.778873 0.845218 0.221581
H51   H     H_    0.341134 0.719518 0.338935 0.222530
H52   H     H_    0.341151 0.280471 0.838866 0.222761
H53   H     H_    0.761421 0.337545 0.932779 0.180456
H54   H     H_    0.761594 0.662709 0.432340 0.180268
H55   H     H_    0.256753 0.839930 0.940326 0.180821
H56   H     H_    0.256795 0.160084 0.440279 0.181006
H57   H     H_    0.923827 0.388502 0.318198 0.161526
H58   H     H_    0.923762 0.611451 0.818233 0.161439
H59   H     H_    0.425852 0.886594 0.314843 0.163892
H60   H     H_    0.425857 0.113361 0.814884 0.163963
H61   H     H_    0.075359 0.618619 0.881931 0.184583
H62   H     H_    0.075130 0.381247 0.382022 0.184381
H63   H     H_    0.575384 0.118955 0.881758 0.189178
H64   H     H_    0.575295 0.881012 0.381725 0.189218
N1    N     N_3   0.337263 0.506326 0.246246 -0.123754
H65   H     H_    0.319958 0.546400 0.191692 0.228483
H66   H     H_    0.342221 0.510175 0.371974 0.205039
N2    N     N_3   0.336945 0.492613 0.742982 -0.124459
H67   H     H_    0.319163 0.452995 0.686419 0.225923
H68   H     H_    0.341980 0.487830 0.868549 0.208856
N3    N     N_3   0.836358 0.007626 0.236027 -0.117437
H69   H     H_    0.818378 0.047246 0.180123 0.234290
H70   H     H_    0.841605 0.011767 0.361778 0.209397
N4    N     N_3   0.835882 0.991759 0.731230 -0.119647
H71   H     H_    0.817360 0.952596 0.673346 0.231071
H72   H     H_    0.841686 0.986591 0.856902 0.213912
N5    N     N_R   0.308022 0.405592 0.272288 0.277859
O49   O     O_R   0.307853 0.402985 0.426301 -0.407196
O50   O     O_R   0.313371 0.357231 0.194264 -0.201795
N6    N     N_R   0.308492 0.593243 0.774338 0.278051
O51   O     O_R   0.308974 0.594746 0.928899 -0.406334
O52   O     O_R   0.313128 0.642212 0.698094 -0.204585
N7    N     N_R   0.809323 0.906479 0.261039 0.279838
O53   O     O_R   0.809137 0.902080 0.414736 -0.392132
O54   O     O_R   0.820220 0.859922 0.182020 -0.200736
N8    N     N_R   0.809383 0.092673 0.763483 0.279785
O55   O     O_R   0.810267 0.095536 0.918050 -0.392154
O56   O     O_R   0.818278 0.140278 0.686308 -0.204046
N9    N     N_3   0.676519 0.538538 0.924090 -0.148681
H73   H     H_    0.668575 0.518479 0.809087 0.192664
H74   H     H_    0.678831 0.505461 0.011740 0.178684
N10   N     N_3   0.676388 0.461762 0.424127 -0.148574
H75   H     H_    0.668501 0.481706 0.308978 0.192510
H76   H     H_    0.678685 0.494934 0.511500 0.179170
N11   N     N_3   0.196254 0.061992 0.703838 -0.140505
H77   H     H_    0.225053 0.080012 0.630248 0.129207
H78   H     H_    0.188763 0.017477 0.673233 0.160870
N12   N     N_3   0.196153 0.938247 0.203932 -0.140705
H79   H     H_    0.224894 0.920252 0.130134 0.129349
H80   H     H_    0.188689 0.982789 0.173583 0.160962
N13   N     N_R   0.731189 0.624108 0.862195 0.222439
O57   O     O_R   0.737063 0.675391 0.932097 -0.316326
O58   O     O_R   0.713008 0.620269 0.703784 -0.439390
N14   N     N_R   0.731032 0.376016 0.363112 0.222582
O59   O     O_R   0.736927 0.324819 0.433495 -0.315262
O60   O     O_R   0.712843 0.379675 0.204669 -0.439470
N15   N     N_R   0.242273 0.127509 0.927796 0.256631
O61   O     O_R   0.264992 0.138570 0.082440 -0.290961
O62   O     O_R   0.217098 0.170157 0.829348 -0.380162
N16   N     N_R   0.242250 0.872533 0.427402 0.256557
O63   O     O_R   0.265014 0.861318 0.581955 -0.290775
O64   O     O_R   0.217022 0.829990 0.328686 -0.380321
N17   N     N_R   0.960919 0.121104 0.218898 0.204319
O65   O     O_R   0.904334 0.140935 0.237735 -0.384462
O66   O     O_R   0.982339 0.070152 0.280648 -0.300815
N18   N     N_R   0.961546 0.879107 0.720505 0.203660
O67   O     O_R   0.904601 0.859429 0.737274 -0.384737
O68   O     O_R   0.982989 0.929861 0.783600 -0.301724
N19   N     N_R   0.466271 0.619787 0.225088 0.240625
O69   O     O_R   0.419573 0.642908 0.283950 -0.354647
O70   O     O_R   0.482252 0.564794 0.255741 -0.293504
N20   N     N_R   0.465947 0.380276 0.724189 0.240168
O71   O     O_R   0.418911 0.357241 0.781917 -0.355301
O72   O     O_R   0.481997 0.435222 0.755306 -0.293904
N21   N     N_R   0.211999 0.761639 0.770765 0.255537
O73   O     O_R   0.173634 0.802285 0.688576 -0.332896
O74   O     O_R   0.270533 0.752465 0.745285 -0.210809
N22   N     N_R   0.211930 0.238307 0.270654 0.255375
O75   O     O_R   0.270425 0.247514 0.245020 -0.210767
O76   O     O_R   0.173573 0.197675 0.188470 -0.333046
N23   N     N_R   0.714236 0.259680 0.767912 0.250809
O77   O     O_R   0.677861 0.301856 0.687390 -0.376400
O78   O     O_R   0.772575 0.248926 0.743083 -0.234567
N24   N     N_R   0.714771 0.740835 0.267603 0.250732
O79   O     O_R   0.773157 0.751870 0.243447 -0.235257
O80   O     O_R   0.678614 0.698716 0.186255 -0.375604
N25   N     N_R   0.242430 0.670115 0.321577 0.239042
O81   O     O_R   0.285111 0.627591 0.363772 -0.379717
O82   O     O_R   0.238778 0.711093 0.426561 -0.272804
N26   N     N_R   0.242612 0.330120 0.821067 0.238921
O83   O     O_R   0.238958 0.289359 0.926647 -0.272803
O84   O     O_R   0.285241 0.372694 0.862564 -0.380238
N27   N     N_R   0.744925 0.167357 0.317577 0.239761
O85   O     O_R   0.788935 0.125701 0.354649 -0.378619
O86   O     O_R   0.739068 0.205415 0.427962 -0.281154
N28   N     N_R   0.745196 0.832944 0.817070 0.239728
O87   O     O_R   0.739382 0.795112 0.928042 -0.281366
O88   O     O_R   0.788965 0.874797 0.853516 -0.378216
N29   N     N_R   0.067733 0.144950 0.711090 0.302210
O89   O     O_R   0.090636 0.132117 0.864917 -0.311744
O90   O     O_R   0.048279 0.102621 0.606335 -0.300638
N30   N     N_R   0.067611 0.854739 0.212920 0.302364
O91   O     O_R   0.090872 0.867212 0.366853 -0.311027
O92   O     O_R   0.047988 0.897320 0.109067 -0.299250
N31   N     N_R   0.560331 0.641804 0.573486 0.273103
O93   O     O_R   0.511041 0.609956 0.595420 -0.219134
O94   O     O_R   0.596991 0.621716 0.480239 -0.366924
N32   N     N_R   0.560180 0.358142 0.072847 0.272581
O95   O     O_R   0.510471 0.389742 0.093313 -0.218600
O96   O     O_R   0.597001 0.378267 0.980077 -0.366420
N33   N     N_R   0.947106 0.155691 0.946010 0.294344
O97   O     O_R   0.950716 0.119642 0.828614 -0.257009
O98   O     O_R   0.903024 0.197812 0.919142 -0.264692
N34   N     N_R   0.948687 0.845634 0.447020 0.293912
O99   O     O_R   0.951512 0.883573 0.333333 -0.257966
O100  O     O_R   0.904836 0.803378 0.416722 -0.261364
N35   N     N_R   0.440822 0.661533 0.957789 0.278941
O101  O     O_R   0.445268 0.636864 0.821862 -0.259261
O102  O     O_R   0.393610 0.699550 0.957028 -0.292830
N36   N     N_R   0.441016 0.338748 0.456720 0.278439
O103  O     O_R   0.445414 0.364133 0.321677 -0.261065
O104  O     O_R   0.394028 0.300379 0.454547 -0.290735
N37   N     N_3   0.178453 0.427443 0.212686 -0.179575
H81   H     H_    0.187779 0.390475 0.148915 0.180063
H82   H     H_    0.127166 0.435588 0.176528 0.162339
N38   N     N_3   0.178557 0.572553 0.711064 -0.179256
H83   H     H_    0.188671 0.609479 0.648564 0.180411
H84   H     H_    0.127354 0.564746 0.672678 0.163510
N39   N     N_3   0.678993 0.927013 0.209389 -0.178118
H85   H     H_    0.689880 0.889907 0.148699 0.181361
H86   H     H_    0.627772 0.934154 0.169576 0.165300
N40   N     N_3   0.678847 0.072916 0.709653 -0.178143
H87   H     H_    0.689796 0.110083 0.649287 0.181233
H88   H     H_    0.627591 0.065901 0.669894 0.164954

loop_
_geom_bond_atom_site_label_1
_geom_bond_atom_site_label_2
_geom_bond_distance
_ccdc_geom_bond_type
C19   H27   1.099632 S    
N15   O62   1.297873 A    
H2    C30   1.114368 S    
C20   N8    1.458437 S    
N27   O85   1.296209 A    
P5    O37   1.752831 S    
C45   C75   1.577773 S    
C22   H34   1.111560 S    
C46   C76   1.577569 S    
P7    O39   1.752900 S    
N31   O94   1.300548 A    
C63   C79   1.393205 A    
P8    O40   1.753728 S    
P9    O33   1.538077 D    
N24   O79   1.296838 A    
C61   C77   1.392245 A    
C44   N24   1.425431 S    
O23   P16   1.753670 S    
C24   C28   1.539561 S    
O9    P14   1.729700 S    
C20   H28   1.098767 S    
C70   H54   1.070478 S    
O14   P13   1.543796 D    
C33   C37   1.395685 A    
Ba4   O47   2.982462 S    
C3    C31   1.524963 S    
C4    H48   1.109256 S    
C36   C40   1.396104 A    
C1    C29   1.525256 S    
N38   H83   1.038357 S    
C6    H10   1.112563 S    
C66   C78   1.391700 A    
C35   C39   1.395957 A    
P4    O8    1.592936 S    
C64   C80   1.393173 A    
C1    N29   1.456798 S    
N8    O56   1.297666 A    
P5    O25   1.541415 D    
N6    O51   1.300049 A    
N1    H66   1.042407 S    
C49   C53   1.431896 A    
N13   O58   1.297492 A    
N40   H87   1.038625 S    
C48   C52   1.459892 A    
C24   H36   1.110768 S    
P1    C65   1.883343 S    
O1    Ba1   2.897294 S    
O15   P16   1.543430 D    
C18   H26   1.099685 S    
C39   C43   1.417119 A    
C70   C74   1.445393 A    
C62   C78   1.392280 A    
C19   N7    1.458973 S    
N31   O93   1.299334 A    
O44   C8    1.400694 S    
N32   O95   1.298901 A    
O2    Ba2   2.896728 S    
P6    Ba2   3.472528 S    
C8    C12   1.529902 S    
P5    Ba1   3.472256 S    
P12   C39   1.871585 S    
C58   H50   1.062562 S    
N7    O54   1.298101 A    
N20   O72   1.301255 A    
N30   O91   1.298864 A    
Ba1   Ba2   4.646330 S    
Ba2   O46   2.840015 S    
P10   C37   1.872987 S    
C12   H20   1.114912 S    
Ba1   O45   2.840585 S    
H4    C32   1.109914 S    
P5    O46   1.599292 S    
N25   O82   1.298650 A    
P2    O18   1.740028 S    
C2    H46   1.110313 S    
C21   C25   1.543857 S    
C34   C54   1.391161 A    
P2    Ba2   3.470460 S    
N23   O78   1.296727 A    
P14   C61   1.859198 S    
C28   N12   1.464419 S    
C6    C10   1.534731 S    
P3    O7    1.593334 S    
P11   O35   1.537136 D    
C2    N30   1.456775 S    
O27   Ba3   2.899441 S    
N37   H81   1.039832 S    
O31   Ba3   2.817788 S    
C38   C42   1.415432 A    
P9    C38   1.873275 S    
O40   C15   1.387825 S    
C45   C49   1.458525 A    
P1    Ba1   3.470728 S    
N14   O59   1.297109 A    
C9    N17   1.458346 S    
O24   P15   1.753665 S    
C43   N23   1.425575 S    
C5    H13   1.109681 S    
O20   C24   1.391599 S    
C15   N39   1.457317 S    
C7    H15   1.106971 S    
O42   C6    1.402477 S    
C12   N36   1.454214 S    
C11   N35   1.454278 S    
N13   O57   1.297181 A    
C33   C53   1.390878 A    
C34   H62   1.082331 S    
N27   O86   1.296690 A    
N2    H68   1.042826 S    
N17   O65   1.298887 A    
C36   C56   1.389692 A    
P13   C62   1.859142 S    
C69   H53   1.070363 S    
C16   H24   1.106388 S    
C35   C55   1.389642 A    
N34   O99   1.300110 A    
C23   H35   1.110764 S    
C49   N25   1.418668 S    
O32   Ba4   2.818009 S    
N36   O104  1.301857 A    
C27   H39   1.113022 S    
C26   N10   1.467737 S    
N18   O67   1.298996 A    
Ba3   Ba4   4.646330 S    
C22   H30   1.110120 S    
P8    O28   1.541389 D    
P9    O29   1.739870 S    
N9    H73   1.046405 S    
P10   O34   1.537923 D    
N29   O90   1.300189 A    
C48   C74   1.581037 S    
N5    O49   1.299600 A    
C7    C11   1.529920 S    
N33   O98   1.301869 A    
C77   H57   1.081992 S    
C57   H49   1.062337 S    
C40   C44   1.417108 A    
N39   H86   1.041918 S    
O11   P16   1.736482 S    
C26   N14   1.448885 S    
C2    C30   1.525138 S    
O23   C31   1.404959 S    
N26   O84   1.297240 A    
C80   H60   1.082026 S    
O21   C29   1.408006 S    
C25   H37   1.113213 S    
N32   O96   1.300435 A    
O10   Ba2   2.817821 S    
C3    N31   1.459369 S    
N4    H72   1.042383 S    
C59   H51   1.063267 S    
P6    O26   1.541389 D    
C50   C54   1.431391 A    
P9    O41   1.745194 S    
O3    Ba3   2.897294 S    
C24   H32   1.109053 S    
O37   C14   1.386444 S    
N12   H79   1.042878 S    
Ba3   O48   2.982560 S    
C11   H19   1.114951 S    
O17   C21   1.394629 S    
N19   O69   1.299268 A    
C69   C73   1.445418 A    
Ba1   O46   2.982560 S    
O10   P13   1.729736 S    
O19   C23   1.391619 S    
N24   O80   1.300828 A    
C72   C76   1.443834 A    
N16   O63   1.296390 A    
C50   N26   1.418246 S    
C8    H16   1.106879 S    
C10   N18   1.458291 S    
N10   H75   1.046397 S    
N21   O74   1.296536 A    
P6    O45   1.599697 S    
C13   H21   1.106491 S    
Ba4   O48   2.840015 S    
C15   H23   1.106367 S    
O29   Ba1   2.817788 S    
C60   C64   1.403409 A    
N22   O75   1.296509 A    
N38   H84   1.043334 S    
O7    Ba4   2.841412 S    
C15   C19   1.563108 S    
P3    C67   1.885954 S    
C9    H17   1.111106 S    
C17   N5    1.460426 S    
N6    O52   1.299446 A    
C21   H33   1.111550 S    
N1    H65   1.042311 S    
P4    Ba4   3.470460 S    
P16   C63   1.860375 S    
N40   H88   1.042238 S    
P1    O1    1.541548 D    
C44   C48   1.439861 A    
C33   H61   1.082309 S    
P15   C64   1.860280 S    
P10   O42   1.745483 S    
P3    O3    1.541548 D    
C41   N21   1.423529 S    
N28   O87   1.296758 A    
P4    O20   1.740346 S    
P11   C40   1.871423 S    
C51   N27   1.416025 S    
N11   H77   1.042813 S    
O38   C13   1.388165 S    
C71   H55   1.072279 S    
C4    N32   1.459334 S    
C66   C70   1.422767 A    
O11   Ba3   2.818045 S    
C46   C50   1.458315 A    
O18   C22   1.394530 S    
C67   C79   1.393376 A    
N23   O77   1.300824 A    
C5    H9    1.112564 S    
C65   C77   1.391669 A    
C58   C62   1.402933 A    
C27   N15   1.454265 S    
C9    N33   1.456541 S    
P6    O38   1.753414 S    
C28   H40   1.113012 S    
C36   H64   1.082314 S    
C28   N16   1.454233 S    
N35   O101  1.298083 A    
C17   N1    1.463694 S    
C60   H52   1.063206 S    
C27   N11   1.464362 S    
N30   O92   1.300196 A    
C14   H22   1.106152 S    
O30   Ba2   2.818009 S    
C23   C27   1.539582 S    
P1    O5    1.593334 S    
O9    Ba1   2.818045 S    
C30   H42   1.100833 S    
N3    H69   1.040843 S    
O25   Ba1   2.899441 S    
C10   H18   1.111241 S    
C1    H5    1.110001 S    
C3    H7    1.110715 S    
N25   O81   1.297268 A    
P6    C53   1.910211 S    
C67   C71   1.423110 A    
C20   N4    1.461273 S    
P10   O30   1.740242 S    
C47   C73   1.581365 S    
P7    Ba3   3.472256 S    
P12   O44   1.740559 S    
O21   P14   1.749095 S    
C58   C74   1.427524 A    
C19   N3    1.461052 S    
O12   Ba4   2.817821 S    
N8    O55   1.299323 A    
C41   C45   1.438481 A    
N14   O60   1.297476 A    
C29   H41   1.100837 S    
C32   H44   1.107140 S    
O22   C30   1.407933 S    
O8    Ba3   2.840841 S    
C51   C55   1.430464 A    
C42   N22   1.423466 S    
H1    C29   1.114313 S    
P5    C54   1.910438 S    
C52   N28   1.415648 S    
C12   N20   1.458804 S    
C72   H56   1.072243 S    
P8    C55   1.911670 S    
N39   H85   1.038462 S    
C68   C80   1.393382 A    
C22   C26   1.543754 S    
N19   O70   1.301250 A    
P7    O27   1.541415 D    
O41   C5    1.402120 S    
N34   O100  1.301818 A    
O43   C7    1.400683 S    
C37   C41   1.415542 A    
C5    C9    1.534244 S    
C10   N34   1.456369 S    
C52   C56   1.430056 A    
C79   H59   1.082023 S    
N18   O68   1.300797 A    
O13   P14   1.543768 D    
O26   Ba2   2.900014 S    
N20   O71   1.299212 A    
Ba2   O45   2.982462 S    
C7    H11   1.112923 S    
P1    O17   1.740140 S    
C6    H14   1.109599 S    
N29   O89   1.298884 A    
P3    O19   1.740329 S    
O24   C32   1.404969 S    
P4    O4    1.541571 D    
N33   O97   1.299948 A    
P8    O47   1.599697 S    
C35   H63   1.082304 S    
P7    O48   1.599292 S    
C59   C75   1.427283 A    
C60   C76   1.427297 A    
P2    C66   1.883479 S    
N5    O50   1.298406 A    
N37   H82   1.045234 S    
O39   C16   1.387282 S    
C71   C75   1.444039 A    
C21   H29   1.110098 S    
P2    O2    1.541571 D    
C31   H43   1.107088 S    
O4    Ba4   2.896728 S    
P11   O43   1.740631 S    
P12   O36   1.537086 D    
C18   N6    1.459612 S    
P8    Ba4   3.472528 S    
C78   H58   1.082000 S    
N12   H80   1.045386 S    
N35   O102  1.301650 A    
C4    H8    1.110721 S    
N2    H67   1.042017 S    
Ba3   O47   2.840585 S    
N17   O66   1.300803 A    
C65   C69   1.422692 A    
C59   C63   1.403523 A    
P3    Ba3   3.470728 S    
O5    Ba2   2.841412 S    
C68   C72   1.422901 A    
C13   C17   1.562725 S    
C26   H38   1.113216 S    
C47   C51   1.460295 A    
N36   O103  1.298251 A    
N3    H70   1.042293 S    
C25   N13   1.448963 S    
C57   C61   1.402861 A    
N10   H76   1.046090 S    
N21   O73   1.300165 A    
C8    H12   1.112930 S    
C3    H47   1.109239 S    
P4    C68   1.885575 S    
C4    C32   1.524950 S    
C1    H45   1.110287 S    
N22   O76   1.300165 A    
N9    H74   1.046101 S    
C43   C47   1.440246 A    
H3    C31   1.109916 S    
N15   O61   1.296360 A    
P2    O6    1.592936 S    
N16   O64   1.297829 A    
C14   N38   1.457153 S    
C16   C20   1.561497 S    
P11   O31   1.739881 S    
P12   O32   1.739869 S    
C18   N2    1.463172 S    
C2    H6    1.109996 S    
P7    C56   1.911338 S    
C13   N37   1.458014 S    
N26   O83   1.298653 A    
C11   N19   1.458998 S    
O22   P13   1.749014 S    
N28   O88   1.296328 A    
C25   N9    1.467736 S    
C57   C73   1.427598 A    
O16   P15   1.543399 D    
N4    H71   1.041092 S    
C42   C46   1.438494 A    
C16   N40   1.457281 S    
O28   Ba4   2.900014 S    
C34   C38   1.396058 A    
N7    O53   1.299523 A    
O6    Ba1   2.840841 S    
C23   H31   1.109049 S    
N11   H78   1.045371 S    
O12   P15   1.736355 S    
C14   C18   1.561451 S    
C17   H25   1.100045 S    
