data_mof_unit_65032.cif
_audit_creation_date              2012-12-10T20:22:23-0500
_audit_creation_method            fapswitch 2.2
_symmetry_space_group_name_H-M    P1
_symmetry_Int_Tables_number       1
_space_group_crystal_system       triclinic
_cell_length_a                    19.120403
_cell_length_b                    18.439289
_cell_length_c                    15.846966
_cell_angle_alpha                 90.061863
_cell_angle_beta                  90.204139
_cell_angle_gamma                 89.94656
_cell_volume                      5587.07037582

loop_
_atom_site_label
_atom_site_type_symbol
_atom_type_description
_atom_site_fract_x
_atom_site_fract_y
_atom_site_fract_z
_atom_type_partial_charge
Br1   Br    Br    0.555486 0.645708 0.106283 -0.288950
Br2   Br    Br    0.443775 0.354515 0.893825 -0.299789
Br3   Br    Br    0.555553 0.645905 0.895074 -0.323701
Br4   Br    Br    0.443605 0.354390 0.105022 -0.326132
Br5   Br    Br    0.716311 0.410184 0.639151 -0.431582
Br6   Br    Br    0.316928 0.583887 0.332978 -0.452116
Br7   Br    Br    0.284542 0.413390 0.641386 -0.407637
Br8   Br    Br    0.682425 0.588050 0.336110 -0.415142
C1    C     C_R   0.365566 0.499985 0.498757 0.952764
C2    C     C_R   0.927198 0.485638 0.440591 0.126483
C3    C     C_R   0.541840 0.725940 0.555179 -0.021371
C4    C     C_R   0.457438 0.273961 0.445724 -0.022534
C5    C     C_R   0.458376 0.726065 0.444733 -0.008912
C6    C     C_R   0.542588 0.274074 0.554331 -0.013736
C7    C     C_R   0.542929 0.802140 0.556540 0.292988
C8    C     C_R   0.456523 0.197765 0.444403 0.293839
C9    C     C_R   0.457459 0.802250 0.443419 0.290378
C10   C     C_R   0.543630 0.197887 0.555706 0.291490
C11   C     C_R   0.500218 0.841680 0.500010 -0.118614
C12   C     C_R   0.634440 0.499944 0.498879 0.949218
C13   C     C_R   0.500114 0.158365 0.500063 -0.119016
C14   C     C_R   0.523285 0.961873 0.429123 -0.072831
C15   C     C_R   0.477225 0.038218 0.571037 -0.073053
C16   C     C_R   0.477232 0.962015 0.571016 -0.078973
C17   C     C_R   0.523219 0.038075 0.429117 -0.079321
C18   C     C_R   0.500193 0.077130 0.500076 0.177574
C19   C     C_R   0.500266 0.922940 0.500059 0.176895
C20   C     C_R   0.499932 0.499964 0.339186 0.934638
C21   C     C_R   0.500073 0.500033 0.660824 0.924166
C22   C     C_R   0.523335 0.561890 0.956295 0.220483
C23   C     C_R   0.709305 0.499172 0.486560 -0.179415
C24   C     C_R   0.475882 0.438370 0.043775 0.221624
C25   C     C_R   0.523279 0.561826 0.044300 0.237338
C26   C     C_R   0.475957 0.438423 0.955772 0.235106
C27   C     C_R   0.499715 0.500169 0.912982 -0.137870
C28   C     C_R   0.499576 0.500057 0.087079 -0.139811
C29   C     C_1   0.499886 0.500163 0.823934 0.146694
C30   C     C_1   0.499664 0.499952 0.176111 0.151926
C31   C     C_1   0.499787 0.499913 0.250916 -0.051900
C32   C     C_1   0.500000 0.500110 0.749116 -0.069841
C33   C     C_R   0.752088 0.458044 0.540670 0.236262
C34   C     C_R   0.290645 0.499244 0.486457 -0.180408
C35   C     C_R   0.261537 0.533196 0.414858 0.232278
C36   C     C_R   0.248126 0.459420 0.541714 0.236892
C37   C     C_R   0.738092 0.534670 0.416056 0.234811
C38   C     C_R   0.823175 0.452864 0.524288 -0.161292
C39   C     C_R   0.190289 0.527454 0.399442 -0.159053
C40   C     C_R   0.176932 0.454122 0.525437 -0.165346
C41   C     C_R   0.809219 0.528814 0.400376 -0.170087
C42   C     C_R   0.851856 0.487963 0.454143 -0.007130
C43   C     C_R   0.147929 0.487937 0.454363 -0.007773
C44   C     C_R   0.963583 0.550304 0.425933 -0.144829
C45   C     C_R   0.036257 0.420194 0.450156 -0.147920
C46   C     C_R   0.036064 0.550282 0.425984 -0.147029
C47   C     C_R   0.963701 0.420188 0.449972 -0.152461
C48   C     C_R   0.072571 0.485621 0.440794 0.125350
Cl1   Cl    Cl    0.599966 0.845806 0.627682 -0.495254
Cl2   Cl    Cl    0.398707 0.153884 0.374370 -0.497583
Cl3   Cl    Cl    0.400553 0.846026 0.372235 -0.489957
Cl4   Cl    Cl    0.601536 0.154177 0.625756 -0.489624
H1    H     H_    0.856281 0.422647 0.567343 0.182756
H2    H     H_    0.423823 0.304212 0.403412 0.187571
H3    H     H_    0.425512 0.695873 0.401594 0.209804
H4    H     H_    0.576132 0.304408 0.596645 0.204904
H5    H     H_    0.541613 0.933154 0.373795 0.181126
H6    H     H_    0.458933 0.066953 0.626371 0.180394
H7    H     H_    0.458910 0.933407 0.626327 0.178180
H8    H     H_    0.541472 0.066698 0.373784 0.177341
H9    H     H_    0.168013 0.553137 0.344046 0.184965
H10   H     H_    0.143995 0.424834 0.569204 0.181953
H11   H     H_    0.831177 0.555567 0.345710 0.183649
H12   H     H_    0.936112 0.601407 0.419393 0.160206
H13   H     H_    0.064045 0.369720 0.460396 0.163088
H14   H     H_    0.063492 0.601336 0.419409 0.160597
H15   H     H_    0.936081 0.369676 0.460014 0.161405
H16   H     H_    0.574794 0.695607 0.598158 0.188307
N1    N     N_R   0.500000 0.689440 0.500000 -0.148794
N2    N     N_R   0.500000 0.310560 0.500000 -0.149937
O1    O     O_R   0.398180 0.560840 0.499980 -0.596972
O2    O     O_R   0.601820 0.439160 0.500020 -0.599680
O3    O     O_R   0.601820 0.560840 0.500020 -0.590947
O4    O     O_R   0.398180 0.439160 0.499980 -0.593706
O5    O     O_R   0.499980 0.560800 0.378020 -0.577063
O6    O     O_R   0.500020 0.439200 0.621980 -0.588547
O7    O     O_R   0.500020 0.560800 0.621980 -0.617780
O8    O     O_R   0.499980 0.439200 0.378020 -0.622180
Zn1   Zn    Zn3+2 0.500000 0.581210 0.500000 1.031807
Zn2   Zn    Zn3+2 0.500000 0.418790 0.500000 1.026348

loop_
_geom_bond_atom_site_label_1
_geom_bond_atom_site_label_2
_ccdc_geom_bond_type
O5    Zn1   S    
C13   C18   S    
C8    C13   A    
C10   C13   A    
C6    C10   A    
C16   C19   A    
C2    C44   A    
O1    Zn1   S    
Br1   C25   S    
C7    C11   A    
C1    C34   S    
C22   C27   A    
C24   C28   A    
C15   H6    S    
C27   C29   S    
C26   C27   A    
C29   C32   T    
C3    H16   S    
C30   C31   T    
O8    Zn2   S    
C25   C28   A    
C43   C48   S    
C1    O1    A    
C15   C18   A    
Br8   C37   S    
C39   H9    S    
C3    N1    A    
C16   H7    S    
C46   H14   S    
C3    C7    A    
C40   C43   A    
C4    C8    A    
C14   C17   A    
C4    N2    A    
C33   C38   A    
C11   C19   S    
C21   O7    A    
C1    O4    A    
C47   H15   S    
Br2   C26   S    
O7    Zn1   S    
C12   O3    A    
C20   O5    A    
C7    Cl1   S    
C17   H8    S    
C34   C36   A    
C44   C46   A    
C5    N1    A    
C45   C47   A    
C46   C48   A    
C12   O2    A    
C38   H1    S    
C21   O6    A    
C39   C43   A    
C20   C31   S    
C17   C18   A    
C24   C26   A    
Br3   C22   S    
C14   H5    S    
C44   H12   S    
C4    H2    S    
C5    H3    S    
C37   C41   A    
C15   C16   A    
C6    H4    S    
C8    Cl2   S    
Br7   C36   S    
C2    C47   A    
Br4   C24   S    
C9    Cl3   S    
C10   Cl4   S    
Br6   C35   S    
C20   O8    A    
C34   C35   A    
C23   C37   A    
C2    C42   S    
C45   C48   A    
N2    Zn2   S    
Br5   C33   S    
C23   C33   A    
C22   C25   A    
C45   H13   S    
O6    Zn2   S    
C40   H10   S    
C38   C42   A    
C5    C9    A    
C14   C19   A    
C28   C30   S    
O2    Zn2   S    
O3    Zn1   S    
O4    Zn2   S    
C21   C32   S    
C9    C11   A    
C6    N2    A    
N1    Zn1   S    
C41   C42   A    
C41   H11   S    
C35   C39   A    
C36   C40   A    
C12   C23   S    
