data_mof_unit_32192.cif
_audit_creation_date              2012-12-11T14:45:31-0500
_audit_creation_method            fapswitch 2.2
_symmetry_space_group_name_H-M    P1
_symmetry_Int_Tables_number       1
_space_group_crystal_system       triclinic
_cell_length_a                    25.025633
_cell_length_b                    7.176233
_cell_length_c                    14.392032
_cell_angle_alpha                 90.33504
_cell_angle_beta                  103.31524
_cell_angle_gamma                 91.397147
_cell_volume                      2514.25766587

loop_
_atom_site_label
_atom_site_type_symbol
_atom_type_description
_atom_site_fract_x
_atom_site_fract_y
_atom_site_fract_z
_atom_type_partial_charge
O1    O     O_R   0.319150 0.364170 0.330530 -0.536766
O2    O     O_R   0.680850 0.635830 0.669470 -0.536779
O3    O     O_R   0.180850 0.864170 0.169470 -0.526249
O4    O     O_R   0.819150 0.135830 0.830530 -0.526270
O5    O     O_R   0.210330 0.696850 0.354180 -0.534396
O6    O     O_R   0.789670 0.303150 0.645820 -0.534406
O7    O     O_R   0.289670 0.196850 0.145820 -0.534899
O8    O     O_R   0.710330 0.803150 0.854180 -0.534800
C1    C     C_R   0.197423 0.524806 0.378070 0.677274
C2    C     C_R   0.802580 0.475193 0.621934 0.677232
C3    C     C_R   0.302276 0.026129 0.121489 0.673379
C4    C     C_R   0.697712 0.973866 0.878495 0.673564
O9    O     O_R   0.320550 0.694110 0.341970 -0.529380
O10   O     O_R   0.679450 0.305890 0.658030 -0.529364
O11   O     O_R   0.179450 0.194110 0.158030 -0.534000
O12   O     O_R   0.820550 0.805890 0.841970 -0.533962
O13   O     O_R   0.291860 0.861000 0.157170 -0.537845
O14   O     O_R   0.708140 0.139000 0.842830 -0.537914
O15   O     O_R   0.208140 0.361000 0.342830 -0.542939
O16   O     O_R   0.791860 0.639000 0.657170 -0.542940
C5    C     C_R   0.341734 0.528061 0.363539 0.687094
C6    C     C_R   0.658264 0.471938 0.636465 0.687094
C7    C     C_R   0.158570 0.022377 0.135921 0.692889
C8    C     C_R   0.841431 0.977622 0.864077 0.693002
O17   O     O_3   0.240460 0.529330 0.189380 -0.366937
O18   O     O_3   0.759540 0.470670 0.810620 -0.366934
O19   O     O_3   0.259540 0.029330 0.310620 -0.373047
O20   O     O_3   0.740460 0.970670 0.689380 -0.373060
V1    V     V_3+5 0.251770 0.805510 0.261240 1.522417
V2    V     V_3+5 0.748230 0.194490 0.738760 1.522380
V3    V     V_3+5 0.248230 0.305510 0.238760 1.504763
V4    V     V_3+5 0.751770 0.694490 0.761240 1.504916
C9    C     C_R   0.103585 0.000354 0.069296 -0.193554
C10   C     C_R   0.896417 0.999642 0.930700 -0.193536
C11   C     C_R   0.396951 0.529029 0.430175 -0.193424
C12   C     C_R   0.603046 0.470960 0.569836 -0.193407
C13   C     C_R   0.963389 0.188808 0.047862 0.385985
C14   C     C_R   0.036613 0.811168 0.952144 0.385988
C15   C     C_R   0.535555 0.343756 0.430524 0.387484
C16   C     C_R   0.464437 0.656188 0.569505 0.387497
C17   C     C_R   0.908311 0.148182 0.998878 0.279512
C18   C     C_R   0.091692 0.851816 0.001117 0.279498
C19   C     C_R   0.590456 0.358499 0.485539 0.275000
C20   C     C_R   0.409536 0.641442 0.514488 0.274967
C21   C     C_R   0.939138 0.886970 0.917803 -0.178628
C22   C     C_R   0.060863 0.113013 0.082198 -0.178621
C23   C     C_R   0.561094 0.571242 0.595413 -0.176959
C24   C     C_R   0.438904 0.428757 0.404597 -0.176967
C25   C     C_R   0.993905 0.923527 0.967704 -0.012477
C26   C     C_R   0.006097 0.076453 0.032298 -0.012487
C27   C     C_R   0.506410 0.557693 0.541253 -0.017441
C28   C     C_R   0.493585 0.442284 0.458764 -0.017453
H1    H     H_    0.070362 0.225105 0.134678 0.194614
H2    H     H_    0.929639 0.774876 0.865325 0.194607
H3    H     H_    0.428816 0.344546 0.339867 0.194466
H4    H     H_    0.571183 0.655472 0.660135 0.194465
C29   C     C_R   0.664906 0.976867 0.951070 -0.172760
C30   C     C_R   0.335048 0.023092 0.048863 -0.172700
C31   C     C_R   0.835522 0.484105 0.549795 -0.170210
C32   C     C_R   0.164485 0.515889 0.450213 -0.170204
C33   C     C_R   0.654945 0.884543 0.108158 -0.081740
C34   C     C_R   0.344956 0.115038 0.891685 -0.081692
C35   C     C_R   0.841128 0.461415 0.384036 -0.080638
C36   C     C_R   0.158885 0.538580 0.615975 -0.080612
C37   C     C_R   0.688891 0.925439 0.045823 0.332077
C38   C     C_R   0.311033 0.074397 0.954095 0.332128
C39   C     C_R   0.809544 0.485323 0.451688 0.324301
C40   C     C_R   0.190466 0.514669 0.548317 0.324290
C41   C     C_R   0.607905 0.006459 0.922265 -0.142475
C42   C     C_R   0.392044 0.993400 0.077610 -0.142463
C43   C     C_R   0.893151 0.475368 0.579395 -0.146354
C44   C     C_R   0.106854 0.524620 0.420621 -0.146358
C45   C     C_R   0.574019 0.986460 0.989240 0.036603
C46   C     C_R   0.425901 0.013221 0.010579 0.036574
C47   C     C_R   0.925939 0.486285 0.510722 0.037203
C48   C     C_R   0.074070 0.513688 0.489299 0.037202
C49   C     C_R   0.597505 0.903721 0.078379 0.001618
C50   C     C_R   0.402398 0.095851 0.921426 0.001613
C51   C     C_R   0.899063 0.456752 0.413207 0.000208
C52   C     C_R   0.100949 0.543224 0.586812 0.000211
C53   C     C_R   0.517012 0.033308 0.969731 0.075700
C54   C     C_R   0.482900 0.966309 0.030055 0.075695
C55   C     C_R   0.984461 0.516051 0.534892 0.070084
C56   C     C_R   0.015550 0.483908 0.465133 0.070092
C57   C     C_R   0.506443 0.848411 0.105294 -0.152484
C58   C     C_R   0.493453 0.151137 0.894466 -0.152476
C59   C     C_R   0.987406 0.414249 0.375056 -0.156282
C60   C     C_R   0.012607 0.585696 0.624971 -0.156286
C61   C     C_R   0.562749 0.830254 0.133460 -0.155677
C62   C     C_R   0.437142 0.169230 0.866298 -0.155693
C63   C     C_R   0.930600 0.413494 0.347559 -0.152364
C64   C     C_R   0.069413 0.586458 0.652465 -0.152353
H5    H     H_    0.578594 0.748467 0.196343 0.142584
H6    H     H_    0.421284 0.250948 0.803397 0.142594
H7    H     H_    0.911498 0.370998 0.274958 0.147587
H8    H     H_    0.088516 0.628943 0.725068 0.147626
H9    H     H_    0.482014 0.765779 0.143109 0.142316
H10   H     H_    0.517867 0.233778 0.856633 0.142356
H11   H     H_    0.008540 0.357461 0.324385 0.160390
H12   H     H_    0.991474 0.642476 0.675646 0.160403
O21   O     O_3   0.132653 0.744154 0.980471 -0.637929
H13   H     H_    0.167930 0.815650 0.996357 0.289609
O22   O     O_3   0.867354 0.255875 0.019512 -0.637939
H14   H     H_    0.832074 0.184395 0.003624 0.289524
O23   O     O_3   0.369602 0.737613 0.545699 -0.636186
H15   H     H_    0.332937 0.682931 0.516393 0.302896
O24   O     O_3   0.630386 0.262269 0.454349 -0.636176
H16   H     H_    0.667049 0.317017 0.483607 0.302868
O25   O     O_3   0.976784 0.336451 0.112120 -0.643519
H17   H     H_    0.943789 0.408685 0.113365 0.336490
O26   O     O_3   0.023218 0.663499 0.887901 -0.643515
H18   H     H_    0.056211 0.591222 0.886690 0.336492
O27   O     O_3   0.521679 0.235981 0.347934 -0.635257
H19   H     H_    0.554324 0.173011 0.336428 0.343360
O28   O     O_3   0.478310 0.763917 0.652111 -0.635281
H20   H     H_    0.445666 0.826902 0.663612 0.343347
C65   C     C_1   0.415247 0.975182 0.179366 0.306720
N1    N     N_1   0.433094 0.960327 0.260575 -0.314943
C66   C     C_1   0.584741 0.024746 0.820501 0.306704
N2    N     N_1   0.566924 0.039653 0.739285 -0.314995
C67   C     C_1   0.083699 0.577646 0.322502 0.300843
N3    N     N_1   0.065655 0.620897 0.244406 -0.319156
C68   C     C_1   0.916303 0.422346 0.677516 0.300826
N4    N     N_1   0.934344 0.379098 0.755614 -0.319157
O29   O     O_3   0.255026 0.096861 0.921425 -0.625676
H21   H     H_    0.235158 0.043483 0.967407 0.269605
O30   O     O_3   0.744899 0.903059 0.078521 -0.625639
H22   H     H_    0.764773 0.957346 0.032767 0.269588
O31   O     O_3   0.246809 0.503121 0.580539 -0.624118
H23   H     H_    0.262833 0.452936 0.529133 0.276888
O32   O     O_3   0.753201 0.496858 0.419459 -0.624084
H24   H     H_    0.737165 0.546902 0.470879 0.276859
C69   C     C_1   0.680195 0.824489 0.203790 0.418552
N5    N     N_1   0.700364 0.777334 0.280284 -0.285171
C70   C     C_1   0.319684 0.174898 0.796026 0.418677
N6    N     N_1   0.299497 0.221896 0.719512 -0.285318
C71   C     C_1   0.813082 0.445855 0.284091 0.426748
N7    N     N_1   0.790662 0.433471 0.204341 -0.295603
C72   C     C_1   0.186935 0.554145 0.715919 0.426751
N8    N     N_1   0.209356 0.566533 0.795668 -0.295570

loop_
_geom_bond_atom_site_label_1
_geom_bond_atom_site_label_2
_ccdc_geom_bond_type
O17   V3    S    
C24   H3    S    
O1    C5    A    
O21   H13   S    
C59   C63   A    
C44   C67   S    
O19   V1    S    
O13   V1    S    
O3    C7    A    
O26   H18   S    
C56   C59   A    
O1    V3    S    
C44   C48   A    
O15   V3    S    
C48   C56   A    
C53   C54   A    
C33   C69   S    
C68   N4    T    
C14   C25   A    
C35   C51   A    
C20   O23   S    
C50   C62   A    
O7    C3    A    
C49   C61   A    
O5    C1    A    
C9    C18   A    
C37   O30   S    
O9    V1    S    
O10   V2    S    
C14   C18   A    
O4    C8    A    
C16   O28   S    
C32   C44   A    
C42   C65   S    
O28   H20   S    
C64   H8    S    
C12   C23   A    
O2    V4    S    
O3    V1    S    
C31   C39   A    
C36   C52   A    
C1    O15   A    
C60   C64   A    
C2    O16   A    
C7    C9    S    
O2    C6    A    
O24   H16   S    
C41   C45   A    
O14   V2    S    
C3    C30   S    
C16   C20   A    
C13   O25   S    
C53   C58   A    
O11   C7    A    
C15   C28   A    
C71   N7    T    
O12   C8    A    
C61   H5    S    
C9    C22   A    
C35   C71   S    
C10   C17   A    
C46   C54   A    
C11   C24   A    
C45   C53   A    
C30   C38   A    
C62   H6    S    
O5    V1    S    
C35   C39   A    
O7    V3    S    
C34   C38   A    
C27   C28   A    
O8    V4    S    
C70   N6    T    
C58   C62   A    
C33   C49   A    
C57   C61   A    
O18   V4    S    
C30   C42   A    
C15   C19   A    
C15   O27   S    
C41   C66   S    
C8    C10   S    
C17   O22   S    
C34   C70   S    
C52   C64   A    
C42   C46   A    
C55   C56   A    
C21   C25   A    
O8    C4    A    
O9    C5    A    
C10   C21   A    
C19   O24   S    
C66   N2    T    
C11   C20   A    
C67   N3    T    
C60   H12   S    
C4    C29   S    
O6    V2    S    
C21   H2    S    
O29   H21   S    
O30   H22   S    
C54   C57   A    
C18   O21   S    
C36   C40   A    
O27   H19   S    
O16   V4    S    
C43   C68   S    
C3    O13   A    
C51   C63   A    
C34   C50   A    
C39   O32   S    
C48   C52   A    
C29   C37   A    
O6    C2    A    
C23   C27   A    
C72   N8    T    
O11   V3    S    
C5    C11   S    
O12   V4    S    
C16   C27   A    
C6    C12   S    
O23   H15   S    
C22   C26   A    
C38   O29   S    
C1    C32   S    
O10   C6    A    
O20   V2    S    
C2    C31   S    
O31   H23   S    
O25   H17   S    
C43   C47   A    
C13   C26   A    
C47   C55   A    
C69   N5    T    
C22   H1    S    
C55   C60   A    
C13   C17   A    
C40   O31   S    
C58   H10   S    
C57   H9    S    
C63   H7    S    
C59   H11   S    
C33   C37   A    
C24   C28   A    
C32   C40   A    
C25   C26   A    
C46   C50   A    
C4    O14   A    
O22   H14   S    
C45   C49   A    
C12   C19   A    
C29   C41   A    
C14   O26   S    
C65   N1    T    
C47   C51   A    
O4    V2    S    
O32   H24   S    
C31   C43   A    
C23   H4    S    
C36   C72   S    
