data_mof_unit_62055.cif
_audit_creation_date              2012-12-10T18:08:38-0500
_audit_creation_method            fapswitch 2.2
_symmetry_space_group_name_H-M    P1
_symmetry_Int_Tables_number       1
_space_group_crystal_system       triclinic
_cell_length_a                    18.351939
_cell_length_b                    18.350092
_cell_length_c                    51.380083
_cell_angle_alpha                 90.029989
_cell_angle_beta                  89.98472
_cell_angle_gamma                 90.029761
_cell_volume                      17302.7395654

loop_
_atom_site_label
_atom_site_type_symbol
_atom_type_description
_atom_site_fract_x
_atom_site_fract_y
_atom_site_fract_z
_atom_type_partial_charge
C1    C     C_R   0.000004 0.500017 0.820243 0.946808
C2    C     C_R   0.943438 0.464673 0.362919 0.241335
C3    C     C_R   0.196153 0.696153 0.749998 -0.422453
C4    C     C_R   0.302724 0.195529 0.250755 -0.253348
C5    C     C_R   0.696128 0.803810 0.749989 -0.422039
C6    C     C_R   0.196155 0.696144 0.250007 -0.416778
C7    C     C_R   0.803837 0.303863 0.749995 -0.422301
C8    C     C_R   0.481321 0.062346 0.945150 0.622220
C9    C     C_R   0.518673 0.937616 0.054847 0.621377
C10   C     C_R   0.937480 0.481874 0.945120 0.622272
C11   C     C_R   0.062488 0.518093 0.054843 0.621491
C12   C     C_R   0.518606 0.937624 0.945119 0.622208
C13   C     C_R   0.465401 0.056923 0.637091 0.245880
C14   C     C_R   0.481387 0.062338 0.054878 0.621677
C15   C     C_R   0.062496 0.518262 0.945124 0.622320
C16   C     C_R   0.937447 0.481789 0.054840 0.621487
C17   C     C_R   0.963518 0.553922 0.445125 0.620809
C18   C     C_R   0.036642 0.446209 0.554829 0.621106
C19   C     C_R   0.437427 0.982041 0.445159 0.621302
C20   C     C_R   0.562515 0.018038 0.554878 0.622275
C21   C     C_R   0.036431 0.446105 0.445093 0.620762
C22   C     C_R   0.963429 0.553823 0.554861 0.621107
C23   C     C_R   0.562526 0.018141 0.445159 0.621629
C24   C     C_R   0.533492 0.942444 0.362961 0.249009
C25   C     C_R   0.437440 0.981853 0.554877 0.622321
C26   C     C_R   0.518947 0.936307 0.972483 -0.054651
C27   C     C_R   0.481045 0.063654 0.027515 -0.054134
C28   C     C_R   0.063810 0.518539 0.972485 -0.054768
C29   C     C_R   0.936139 0.481489 0.027478 -0.054422
C30   C     C_R   0.481009 0.063657 0.972514 -0.054650
C31   C     C_R   0.518983 0.936304 0.027483 -0.053908
C32   C     C_R   0.936154 0.481540 0.972482 -0.054765
C33   C     C_R   0.063807 0.518455 0.027481 -0.054440
C34   C     C_R   0.037264 0.445019 0.472459 -0.052882
C35   C     C_R   0.943968 0.463857 0.637014 0.242988
C36   C     C_R   0.962691 0.554974 0.527496 -0.053539
C37   C     C_R   0.563840 0.018437 0.472521 -0.054594
C38   C     C_R   0.436119 0.981586 0.527516 -0.054773
C39   C     C_R   0.962715 0.555008 0.472491 -0.052996
C40   C     C_R   0.037354 0.445058 0.527463 -0.053505
C41   C     C_R   0.436111 0.981681 0.472520 -0.054333
C42   C     C_R   0.563836 0.018375 0.527517 -0.054788
C43   C     C_R   0.499987 0.999981 0.986232 -0.002865
C44   C     C_R   0.500005 0.999980 0.013765 -0.002971
C45   C     C_R   0.999980 0.500023 0.986217 -0.002950
C46   C     C_R   0.056502 0.535370 0.362923 0.240080
C47   C     C_R   0.999975 0.499989 0.013747 -0.002788
C48   C     C_R   0.999997 0.500014 0.486210 -0.003009
C49   C     C_R   0.000014 0.500016 0.513744 -0.002664
C50   C     C_R   0.499976 0.000040 0.486253 -0.002836
C51   C     C_R   0.499977 0.000000 0.513783 -0.002993
C52   C     C_R   0.537798 0.873105 0.986373 -0.121084
C53   C     C_R   0.462194 0.126856 0.013624 -0.122216
C54   C     C_R   0.127164 0.536888 0.986391 -0.121034
C55   C     C_R   0.872786 0.463137 0.013572 -0.122077
C56   C     C_R   0.462176 0.126858 0.986436 -0.121046
C57   C     C_R   0.534533 0.942963 0.637068 0.245869
C58   C     C_R   0.537815 0.873103 0.013561 -0.122300
C59   C     C_R   0.872795 0.463158 0.986385 -0.121052
C60   C     C_R   0.127164 0.536841 0.013579 -0.122069
C61   C     C_R   0.074301 0.390457 0.486350 -0.122480
C62   C     C_R   0.925665 0.609543 0.513605 -0.121165
C63   C     C_R   0.627225 0.036681 0.486425 -0.122092
C64   C     C_R   0.372732 0.963346 0.513611 -0.121214
C65   C     C_R   0.925694 0.609572 0.486415 -0.122338
C66   C     C_R   0.074363 0.390488 0.513540 -0.121204
C67   C     C_R   0.372726 0.963398 0.486424 -0.122268
C68   C     C_R   0.466521 0.057687 0.362975 0.246815
C69   C     C_R   0.627222 0.036656 0.513613 -0.121166
C70   C     C_R   0.053648 0.539162 0.609419 0.314692
C71   C     C_R   0.941636 0.468290 0.390519 0.310275
C72   C     C_R   0.469147 0.058721 0.609500 0.315663
C73   C     C_R   0.529687 0.940731 0.390552 0.313366
C74   C     C_R   0.946429 0.460838 0.609409 0.314662
C75   C     C_R   0.058296 0.531755 0.390521 0.310573
C76   C     C_R   0.530784 0.941145 0.609477 0.315729
C77   C     C_R   0.470308 0.059437 0.390567 0.315059
C78   C     C_R   0.558751 0.030980 0.109479 0.312822
C79   C     C_R   0.556938 0.034711 0.137074 0.240739
C80   C     C_R   0.441228 0.969029 0.890517 0.315606
C81   C     C_R   0.970224 0.559264 0.109452 0.314502
C82   C     C_R   0.030855 0.441296 0.890502 0.315732
C83   C     C_R   0.441323 0.968959 0.109477 0.313530
C84   C     C_R   0.558698 0.030968 0.890522 0.315574
C85   C     C_R   0.029674 0.440594 0.109429 0.314093
C86   C     C_R   0.969171 0.558848 0.890521 0.315785
C87   C     C_R   0.443040 0.965305 0.862922 0.245920
C88   C     C_R   0.966435 0.557542 0.137044 0.247834
C89   C     C_R   0.999992 0.499983 0.179746 0.945693
C90   C     C_R   0.034606 0.443092 0.862911 0.245947
C91   C     C_R   0.443125 0.965237 0.137070 0.240146
C92   C     C_R   0.556899 0.034702 0.862930 0.245973
C93   C     C_R   0.033472 0.442337 0.137021 0.248178
C94   C     C_R   0.965432 0.557027 0.862930 0.245942
C95   C     C_R   0.000025 0.499995 0.650798 -0.184874
C96   C     C_R   0.999975 0.500017 0.349163 -0.189174
C97   C     C_R   0.499974 0.999952 0.650840 -0.187824
C98   C     C_R   0.500007 0.000053 0.349191 -0.187785
C99   C     C_R   0.500026 0.999980 0.150834 -0.190760
C100  C     C_R   0.499991 0.000000 0.820244 0.946901
C101  C     C_R   0.499975 0.000004 0.849164 -0.187583
C102  C     C_R   0.999965 0.499950 0.150809 -0.187366
C103  C     C_R   0.000017 0.500050 0.849160 -0.187752
C104  C     C_R   0.000041 0.500004 0.595931 0.170595
C105  C     C_R   0.999965 0.500021 0.404014 0.170660
C106  C     C_R   0.499968 0.999930 0.595986 0.164089
C107  C     C_R   0.499992 0.000092 0.404058 0.165735
C108  C     C_R   0.500038 0.999970 0.095974 0.165316
C109  C     C_R   0.499960 0.999995 0.904023 0.164580
C110  C     C_R   0.999952 0.499927 0.095943 0.165754
C111  C     C_R   0.500009 0.999996 0.179755 0.945416
C112  C     C_R   0.000008 0.500076 0.904014 0.164175
C113  C     C_R   0.859817 0.640188 0.750008 0.820029
C114  C     C_R   0.140223 0.359712 0.249989 0.982608
C115  C     C_R   0.359829 0.859810 0.750004 0.819421
C116  C     C_R   0.640171 0.140190 0.249996 0.832746
C117  C     C_R   0.140194 0.359827 0.750003 0.819905
C118  C     C_R   0.859758 0.640183 0.250003 0.823566
C119  C     C_R   0.640168 0.140179 0.750005 0.819041
C120  C     C_R   0.359830 0.859825 0.249996 0.813391
C121  C     C_R   0.859827 0.359813 0.250003 0.823099
C122  C     C_R   0.500001 0.000017 0.320254 0.946673
C123  C     C_R   0.140175 0.640187 0.749998 0.819927
C124  C     C_R   0.359516 0.140097 0.250148 0.907635
C125  C     C_R   0.640183 0.859812 0.749992 0.819550
C126  C     C_R   0.140167 0.640179 0.250005 0.822711
C127  C     C_R   0.859828 0.359824 0.749997 0.819547
C128  C     C_R   0.640010 0.859567 0.249856 0.912835
C129  C     C_R   0.359806 0.140173 0.749997 0.819424
C130  C     C_R   0.785599 0.268008 0.726473 0.420350
C131  C     C_R   0.214153 0.732237 0.273507 0.424979
C132  C     C_R   0.731871 0.785422 0.726460 0.422147
C133  C     C_R   0.499995 0.999983 0.679757 0.946928
C134  C     C_R   0.323512 0.269314 0.251845 0.311582
C135  C     C_R   0.214418 0.731939 0.726475 0.420348
C136  C     C_R   0.785720 0.267925 0.273514 0.427937
C137  C     C_R   0.268143 0.214476 0.726465 0.422213
C138  C     C_R   0.675789 0.728989 0.246392 0.376966
C139  C     C_R   0.729685 0.675717 0.246428 0.424063
C140  C     C_R   0.214515 0.268088 0.726471 0.421072
C141  C     C_R   0.732098 0.214273 0.273506 0.424957
C142  C     C_R   0.268040 0.785588 0.726482 0.421448
C143  C     C_R   0.269534 0.323754 0.250658 0.273095
C144  C     C_R   0.999991 0.500003 0.320243 0.945328
C145  C     C_R   0.785539 0.731852 0.726475 0.421121
C146  C     C_R   0.267766 0.785905 0.273496 0.425579
C147  C     C_R   0.731988 0.214344 0.726483 0.421474
C148  C     C_R   0.285838 0.767775 0.226494 0.426423
C149  C     C_R   0.714397 0.231993 0.773531 0.422164
C150  C     C_R   0.174692 0.229715 0.249595 0.372251
C151  C     C_R   0.768128 0.714577 0.773540 0.422045
C152  C     C_R   0.714276 0.232084 0.226485 0.427051
C153  C     C_R   0.285587 0.768059 0.773529 0.422169
C154  C     C_R   0.823192 0.770154 0.253123 0.319583
C155  C     C_R   0.000009 0.499999 0.679742 0.949957
C156  C     C_R   0.231857 0.285525 0.773535 0.422113
C157  C     C_R   0.285485 0.231914 0.773528 0.421419
C158  C     C_R   0.768760 0.823893 0.252089 0.416887
C159  C     C_R   0.231965 0.714408 0.773522 0.421699
C160  C     C_R   0.767892 0.285743 0.226495 0.425096
C161  C     C_R   0.714460 0.768147 0.773525 0.421475
C162  C     C_R   0.228294 0.175172 0.250302 0.280333
C163  C     C_R   0.768007 0.285660 0.773521 0.421723
C164  C     C_R   0.232221 0.714113 0.226504 0.426740
C165  C     C_R   0.696158 0.196141 0.750008 -0.421629
C166  C     C_R   0.056094 0.536134 0.637022 0.242938
C167  C     C_R   0.303838 0.803866 0.249994 -0.414133
C168  C     C_R   0.803872 0.696190 0.750011 -0.422199
C169  C     C_R   0.195861 0.303295 0.250162 -0.225048
C170  C     C_R   0.303852 0.803844 0.750005 -0.421780
C171  C     C_R   0.696150 0.196156 0.249995 -0.420442
C172  C     C_R   0.196166 0.303850 0.750003 -0.422147
C173  C     C_R   0.803511 0.695999 0.249936 -0.363042
C174  C     C_R   0.695487 0.803023 0.249329 -0.345993
C175  C     C_R   0.303834 0.196150 0.749997 -0.421979
C176  C     C_R   0.803846 0.303851 0.250004 -0.417082
H1    H     H_    0.552601 0.823424 0.976290 0.200426
H2    H     H_    0.896552 0.652425 0.523689 0.200693
H3    H     H_    0.677052 0.051044 0.476355 0.200193
H4    H     H_    0.322908 0.948973 0.523682 0.200448
H5    H     H_    0.896602 0.652476 0.476356 0.199919
H6    H     H_    0.103488 0.347606 0.523599 0.200653
H7    H     H_    0.322900 0.949063 0.476352 0.200100
H8    H     H_    0.677046 0.051002 0.523684 0.200462
H9    H     H_    0.867760 0.305776 0.706148 0.338610
H10   H     H_    0.131891 0.694470 0.293788 0.335191
H11   H     H_    0.694055 0.867425 0.706103 0.337033
H12   H     H_    0.447390 0.176537 0.023707 0.199767
H13   H     H_    0.401862 0.332679 0.263464 0.363316
H14   H     H_    0.132254 0.694157 0.706158 0.338612
H15   H     H_    0.867927 0.305729 0.293810 0.339583
H16   H     H_    0.305927 0.132363 0.706121 0.336994
H17   H     H_    0.575167 0.747152 0.235652 0.323565
H18   H     H_    0.748581 0.575843 0.234961 0.328596
H19   H     H_    0.132294 0.305587 0.706170 0.330063
H20   H     H_    0.694566 0.131899 0.293754 0.332857
H21   H     H_    0.305582 0.867897 0.706206 0.329693
H22   H     H_    0.334673 0.402095 0.240103 0.359608
H23   H     H_    0.176966 0.551342 0.976322 0.200508
H24   H     H_    0.867840 0.694368 0.706185 0.330024
H25   H     H_    0.305260 0.868385 0.293724 0.327969
H26   H     H_    0.694478 0.131975 0.706207 0.329681
H27   H     H_    0.368107 0.805530 0.206214 0.336163
H28   H     H_    0.632253 0.194195 0.793860 0.336881
H29   H     H_    0.093656 0.159937 0.248268 0.401682
H30   H     H_    0.805945 0.632574 0.793896 0.336970
H31   H     H_    0.632082 0.194262 0.206187 0.339085
H32   H     H_    0.367734 0.805871 0.793850 0.336879
H33   H     H_    0.921914 0.751530 0.265836 0.344234
H34   H     H_    0.822982 0.448693 0.023642 0.200151
H35   H     H_    0.194075 0.367640 0.793879 0.336925
H36   H     H_    0.367701 0.194406 0.793830 0.329773
H37   H     H_    0.838009 0.904821 0.255822 0.397757
H38   H     H_    0.194411 0.632104 0.793797 0.329642
H39   H     H_    0.805392 0.368141 0.206253 0.328481
H40   H     H_    0.632157 0.805629 0.793814 0.329723
H41   H     H_    0.242733 0.074479 0.261136 0.340904
H42   H     H_    0.805528 0.368023 0.793796 0.329629
H43   H     H_    0.194705 0.631652 0.206271 0.332295
H44   H     H_    0.119175 0.621598 0.605639 0.366914
H45   H     H_    0.447360 0.176540 0.976377 0.200423
H46   H     H_    0.839395 0.443235 0.394213 0.365876
H47   H     H_    0.446047 0.161467 0.605927 0.364798
H48   H     H_    0.550774 0.837565 0.394150 0.362730
H49   H     H_    0.880906 0.378402 0.605602 0.366906
H50   H     H_    0.160534 0.556817 0.394208 0.365704
H51   H     H_    0.553881 0.838397 0.605870 0.364782
H52   H     H_    0.449220 0.162607 0.394189 0.362417
H53   H     H_    0.661432 0.054418 0.105881 0.363005
H54   H     H_    0.338530 0.945658 0.894114 0.364671
H55   H     H_    0.949064 0.662417 0.105859 0.362441
H56   H     H_    0.552631 0.823421 0.023620 0.199736
H57   H     H_    0.053997 0.338561 0.894078 0.364639
H58   H     H_    0.338644 0.945513 0.105885 0.363493
H59   H     H_    0.661394 0.054338 0.894116 0.364677
H60   H     H_    0.050818 0.337437 0.105801 0.362519
H61   H     H_    0.946031 0.661586 0.894127 0.364619
H62   H     H_    0.156412 0.568589 0.640273 0.370157
H63   H     H_    0.873439 0.385488 0.360027 0.368761
H64   H     H_    0.387199 0.127938 0.639951 0.370388
H65   H     H_    0.610329 0.869948 0.360143 0.360702
H66   H     H_    0.843647 0.431401 0.640263 0.370151
H67   H     H_    0.822997 0.448728 0.976312 0.200509
H68   H     H_    0.126491 0.614564 0.360050 0.368550
H69   H     H_    0.612723 0.871937 0.639893 0.370351
H70   H     H_    0.389698 0.130191 0.360179 0.358666
H71   H     H_    0.627812 0.113111 0.139931 0.370215
H72   H     H_    0.372119 0.886948 0.860062 0.370232
H73   H     H_    0.889554 0.629987 0.139870 0.359376
H74   H     H_    0.112833 0.372105 0.860054 0.370251
H75   H     H_    0.372261 0.886827 0.139910 0.369938
H76   H     H_    0.627817 0.113065 0.860094 0.370206
H77   H     H_    0.110332 0.369870 0.139810 0.359806
H78   H     H_    0.176965 0.551261 0.023651 0.200142
H79   H     H_    0.887217 0.628023 0.860100 0.370212
H80   H     H_    0.103382 0.347553 0.476265 0.199798
N1    N     N_R   0.499958 0.999987 0.932062 -0.293775
N2    N     N_R   0.500037 0.999975 0.067936 -0.293026
N3    N     N_R   0.999992 0.500079 0.932050 -0.293889
N4    N     N_R   0.999964 0.499929 0.067910 -0.293027
N5    N     N_R   0.999968 0.500014 0.432044 -0.291514
N6    N     N_R   0.000041 0.500015 0.567906 -0.292260
N7    N     N_R   0.499978 0.000102 0.432090 -0.292996
N8    N     N_R   0.499977 0.999931 0.567950 -0.293855
O1    O     O_3   0.000000 0.500000 0.750000 -0.536216
O2    O     O_R   1.000000 0.439150 0.192270 -0.594967
O3    O     O_3   0.218762 0.679042 0.203126 -0.653887
O4    O     O_3   0.102199 0.580000 0.594962 -0.718765
O5    O     O_3   0.884152 0.441354 0.404949 -0.719383
O6    O     O_3   0.443671 0.116881 0.595097 -0.716451
O7    O     O_3   0.554072 0.882124 0.404964 -0.719790
O8    O     O_3   0.897885 0.420006 0.594941 -0.718779
O9    O     O_3   0.115775 0.558693 0.404953 -0.719646
O10   O     O_3   0.556259 0.882976 0.595052 -0.716390
O11   O     O_3   0.445914 0.118063 0.404994 -0.720491
O12   O     O_3   0.616844 0.056663 0.095065 -0.717964
O13   O     O_R   0.439150 0.000000 0.807730 -0.592800
O14   O     O_3   0.383116 0.943381 0.904930 -0.716656
O15   O     O_3   0.945793 0.617859 0.095044 -0.720316
O16   O     O_3   0.056354 0.383150 0.904907 -0.716620
O17   O     O_3   0.383236 0.943271 0.095062 -0.717928
O18   O     O_3   0.616803 0.056610 0.904939 -0.716695
O19   O     O_3   0.054098 0.381989 0.094998 -0.720123
O20   O     O_3   0.943666 0.617006 0.904945 -0.716599
O21   O     O_3   0.111495 0.568966 0.650957 -0.699133
O22   O     O_3   0.892299 0.425478 0.348980 -0.701449
O23   O     O_3   0.426884 0.108582 0.651018 -0.699872
O24   O     O_R   0.560850 0.000000 0.192270 -0.599841
O25   O     O_3   0.571049 0.890037 0.349058 -0.706976
O26   O     O_3   0.888559 0.431018 0.650941 -0.699138
O27   O     O_3   0.107643 0.574568 0.348992 -0.702971
O28   O     O_3   0.573045 0.891312 0.650974 -0.699940
O29   O     O_3   0.428980 0.110077 0.349086 -0.714775
O30   O     O_3   0.608515 0.073369 0.150997 -0.701840
O31   O     O_3   0.391438 0.926684 0.848998 -0.699988
O32   O     O_3   0.928853 0.609920 0.150951 -0.711730
O33   O     O_3   0.073144 0.391446 0.848985 -0.699931
O34   O     O_3   0.391545 0.926577 0.150986 -0.701895
O35   O     O_R   0.500000 0.939150 0.307730 -0.590269
O36   O     O_3   0.608508 0.073331 0.849016 -0.699990
O37   O     O_3   0.071047 0.389963 0.150906 -0.710246
O38   O     O_3   0.926906 0.608662 0.849021 -0.700007
O39   O     O_R   0.500000 0.060850 0.692270 -0.592605
O40   O     O_R   0.060850 0.500000 0.307730 -0.597532
O41   O     O_R   0.939150 0.500000 0.692270 -0.595317
O42   O     O_R   0.500000 0.060850 0.307730 -0.596437
O43   O     O_R   0.500000 0.939150 0.692270 -0.592791
O44   O     O_R   0.939150 0.500000 0.307730 -0.594140
O45   O     O_3   1.000000 0.500000 0.250000 -0.547197
O46   O     O_R   0.060850 0.500000 0.692270 -0.595425
O47   O     O_R   0.914360 0.646040 0.764890 -0.611781
O48   O     O_R   0.085640 0.353960 0.235110 -0.597149
O49   O     O_R   0.353960 0.914360 0.764890 -0.611825
O50   O     O_R   0.646040 0.085640 0.235110 -0.604181
O51   O     O_R   0.085640 0.353960 0.764890 -0.611572
O52   O     O_R   0.914360 0.646040 0.235110 -0.606110
O53   O     O_R   0.646040 0.085640 0.764890 -0.611854
O54   O     O_R   0.353960 0.914360 0.235110 -0.612536
O55   O     O_R   0.914360 0.353960 0.235110 -0.612656
O56   O     O_3   0.500000 0.000000 0.750000 -0.537085
O57   O     O_R   0.085640 0.646040 0.764890 -0.620415
O58   O     O_R   0.353960 0.085640 0.235110 -0.635622
O59   O     O_R   0.646040 0.914360 0.764890 -0.620478
O60   O     O_R   0.085640 0.646040 0.235110 -0.621175
O61   O     O_R   0.914360 0.353960 0.764890 -0.620326
O62   O     O_R   0.646040 0.914360 0.235110 -0.594390
O63   O     O_R   0.353960 0.085640 0.764890 -0.620668
O64   O     O_R   0.414360 0.146040 0.264890 -0.580188
O65   O     O_R   0.585640 0.853960 0.735110 -0.612135
O66   O     O_R   0.853960 0.414360 0.264890 -0.612178
O67   O     O_3   0.500000 0.000000 0.250000 -0.546850
O68   O     O_R   0.146040 0.585640 0.735110 -0.612771
O69   O     O_R   0.585640 0.853960 0.264890 -0.627280
O70   O     O_R   0.414360 0.146040 0.735110 -0.611919
O71   O     O_R   0.146040 0.585640 0.264890 -0.603023
O72   O     O_R   0.853960 0.414360 0.735110 -0.612798
O73   O     O_R   0.414360 0.853960 0.735110 -0.620854
O74   O     O_R   0.585640 0.146040 0.264890 -0.612724
O75   O     O_R   0.853960 0.585640 0.735110 -0.621348
O76   O     O_R   0.146040 0.414360 0.264890 -0.605126
O77   O     O_R   0.585640 0.146040 0.735110 -0.620763
O78   O     O_R   0.000000 0.439150 0.807730 -0.592649
O79   O     O_R   0.414360 0.853960 0.264890 -0.621630
O80   O     O_R   0.146040 0.414360 0.735110 -0.621527
O81   O     O_R   0.853960 0.585640 0.264890 -0.624536
O82   O     O_2   0.462954 0.122759 0.931716 -0.515944
O83   O     O_2   0.537041 0.877203 0.068281 -0.521237
O84   O     O_2   0.876933 0.463946 0.931669 -0.515779
O85   O     O_2   0.123054 0.535939 0.068297 -0.518626
O86   O     O_2   0.536959 0.877214 0.931654 -0.515927
O87   O     O_2   0.463033 0.122748 0.068342 -0.520539
O88   O     O_2   0.123051 0.536215 0.931675 -0.515767
O89   O     O_R   1.000000 0.560850 0.192270 -0.592151
O90   O     O_2   0.876875 0.463918 0.068291 -0.518669
O91   O     O_2   0.928279 0.606288 0.431681 -0.524009
O92   O     O_2   0.072194 0.394063 0.568277 -0.518601
O93   O     O_2   0.376830 0.964293 0.431705 -0.519415
O94   O     O_2   0.623094 0.035868 0.568328 -0.516095
O95   O     O_2   0.071657 0.393740 0.431618 -0.524422
O96   O     O_2   0.927890 0.605966 0.568340 -0.518566
O97   O     O_2   0.623126 0.035916 0.431707 -0.518455
O98   O     O_2   0.376860 0.963992 0.568327 -0.516096
O99   O     O_3   0.820351 0.281707 0.703055 -0.644636
O100  O     O_R   0.560850 0.000000 0.807730 -0.592688
O101  O     O_3   0.179176 0.718765 0.296899 -0.649179
O102  O     O_3   0.718070 0.819996 0.703027 -0.648377
O103  O     O_3   0.396702 0.286438 0.253680 -0.719252
O104  O     O_3   0.179682 0.718184 0.703060 -0.644616
O105  O     O_3   0.820581 0.281550 0.296916 -0.647540
O106  O     O_3   0.281967 0.179805 0.703037 -0.648343
O107  O     O_3   0.604815 0.706211 0.242292 -0.654097
O108  O     O_3   0.707650 0.604593 0.242112 -0.654124
O109  O     O_3   0.179830 0.281825 0.703056 -0.654930
O110  O     O_3   0.718521 0.179351 0.296892 -0.653655
O111  O     O_R   0.439150 0.000000 0.192270 -0.591796
O112  O     O_3   0.281746 0.820378 0.703080 -0.654667
O113  O     O_3   0.286795 0.396943 0.248801 -0.724624
O114  O     O_3   0.820276 0.718046 0.703063 -0.654880
O115  O     O_3   0.281217 0.820989 0.296872 -0.655815
O116  O     O_3   0.718309 0.179490 0.703081 -0.654644
O117  O     O_3   0.320816 0.781249 0.203102 -0.648039
O118  O     O_3   0.679650 0.218290 0.796950 -0.648583
O119  O     O_3   0.101007 0.213254 0.249436 -0.717048
O120  O     O_3   0.781930 0.680003 0.796973 -0.648535
O121  O     O_3   0.679420 0.218457 0.203083 -0.647253
O122  O     O_R   1.000000 0.560850 0.807730 -0.592833
O123  O     O_3   0.320317 0.781818 0.796945 -0.648574
O124  O     O_3   0.894252 0.791891 0.257782 -0.729491
O125  O     O_3   0.218034 0.320197 0.796963 -0.648483
O126  O     O_3   0.320171 0.218177 0.796943 -0.654873
O127  O     O_3   0.784677 0.897278 0.255002 -0.714264
O128  O     O_3   0.218257 0.679618 0.796924 -0.654998
O129  O     O_3   0.781459 0.320680 0.203110 -0.654278
O130  O     O_3   0.679722 0.781952 0.796936 -0.654822
O131  O     O_3   0.206200 0.103163 0.251363 -0.723666
O132  O     O_3   0.781687 0.320514 0.796923 -0.654976
Zn1   Zn    Zn3+2 0.913060 0.500000 0.727930 1.026121
Zn2   Zn    Zn3+2 0.586940 0.000000 0.772070 1.028374
Zn3   Zn    Zn3+2 1.000000 0.413060 0.227930 1.052796
Zn4   Zn    Zn3+2 0.000000 0.586940 0.772070 1.028883
Zn5   Zn    Zn3+2 0.586940 0.000000 0.227930 1.049211
Zn6   Zn    Zn3+2 0.413060 0.000000 0.772070 1.028338
Zn7   Zn    Zn3+2 1.000000 0.586940 0.227930 1.031162
Zn8   Zn    Zn3+2 0.000000 0.413060 0.772070 1.028896
Zn9   Zn    Zn3+2 0.086940 0.500000 0.272070 1.051307
Zn10  Zn    Zn3+2 0.500000 0.913060 0.727930 1.028151
Zn11  Zn    Zn3+2 0.500000 0.086940 0.272070 1.051948
Zn12  Zn    Zn3+2 0.086940 0.500000 0.727930 1.026089
Zn13  Zn    Zn3+2 0.913060 0.500000 0.272070 1.028218
Zn14  Zn    Zn3+2 0.500000 0.086940 0.727930 1.028167
Zn15  Zn    Zn3+2 0.500000 0.913060 0.272070 1.032239
Zn16  Zn    Zn3+2 0.413060 0.000000 0.227930 1.029224

loop_
_geom_bond_atom_site_label_1
_geom_bond_atom_site_label_2
_ccdc_geom_bond_type
C72   O6    S    
O111  Zn16  S    
C55   C59   A    
C32   C45   A    
H76   O36   S    
H77   O37   S    
O50   Zn5   S    
C148  O117  S    
C41   C67   A    
C17   O91   S    
H39   O129  S    
C24   C98   A    
C57   C76   A    
C79   C99   A    
C154  C158  A    
C112  N3    S    
C35   O26   S    
C115  O73   A    
O73   Zn10  S    
H15   O105  S    
C126  O60   A    
C131  C146  A    
C78   C108  A    
C89   O2    A    
C17   C39   A    
C18   C40   A    
C133  O43   A    
H33   O124  S    
C149  O118  S    
C116  O50   A    
C158  C174  A    
C135  C142  A    
C118  C173  S    
C151  C161  A    
C138  C174  A    
C163  O132  S    
C24   O25   S    
C161  O130  S    
C142  C170  A    
C141  O110  S    
C66   H6    S    
C9    N2    A    
C39   C65   A    
C125  O65   A    
H60   O19   S    
C104  N6    S    
C94   O38   S    
C36   C62   A    
C137  O106  S    
C37   C63   A    
O1    Zn4   S    
C3    C123  S    
C119  O77   A    
C38   C64   A    
C45   C47   A    
C164  O3    S    
C85   C110  A    
C73   O7    S    
C28   C54   A    
O70   Zn14  S    
C29   C55   A    
C23   C37   A    
C30   C56   A    
C34   C61   A    
C119  O53   A    
C116  C171  S    
O56   Zn10  S    
C148  C164  A    
C43   C44   A    
C110  N4    S    
C136  C141  A    
C96   C144  S    
C124  O64   A    
C20   C42   A    
H29   O119  S    
C23   N7    A    
C71   O5    S    
H58   O17   S    
C57   C97   A    
C9    O83   S    
C106  N8    S    
C154  O124  S    
C70   O4    S    
C52   C58   A    
C72   C106  A    
C75   C105  A    
C33   C47   A    
O79   Zn15  S    
C30   C43   A    
C34   C48   A    
C2    C71   A    
C95   C166  A    
C83   C91   A    
C68   C77   A    
O57   Zn4   S    
H73   O32   S    
C123  O57   A    
O47   Zn4   S    
C81   O15   S    
C82   O16   S    
C166  O21   S    
C88   C102  A    
C27   C53   A    
C18   N6    A    
C38   C51   A    
C13   C72   A    
C22   C36   A    
H55   O15   S    
C2    C96   A    
C16   C29   A    
C20   N8    A    
C37   C50   A    
C117  C172  S    
C12   O86   S    
C18   O92   S    
C123  O68   A    
C22   N6    A    
C70   C104  A    
C46   O27   S    
C13   C97   A    
C68   C98   A    
C81   C88   A    
C58   H56   S    
H65   O25   S    
C162  O131  S    
O63   Zn6   S    
C46   C96   A    
C81   C110  A    
C85   O19   S    
O61   Zn8   S    
O68   Zn12  S    
C10   N3    A    
C129  C175  S    
C32   C59   A    
H25   O115  S    
O59   Zn2   S    
C140  O109  S    
C120  O79   A    
C145  C168  A    
C121  O55   A    
C146  C167  A    
C136  C176  A    
H53   O12   S    
O56   Zn14  S    
C100  O13   A    
C77   O11   S    
H42   O132  S    
C78   O12   S    
C113  C168  S    
O100  Zn2   S    
O67   Zn5   S    
C150  O119  S    
C113  O47   A    
C29   C47   A    
C114  O48   A    
C132  C145  A    
C137  C175  A    
C56   H45   S    
C16   N4    A    
C8    O82   S    
C40   C49   A    
C145  O114  S    
O45   Zn7   S    
C4    C124  S    
C122  O35   A    
C52   H1    S    
C7    C130  A    
C147  C165  A    
C87   C101  A    
C85   C93   A    
O67   Zn16  S    
C13   O23   S    
C5    C132  A    
C155  O41   A    
C151  O120  S    
C153  C170  A    
C111  O24   A    
H50   O9    S    
C134  O103  S    
C1    C103  S    
C142  O112  S    
O71   Zn9   S    
H30   O120  S    
O51   Zn8   S    
C134  C143  A    
O40   Zn9   S    
C75   O9    S    
C3    C159  A    
C19   O93   S    
H40   O130  S    
H37   O127  S    
C115  C170  S    
H38   O128  S    
C46   C75   A    
H75   O34   S    
C153  O123  S    
C11   C33   A    
C149  C165  A    
C135  O104  S    
C25   N8    A    
O1    Zn1   S    
O46   Zn12  S    
O24   Zn5   S    
C91   O34   S    
H20   O110  S    
C156  C172  A    
C54   H23   S    
H72   O31   S    
C12   C26   A    
O45   Zn3   S    
H31   O121  S    
H49   O8    S    
C25   C38   A    
H68   O27   S    
O64   Zn11  S    
C99   C111  S    
C68   O29   S    
O62   Zn5   S    
H17   O107  S    
H62   O21   S    
C67   H7    S    
O48   Zn3   S    
H16   O106  S    
C12   N1    A    
C22   O96   S    
C113  O75   A    
C4    C134  A    
C117  O51   A    
C53   C56   A    
C98   C122  S    
C118  O52   A    
C76   C106  A    
O56   Zn6   S    
C130  C147  A    
C117  O80   A    
C128  C174  S    
C84   C109  A    
O13   Zn6   S    
C11   O85   S    
C139  O108  S    
C100  C101  S    
O2    Zn3   S    
C19   C41   A    
O53   Zn2   S    
C20   O94   S    
C150  C169  A    
C5    C125  S    
C122  O42   A    
C132  O102  S    
C84   C92   A    
C91   C99   A    
C27   C44   A    
C152  O121  S    
C89   O89   A    
H44   O4    S    
C114  C169  S    
C35   C74   A    
O65   Zn10  S    
C133  O39   A    
H21   O112  S    
O1    Zn12  S    
H71   O30   S    
C131  O101  S    
H43   O3    S    
C74   C104  A    
C53   H12   S    
O35   Zn15  S    
C24   C73   A    
C73   C107  A    
C156  O125  S    
H14   O104  S    
C83   C108  A    
H61   O20   S    
H46   O5    S    
C80   C109  A    
H26   O116  S    
C97   C133  S    
C14   C27   A    
H28   O118  S    
O74   Zn11  S    
C62   C65   A    
C31   C44   A    
C155  O46   A    
C40   C66   A    
C80   O14   S    
O89   Zn7   S    
C16   O90   S    
H18   O108  S    
C137  C140  A    
C121  O66   A    
C150  C162  A    
C21   O95   S    
C130  O99   S    
C6    C126  S    
C14   N2    A    
C114  O76   A    
O75   Zn1   S    
C65   H5    S    
C21   C34   A    
C84   O18   S    
C82   C112  A    
C146  O115  S    
H74   O33   S    
C50   C51   A    
C76   O10   S    
C160  O129  S    
C129  O70   A    
C92   C101  A    
C48   C49   A    
C6    C164  A    
C94   C103  A    
C33   C60   A    
C71   C105  A    
C128  O62   A    
C147  O116  S    
H35   O125  S    
C41   C50   A    
C111  O111  A    
C124  O58   A    
H57   O16   S    
C74   O8    S    
C6    C131  A    
H27   O117  S    
C93   C102  A    
C35   C95   A    
H70   O29   S    
C82   C90   A    
C126  O71   A    
C8    C30   A    
C11   N4    A    
C118  O81   A    
H48   O7    S    
O58   Zn16  S    
H19   O109  S    
C15   C28   A    
C7    C163  A    
C136  O105  S    
C57   O28   S    
C3    C135  A    
C17   N5    A    
C90   C103  A    
C100  O100  A    
C138  C139  A    
C19   N7    A    
H13   O103  S    
O67   Zn15  S    
O66   Zn13  S    
C15   O88   S    
O55   Zn3   S    
H24   O114  S    
C36   C49   A    
C144  O44   A    
C120  C167  S    
C5    C161  A    
C39   C48   A    
C152  C160  A    
O45   Zn13  S    
H64   O23   S    
C89   C102  S    
C108  N2    S    
C141  C171  A    
C55   H34   S    
C157  O126  S    
H32   O123  S    
C54   C60   A    
H22   O113  S    
C92   O36   S    
C127  O61   A    
C31   C58   A    
C93   O37   S    
C156  C157  A    
H51   O10   S    
C80   C87   A    
C70   C166  A    
C79   O30   S    
C64   H4    S    
C121  C176  S    
H52   O11   S    
C151  C168  A    
C14   O87   S    
C1    O78   A    
C63   H3    S    
C59   H67   S    
C8    N1    A    
C86   C94   A    
O81   Zn13  S    
O42   Zn11  S    
C138  O107  S    
O43   Zn10  S    
O60   Zn7   S    
O41   Zn1   S    
C127  O72   A    
C149  C163  A    
C120  O54   A    
H10   O101  S    
O122  Zn4   S    
C95   C155  S    
C42   C51   A    
C2    O22   S    
O76   Zn9   S    
C144  O40   A    
C140  C172  A    
O49   Zn6   S    
O45   Zn9   S    
C160  C176  A    
C129  O63   A    
C61   C66   A    
C60   H78   S    
C26   C43   A    
H69   O28   S    
C28   C45   A    
H59   O18   S    
C128  O69   A    
C125  O59   A    
C64   C67   A    
C63   C69   A    
C77   C107  A    
H11   O102  S    
C143  C169  A    
H47   O6    S    
O67   Zn11  S    
C152  C171  A    
C78   C79   A    
O44   Zn13  S    
C42   C69   A    
C87   O31   S    
C159  O128  S    
C88   O32   S    
C153  C159  A    
C86   C112  A    
C83   O17   S    
C26   C52   A    
H54   O14   S    
C86   O20   S    
C157  C175  A    
C90   O33   S    
C21   N5    A    
O52   Zn7   S    
H63   O22   S    
C1    O122  A    
C61   H80   S    
C139  C173  A    
O80   Zn12  S    
C23   O97   S    
C15   N3    A    
C158  O127  S    
C119  C165  S    
C154  C173  A    
O78   Zn8   S    
C62   H2    S    
C107  N7    S    
C148  C167  A    
O39   Zn14  S    
O1    Zn8   S    
C7    C127  S    
H79   O38   S    
C10   O84   S    
O69   Zn15  S    
H36   O126  S    
O56   Zn2   S    
H9    O99   S    
O54   Zn16  S    
C25   O98   S    
C4    C162  A    
O77   Zn14  S    
C109  N1    S    
C115  O49   A    
C9    C31   A    
C69   H8    S    
C10   C32   A    
C105  N5    S    
O72   Zn1   S    
C116  O74   A    
C143  O113  S    
H66   O26   S    
H41   O131  S    
