data_mof_unit_58653.cif
_audit_creation_date              2012-12-10T17:48:39-0500
_audit_creation_method            fapswitch 2.2
_symmetry_space_group_name_H-M    P1
_symmetry_Int_Tables_number       1
_space_group_crystal_system       triclinic
_cell_length_a                    15.688542
_cell_length_b                    10.646352
_cell_length_c                    10.041097
_cell_angle_alpha                 89.58188
_cell_angle_beta                  88.974698
_cell_angle_gamma                 91.636687
_cell_volume                      1676.11787566

loop_
_atom_site_label
_atom_site_type_symbol
_atom_type_description
_atom_site_fract_x
_atom_site_fract_y
_atom_site_fract_z
_atom_type_partial_charge
C1    C     C_R   0.498570 0.260904 0.500340 0.884417
C2    C     C_3   0.948124 0.448568 0.624797 -0.388564
C3    C     C_3   0.917772 0.523868 0.502552 0.321956
C4    C     C_3   0.952847 0.663115 0.508298 0.045561
C5    C     C_3   0.053370 0.663324 0.512741 0.053270
C6    C     C_1   0.825967 0.516336 0.498450 -0.100002
C7    C     C_1   0.175155 0.517536 0.505135 -0.099272
C8    C     C_1   0.250236 0.509739 0.503494 -0.199447
C9    C     C_R   0.655689 0.138117 0.464822 -0.156304
C10   C     C_R   0.732731 0.077262 0.445412 0.282550
C11   C     C_R   0.732985 0.946237 0.444605 -0.142690
C12   C     C_R   0.338828 0.501762 0.501087 0.873987
C13   C     C_R   0.656972 0.877071 0.462815 -0.219366
C14   C     C_R   0.578507 0.937946 0.481108 0.044438
C15   C     C_R   0.577724 0.068931 0.482258 -0.002243
C16   C     C_R   0.498902 0.127605 0.500095 -0.143468
C17   C     C_R   0.420490 0.059282 0.512926 0.193879
C18   C     C_R   0.421634 0.928271 0.513112 0.179191
C19   C     C_R   0.500672 0.870736 0.498278 -0.141057
C20   C     C_R   0.354337 0.409894 0.140139 0.289280
C21   C     C_R   0.276452 0.436998 0.081988 -0.249424
C22   C     C_R   0.274591 0.448983 0.943992 -0.257672
C23   C     C_R   0.500986 0.738440 0.499488 0.891333
C24   C     C_R   0.349663 0.423723 0.872417 0.284411
C25   C     C_R   0.428084 0.458894 0.931349 0.078804
C26   C     C_R   0.429318 0.455257 0.074103 0.058891
C27   C     C_R   0.567461 0.547180 0.067282 0.221351
C28   C     C_R   0.567656 0.543596 0.925158 -0.113493
C29   C     C_R   0.661358 0.501468 0.498934 0.871503
C30   C     C_3   0.046163 0.446875 0.625466 -0.397885
C31   C     C_3   0.051315 0.464550 0.375628 -0.480278
C32   C     C_3   0.953325 0.462690 0.374387 -0.478845
C33   C     C_1   0.750485 0.508777 0.497143 -0.195640
C34   C     C_3   0.083700 0.524402 0.506098 0.322936
H1    H     H_    0.922486 0.350197 0.621702 0.167396
H2    H     H_    0.070013 0.484025 0.721449 0.168514
H3    H     H_    0.657592 0.239661 0.465266 0.137150
H4    H     H_    0.791916 0.897305 0.429472 0.136871
H5    H     H_    0.660346 0.775767 0.461580 0.130722
H6    H     H_    0.066910 0.347883 0.618795 0.168630
H7    H     H_    0.216998 0.416799 0.135566 0.156269
H8    H     H_    0.622549 0.579784 0.868755 0.156000
H9    H     H_    0.077093 0.518584 0.287705 0.168867
H10   H     H_    0.073918 0.366681 0.366273 0.190458
H11   H     H_    0.929274 0.363805 0.366978 0.202750
H12   H     H_    0.931593 0.513711 0.284513 0.170171
H13   H     H_    0.077889 0.712310 0.420699 0.120833
N1    N     N_R   0.499210 0.498800 0.142780 -0.114466
N2    N     N_R   0.499180 0.498720 0.857170 -0.129160
O1    O     O_R   0.500000 0.316780 0.614690 -0.617412
O2    O     O_R   0.499990 0.316750 0.385360 -0.615985
O3    O     O_R   0.377150 0.500020 0.614720 -0.605449
O4    O     O_R   0.377140 0.499990 0.385380 -0.607781
O5    O     O_R   0.500010 0.683250 0.614640 -0.609030
O6    O     O_R   0.500000 0.683220 0.385310 -0.619994
O7    O     O_R   0.622860 0.500010 0.614620 -0.614125
O8    O     O_R   0.622850 0.499980 0.385280 -0.621676
Zn1   Zn    Zn3+2 0.500010 0.500020 0.653130 0.945159
Zn2   Zn    Zn3+2 0.499990 0.499980 0.346870 0.939319
H14   H     H_    0.923843 0.489528 0.719107 0.173318
H15   H     H_    0.935692 0.709489 0.412929 0.116059
C35   C     C_3   0.335907 0.123826 0.523769 -0.956152
H16   H     H_    0.303264 0.097381 0.619299 0.252250
H17   H     H_    0.342241 0.226959 0.520567 0.219963
H18   H     H_    0.294983 0.095778 0.439303 0.247107
C36   C     C_3   0.813811 0.153312 0.425252 -0.985622
H19   H     H_    0.808745 0.213477 0.335124 0.246014
H20   H     H_    0.824228 0.213898 0.513136 0.242760
H21   H     H_    0.869764 0.092643 0.412336 0.238656
C37   C     C_3   0.340168 0.847021 0.527090 -0.898926
H22   H     H_    0.333422 0.786431 0.438138 0.236699
H23   H     H_    0.343422 0.786394 0.617182 0.244998
H24   H     H_    0.280671 0.899563 0.536643 0.243512
C38   C     C_3   0.643190 0.608743 0.131587 -0.827280
H25   H     H_    0.680515 0.668918 0.059462 0.194654
H26   H     H_    0.622412 0.671046 0.213088 0.270042
H27   H     H_    0.686456 0.535906 0.167777 0.246094
C39   C     C_3   0.355175 0.284992 0.210795 -0.823009
H28   H     H_    0.333119 0.294441 0.314506 0.243985
H29   H     H_    0.310627 0.216630 0.162957 0.204826
H30   H     H_    0.418719 0.242455 0.203632 0.254559
H31   H     H_    0.213330 0.438028 0.896534 0.158141
C40   C     C_3   0.342711 0.301526 0.799451 -0.837796
H32   H     H_    0.305587 0.314068 0.708338 0.235803
H33   H     H_    0.405317 0.260046 0.781653 0.268831
H34   H     H_    0.306839 0.230190 0.861529 0.208563
C41   C     C_3   0.093085 0.737934 0.629236 -0.912209
H35   H     H_    0.070980 0.700150 0.727444 0.252041
H36   H     H_    0.163696 0.735121 0.624826 0.244941
H37   H     H_    0.076926 0.838505 0.621934 0.240996
C42   C     C_3   0.909193 0.741202 0.618310 -0.915779
H38   H     H_    0.922858 0.705463 0.719414 0.253303
H39   H     H_    0.930599 0.841261 0.610225 0.242750
H40   H     H_    0.839002 0.739611 0.606443 0.239768

loop_
_geom_bond_atom_site_label_1
_geom_bond_atom_site_label_2
_ccdc_geom_bond_type
C2    H1    S    
C18   C37   S    
C36   H20   S    
C41   H35   S    
O6    Zn2   S    
C32   H11   S    
C3    C6    S    
O4    Zn2   S    
C7    C8    T    
C5    H13   S    
C31   H9    S    
N1    Zn2   S    
C22   H31   S    
C24   C40   S    
O5    Zn1   S    
C2    H14   S    
O8    Zn2   S    
C36   H21   S    
C15   C16   A    
C29   C33   S    
C18   C19   A    
C35   H17   S    
C31   C32   S    
C16   C17   A    
C38   H27   S    
C37   H22   S    
C27   C38   S    
C1    O1    A    
C12   O4    A    
C26   N1    A    
C4    C42   S    
C36   H19   S    
C13   C14   A    
C12   O3    A    
C10   C36   S    
O3    Zn1   S    
C31   H10   S    
C30   C34   S    
O1    Zn1   S    
C24   C25   A    
C38   H25   S    
C42   H38   S    
C39   H28   S    
C25   C26   A    
C4    H15   S    
N2    Zn1   S    
C11   H4    S    
C19   C23   S    
C35   H16   S    
C17   C35   S    
C42   H39   S    
C28   N2    A    
C40   H32   S    
C8    C12   S    
C5    C34   S    
C37   H24   S    
C9    H3    S    
C17   C18   A    
C31   C34   S    
C30   H6    S    
C1    C16   S    
C1    O2    A    
C38   H26   S    
C21   H7    S    
C40   H33   S    
C29   O8    A    
C41   H36   S    
C7    C34   S    
C22   C24   A    
O2    Zn2   S    
C3    C4    S    
C23   O5    A    
C9    C10   A    
C35   H18   S    
C32   H12   S    
C14   C19   A    
C4    C5    S    
C23   O6    A    
C29   O7    A    
C30   H2    S    
C6    C33   T    
C20   C39   S    
C2    C30   S    
C2    C3    S    
C9    C15   A    
C42   H40   S    
C11   C13   A    
C39   H30   S    
C20   C26   A    
C28   H8    S    
O7    Zn1   S    
C39   H29   S    
C27   N1    A    
C3    C32   S    
C25   N2    A    
C13   H5    S    
C10   C11   A    
C5    C41   S    
C40   H34   S    
C20   C21   A    
C41   H37   S    
C27   C28   A    
C14   C15   A    
C37   H23   S    
C21   C22   A    
