data_mof_unit_30594.cif
_audit_creation_date              2013-03-05T16:48:30-0500
_audit_creation_method            fapswitch 2.2
_symmetry_space_group_name_H-M    P1
_symmetry_Int_Tables_number       1
_space_group_crystal_system       triclinic
_cell_length_a                    10.784601
_cell_length_b                    14.843763
_cell_length_c                    14.83799
_cell_angle_alpha                 63.791563
_cell_angle_beta                  106.294529
_cell_angle_gamma                 102.817773
_cell_volume                      2032.25174585

loop_
_atom_site_label
_atom_site_type_symbol
_atom_site_description
_atom_site_fract_x
_atom_site_fract_y
_atom_site_fract_z
_atom_type_partial_charge
O1    O     O_R   0.455540 0.022090 0.338120 -0.591156
O2    O     O_R   0.544460 0.977910 0.661880 -0.591459
O3    O     O_R   0.512510 0.160150 0.379180 -0.584933
O4    O     O_R   0.487490 0.839850 0.620820 -0.563504
C1    C     C_R   0.477183 0.119683 0.311946 0.782126
C2    C     C_R   0.523106 0.880234 0.688071 0.818273
O5    O     O_R   0.291160 0.930970 0.479480 -0.588049
O6    O     O_R   0.708840 0.069030 0.520520 -0.598136
O7    O     O_R   0.348130 0.069020 0.520540 -0.598880
O8    O     O_R   0.651870 0.930980 0.479460 -0.513205
C3    C     C_R   0.263194 0.998619 0.502220 0.777025
C4    C     C_R   0.736791 0.001438 0.497697 0.822983
Cu1   Cu    Cu3+1 0.466270 0.918260 0.475690 0.977443
Cu2   Cu    Cu3+1 0.533730 0.081740 0.524310 0.942144
C5    C     C_R   0.376958 0.040375 0.787110 -0.073395
C6    C     C_R   0.622993 0.959229 0.212998 -0.065527
H1    H     H_    0.438275 0.987435 0.850845 0.177734
H2    H     H_    0.561686 0.012100 0.149161 0.183414
C7    C     C_R   0.278238 0.005038 0.722302 -0.153001
C8    C     C_R   0.721767 0.994738 0.277642 -0.172963
H3    H     H_    0.265591 0.925781 0.736449 0.118435
H4    H     H_    0.734473 0.074056 0.263271 0.143794
C9    C     C_R   0.197758 0.072024 0.638578 0.126553
C10   C     C_R   0.802221 0.927843 0.361493 0.114209
C11   C     C_R   0.215669 0.174345 0.621736 -0.177961
C12   C     C_R   0.784207 0.825432 0.378652 -0.113817
H5    H     H_    0.154430 0.226961 0.557501 0.135066
H6    H     H_    0.845400 0.772878 0.443010 0.149624
C13   C     C_R   0.314644 0.209754 0.686294 -0.271976
C14   C     C_R   0.685150 0.789847 0.314285 -0.271947
H7    H     H_    0.327634 0.289213 0.671392 0.137316
H8    H     H_    0.672073 0.710322 0.329439 0.143441
C15   C     C_R   0.396456 0.143264 0.769107 0.072519
C16   C     C_R   0.603409 0.856256 0.231310 0.071094
C17   C     C_R   0.968309 0.039403 0.559515 -0.232844
C18   C     C_R   0.031677 0.960654 0.440398 -0.231303
H9    H     H_    0.943614 0.067612 0.607677 0.152057
H10   H     H_    0.056370 0.932420 0.392256 0.149749
C19   C     C_R   0.870428 0.002840 0.495173 -0.059588
C20   C     C_R   0.129557 0.997225 0.504735 -0.072514
C21   C     C_R   0.901878 0.963864 0.433959 0.026421
C22   C     C_R   0.098108 0.036168 0.565976 0.007922
C23   C     C_R   0.455743 0.187499 0.202496 -0.113722
C24   C     C_R   0.545095 0.811867 0.797404 -0.091274
C25   C     C_R   0.334393 0.224253 0.026915 0.120570
C26   C     C_R   0.665895 0.774227 0.973285 0.119540
C27   C     C_R   0.376927 0.154378 0.127993 -0.196413
C28   C     C_R   0.622521 0.844623 0.872565 -0.195871
C29   C     C_R   0.506372 0.288396 0.174076 -0.118150
C30   C     C_R   0.496924 0.710537 0.824872 -0.260278
C31   C     C_R   0.478465 0.358944 0.072390 0.096461
C32   C     C_R   0.524314 0.639569 0.926299 0.058567
C33   C     C_R   0.380473 0.328673 0.001300 0.050324
C34   C     C_R   0.621161 0.669704 0.998057 0.126725
C35   C     C_R   0.534209 0.461620 0.043857 0.073589
C36   C     C_R   0.469253 0.536739 0.953994 -0.045741
C37   C     C_R   0.352754 0.506046 0.894578 -0.015171
C38   C     C_R   0.650478 0.492631 0.103238 0.018894
C39   C     C_R   0.320841 0.404057 0.911547 -0.223596
C40   C     C_R   0.681113 0.594153 0.087513 -0.305664
H11   H     H_    0.237768 0.383846 0.860438 0.180815
H12   H     H_    0.763912 0.613835 0.139289 0.126040
H13   H     H_    0.444017 0.686122 0.764646 0.156055
H14   H     H_    0.562174 0.312684 0.233772 0.187389
H15   H     H_    0.656295 0.924155 0.849282 0.147236
H16   H     H_    0.341622 0.075046 0.151997 0.148795
N1    N     N_R   0.584450 0.204570 0.560790 -0.210129
N2    N     N_R   0.415550 0.795430 0.439210 -0.193147
C41   C     C_R   0.735572 0.289027 0.657612 -0.297197
C42   C     C_R   0.264561 0.711910 0.341115 -0.296692
C43   C     C_R   0.689558 0.203381 0.637097 0.067869
C44   C     C_R   0.311374 0.797463 0.361887 0.063841
C45   C     C_R   0.515139 0.287024 0.506838 0.137684
C46   C     C_R   0.483649 0.712104 0.493467 0.150504
C47   C     C_R   0.547479 0.370975 0.534943 -0.030766
C48   C     C_R   0.450928 0.628758 0.464656 -0.098615
C49   C     C_R   0.667272 0.373989 0.604344 0.122028
C50   C     C_R   0.331616 0.626281 0.394845 0.140333
C51   C     C_R   0.471030 0.454402 0.492977 0.096706
C52   C     C_R   0.526664 0.544981 0.507153 0.039404
C53   C     C_R   0.657574 0.549890 0.559825 -0.243686
C54   C     C_R   0.339935 0.449716 0.440335 -0.162571
C55   C     C_R   0.722375 0.464203 0.614120 -0.178414
C56   C     C_R   0.275814 0.535906 0.385455 -0.170342
H17   H     H_    0.819542 0.470163 0.659555 0.174049
H18   H     H_    0.178807 0.530331 0.339669 0.139317
H19   H     H_    0.259654 0.863616 0.320599 0.121372
H20   H     H_    0.742202 0.137707 0.677972 0.124216
H21   H     H_    0.825365 0.289579 0.713343 0.150768
H22   H     H_    0.175144 0.711966 0.284867 0.140972
H23   H     H_    0.713249 0.619890 0.559028 0.184953
H24   H     H_    0.284103 0.379810 0.440535 0.123616
C57   C     C_2   0.500894 0.182406 0.836039 0.331488
H25   H     H_    0.515044 0.262363 0.819967 0.081531
O9    O     O_2   0.572062 0.126179 0.909883 -0.562723
C58   C     C_2   0.498960 0.816934 0.164537 0.325030
H26   H     H_    0.484679 0.736905 0.180906 0.088220
O10   O     O_2   0.427931 0.873086 0.090494 -0.571087
C59   C     C_3   0.233713 0.190710 0.948678 -0.433422
C60   C     C_3   0.202440 0.076125 0.979134 -0.322580
C61   C     C_3   0.101629 0.052762 0.894500 -0.829199
H27   H     H_    0.010384 0.084964 0.878869 0.242382
H28   H     H_    0.138696 0.085223 0.822730 0.269431
H29   H     H_    0.079738 0.969646 0.918900 0.252721
H30   H     H_    0.292521 0.042777 0.993860 0.269234
H31   H     H_    0.161479 0.040474 0.049457 0.211679
H32   H     H_    0.141627 0.221778 0.933581 0.203947
H33   H     H_    0.269442 0.224061 0.875941 0.197428
C62   C     C_3   0.765905 0.807414 0.052050 -0.437262
C63   C     C_3   0.797025 0.921935 0.022102 -0.320977
C64   C     C_3   0.898106 0.944969 0.106813 -0.831323
H34   H     H_    0.861405 0.912013 0.178776 0.266449
H35   H     H_    0.989389 0.913041 0.121926 0.240218
H36   H     H_    0.919803 0.028048 0.082811 0.256624
H37   H     H_    0.837676 0.957998 0.951614 0.212957
H38   H     H_    0.706942 0.955076 0.007844 0.268895
H39   H     H_    0.729744 0.773603 0.124632 0.197671
H40   H     H_    0.858184 0.776557 0.067239 0.200247
C65   C     C_2   0.252153 0.575223 0.825826 0.343615
H41   H     H_    0.250709 0.643772 0.834584 0.086095
O11   O     O_2   0.168752 0.555870 0.759732 -0.555114
C66   C     C_2   0.753738 0.426300 0.171655 0.330294
H42   H     H_    0.819650 0.442377 0.234422 0.070499
O12   O     O_2   0.770911 0.356807 0.155143 -0.539645
C67   C     C_2   0.566438 0.696937 0.595862 0.406334
H43   H     H_    0.538938 0.633538 0.662893 0.045962
O13   O     O_2   0.669652 0.748851 0.606372 -0.538200
C68   C     C_2   0.424894 0.295930 0.408687 0.373532
H44   H     H_    0.343659 0.239277 0.405057 0.101763
O14   O     O_2   0.440405 0.369079 0.329427 -0.577093

loop_
_geom_bond_atom_site_label_1
_geom_bond_atom_site_label_2
_geom_bond_distance
_ccdc_geom_bond_type
C35   C36   1.421671 A    
C61   H27   1.110547 S    
C10   C21   1.483758 S    
C42   C50   1.401218 A    
N2    C46   1.381698 A    
C41   C49   1.401007 A    
C64   H34   1.107247 S    
C68   H44   1.078994 S    
C33   C39   1.400608 A    
C62   H39   1.111423 S    
C19   C21   1.413802 A    
C34   C40   1.401035 A    
C5    C7    1.398780 A    
C59   H33   1.111383 S    
C60   H30   1.111432 S    
C57   H25   1.085749 S    
C9    C22   1.483814 S    
C46   C48   1.423601 A    
O1    C1    1.306823 A    
C48   C50   1.412350 A    
C17   H9    1.085142 S    
C10   C12   1.402965 A    
C17   C19   1.399386 A    
C37   C39   1.398040 A    
C46   C67   1.477191 S    
C49   C55   1.391949 A    
C38   C40   1.395106 A    
C13   C15   1.403300 A    
C54   H24   1.077211 S    
C36   C37   1.429193 A    
C40   H12   1.081880 S    
O4    Cu1   1.916282 S    
C41   C43   1.390062 A    
C17   C22   1.386181 A    
C63   C64   1.526588 S    
C6    C16   1.406029 A    
C8    C10   1.404317 A    
C29   C31   1.397547 A    
C58   O10   1.220965 D    
C30   C32   1.396489 A    
Cu2   N1    2.044390 S    
N1    C45   1.379238 A    
C28   H15   1.079492 S    
C27   H16   1.079449 S    
C31   C35   1.424740 A    
C6    C8    1.398807 A    
C37   C65   1.490015 S    
C25   C27   1.409485 A    
C1    C23   1.467235 S    
C25   C33   1.427489 A    
C61   H28   1.107354 S    
C29   H14   1.078609 S    
C2    C24   1.467880 S    
Cu1   Cu2   2.721557 S    
C30   H13   1.078731 S    
C45   C47   1.425830 A    
C18   C21   1.386166 A    
O2    C2    1.307893 A    
C41   H21   1.083862 S    
C53   C55   1.388730 A    
C32   C34   1.419165 A    
C62   H40   1.111852 S    
O5    C3    1.305351 A    
C65   O11   1.221692 D    
C11   C13   1.398293 A    
C26   C28   1.410467 A    
C38   C66   1.486414 S    
C39   H11   1.080832 S    
C14   C16   1.403280 A    
C32   C36   1.425511 A    
C18   C20   1.399388 A    
O4    C2    1.309095 A    
C25   C59   1.528999 S    
C23   C29   1.388365 A    
C43   H20   1.081951 S    
C15   C57   1.477869 S    
N2    C44   1.356695 A    
C31   C33   1.419095 A    
C7    C9    1.404324 A    
O7    Cu2   1.955525 S    
O7    C3    1.300562 A    
C59   C60   1.537216 S    
O6    C4    1.305289 A    
C58   H26   1.085747 S    
C26   C34   1.427836 A    
C64   H35   1.110546 S    
C47   C49   1.414214 A    
O3    Cu2   1.916282 S    
O8    C4    1.300672 A    
C55   H17   1.084225 S    
C8    H4    1.083288 S    
C12   C14   1.398253 A    
C61   H29   1.110476 S    
C54   C56   1.390855 A    
C67   H43   1.085253 S    
C26   C62   1.528823 S    
O1    Cu1   1.929579 S    
C66   O12   1.221401 D    
C63   H38   1.111473 S    
C44   H19   1.081936 S    
C24   C30   1.388886 A    
C5    H1    1.082772 S    
O6    Cu2   1.957604 S    
C7    H3    1.083268 S    
C12   H6    1.082951 S    
C48   C52   1.442306 A    
C16   C58   1.477832 S    
C52   C53   1.412386 A    
O3    C1    1.309848 A    
O8    Cu1   1.955525 S    
C68   O14   1.221464 D    
C51   C54   1.413670 A    
C65   H41   1.085102 S    
C11   H5    1.082921 S    
C45   C68   1.475593 S    
C59   H32   1.111872 S    
C60   H31   1.109586 S    
C4    C19   1.447497 S    
C18   H10   1.085145 S    
C13   H7    1.083231 S    
C62   C63   1.537265 S    
C14   H8    1.083228 S    
C57   O9    1.220983 D    
C23   C27   1.397725 A    
C42   H22   1.083796 S    
C20   C22   1.413806 A    
C60   C61   1.526611 S    
C64   H36   1.110485 S    
N1    C43   1.355817 A    
C9    C11   1.402949 A    
C3    C20   1.447473 S    
O2    Cu2   1.929579 S    
C51   C52   1.425847 A    
C53   H23   1.075472 S    
C50   C56   1.393206 A    
O5    Cu1   1.957603 S    
C6    H2    1.082803 S    
C35   C38   1.429221 A    
C67   O13   1.218740 D    
C56   H18   1.084116 S    
C42   C44   1.391587 A    
C66   H42   1.085899 S    
C47   C51   1.443912 A    
C63   H37   1.109650 S    
C5    C15   1.405980 A    
C24   C28   1.397733 A    
Cu1   N2    2.044390 S    
