data_mof_unit_14828.cif
_audit_creation_date              2013-03-05T15:47:31-0500
_audit_creation_method            fapswitch 2.2
_symmetry_space_group_name_H-M    P1
_symmetry_Int_Tables_number       1
_space_group_crystal_system       triclinic
_cell_length_a                    10.36677
_cell_length_b                    10.385163
_cell_length_c                    13.566455
_cell_angle_alpha                 93.047896
_cell_angle_beta                  76.448469
_cell_angle_gamma                 92.917496
_cell_volume                      1416.78916411

loop_
_atom_site_label
_atom_site_type_symbol
_atom_site_description
_atom_site_fract_x
_atom_site_fract_y
_atom_site_fract_z
_atom_type_partial_charge
O1    O     O_R   0.430150 0.692610 0.508030 -0.564000
O2    O     O_R   0.569850 0.307390 0.491970 -0.542783
O3    O     O_R   0.653100 0.659360 0.482430 -0.631586
O4    O     O_R   0.346900 0.340640 0.517570 -0.612167
C1    C     C_R   0.553513 0.734640 0.489736 0.888498
C2    C     C_R   0.447622 0.265298 0.501946 0.916350
O5    O     O_R   0.372470 0.518990 0.654990 -0.622558
O6    O     O_R   0.627530 0.481010 0.345010 -0.590902
O7    O     O_R   0.595430 0.485740 0.629390 -0.596587
O8    O     O_R   0.404570 0.514260 0.370610 -0.604967
C3    C     C_R   0.478168 0.504213 0.687575 0.927361
C4    C     C_R   0.520775 0.492094 0.312576 0.968578
Zn1   Zn    Zn3+2 0.351130 0.522200 0.517090 1.009585
Zn2   Zn    Zn3+2 0.648870 0.477800 0.482910 1.017582
N1    N     N_2   0.847200 0.448220 0.460120 -0.138007
N2    N     N_2   0.152800 0.551780 0.539880 -0.148200
C5    C     C_1   0.527519 0.467209 0.209294 -0.017214
C6    C     C_1   0.463108 0.509311 0.792679 -0.084417
C7    C     C_2   0.502364 0.423833 0.024434 0.131739
C8    C     C_2   0.440341 0.515061 0.987499 0.148265
C9    C     C_2   0.922012 0.484588 0.523850 -0.052665
C10   C     C_2   0.072897 0.476474 0.497200 -0.039284
C11   C     C_1   0.449884 0.513163 0.881857 0.038073
C12   C     C_1   0.521608 0.444585 0.123940 0.035511
C13   C     C_2   0.577670 0.871175 0.466660 0.026879
C14   C     C_2   0.426749 0.125933 0.495250 0.000831
C15   C     C_2   0.506098 0.921165 0.406427 0.219925
C16   C     C_2   0.486486 0.060498 0.408026 0.176637
C17   C     C_R   0.109124 0.669784 0.592271 0.246168
C18   C     C_R   0.114846 0.690465 0.694225 -0.109511
C19   C     C_R   0.069766 0.804749 0.747443 -0.096699
C20   C     C_R   0.018489 0.899033 0.699233 -0.014751
C21   C     C_R   0.015015 0.880359 0.597098 -0.100205
C22   C     C_R   0.063235 0.767516 0.542800 -0.153586
H1    H     H_    0.149659 0.616370 0.733526 0.151170
H2    H     H_    0.072401 0.819187 0.826548 0.159090
H3    H     H_    0.981506 0.986498 0.740932 0.153868
H4    H     H_    0.973520 0.952786 0.560624 0.171071
H5    H     H_    0.061483 0.754571 0.463530 0.146824
C23   C     C_R   0.903133 0.451561 0.354183 0.215001
C24   C     C_R   0.904617 0.337879 0.293467 -0.060945
C25   C     C_R   0.947295 0.341714 0.187890 -0.122841
C26   C     C_R   0.986810 0.459435 0.142379 -0.121339
C27   C     C_R   0.982315 0.573593 0.202329 -0.077776
C28   C     C_R   0.939244 0.570041 0.307874 -0.167578
H6    H     H_    0.874534 0.246432 0.328327 0.195493
H7    H     H_    0.949846 0.253457 0.141441 0.177619
H8    H     H_    0.019976 0.462324 0.060676 0.151753
H9    H     H_    0.011086 0.664921 0.166959 0.181162
H10   H     H_    0.932125 0.659204 0.353427 0.140724
N3    N     N_R   0.379887 0.624209 0.048343 0.220084
O9    O     O_R   0.372395 0.731977 0.005575 -0.333614
O10   O     O_R   0.314541 0.611025 0.141806 -0.394744
N4    N     N_R   0.556162 0.310330 0.965889 0.210157
O11   O     O_R   0.645843 0.247454 0.994224 -0.346436
O12   O     O_R   0.502176 0.257902 0.895204 -0.338621
N5    N     N_R   0.533351 0.124218 0.313678 0.180272
O13   O     O_R   0.631709 0.208671 0.303738 -0.398556
O14   O     O_R   0.502144 0.074767 0.231855 -0.310505
N6    N     N_R   0.445713 0.838961 0.339878 0.237108
O15   O     O_R   0.324073 0.856035 0.334729 -0.366687
O16   O     O_R   0.520120 0.766522 0.270553 -0.383501
N7    N     N_R   0.357905 0.062164 0.585825 0.198800
O17   O     O_R   0.307588 0.945487 0.580954 -0.397077
O18   O     O_R   0.333381 0.126002 0.672941 -0.352182
N8    N     N_R   0.661975 0.950899 0.517711 0.194003
O19   O     O_R   0.681912 0.917089 0.603778 -0.412721
O20   O     O_R   0.728381 0.050653 0.474446 -0.398529
C29   C     C_R   0.127418 0.364586 0.430509 0.169833
C30   C     C_R   0.102197 0.238395 0.464941 -0.134226
C31   C     C_R   0.142677 0.132576 0.398614 -0.144134
C32   C     C_R   0.205243 0.151364 0.297294 -0.050288
C33   C     C_R   0.229380 0.276047 0.262156 -0.161571
C34   C     C_R   0.190017 0.382041 0.328261 -0.130707
H11   H     H_    0.051771 0.221808 0.542745 0.140587
H12   H     H_    0.125176 0.035689 0.425084 0.180944
H13   H     H_    0.234105 0.069181 0.245808 0.218747
H14   H     H_    0.275514 0.290428 0.183133 0.177338
H15   H     H_    0.203436 0.477810 0.298963 0.204515
C35   C     C_R   0.859913 0.511672 0.632580 0.160570
C36   C     C_R   0.873247 0.424783 0.705186 -0.123946
C37   C     C_R   0.831660 0.457265 0.808756 -0.101424
C38   C     C_R   0.776587 0.576647 0.840814 -0.151155
C39   C     C_R   0.761595 0.663215 0.769322 -0.143283
C40   C     C_R   0.803762 0.631284 0.665688 -0.097420
H16   H     H_    0.918349 0.333134 0.681814 0.134545
H17   H     H_    0.843863 0.390528 0.864167 0.180134
H18   H     H_    0.745264 0.601949 0.921025 0.158196
H19   H     H_    0.718938 0.755737 0.794115 0.194454
H20   H     H_    0.794881 0.700314 0.611214 0.185852

loop_
_geom_bond_atom_site_label_1
_geom_bond_atom_site_label_2
_geom_bond_distance
_ccdc_geom_bond_type
C27   H9    1.082274 S    
N8    O20   1.301670 A    
N7    O18   1.301520 A    
C3    C6    1.396005 S    
C33   C34   1.397038 A    
C7    C8    1.351135 D    
C14   N7    1.444047 S    
C36   C37   1.398005 A    
C16   N5    1.441589 S    
O5    C3    1.292655 A    
C17   C18   1.402971 A    
C18   H1    1.081069 S    
O1    C1    1.301379 A    
C8    N3    1.445462 S    
C15   N6    1.436775 S    
C18   C19   1.398392 A    
N5    O14   1.300527 A    
C37   H17   1.081834 S    
N6    O16   1.299736 A    
C24   C25   1.398625 A    
O4    Zn1   1.884131 S    
C32   H13   1.081895 S    
C22   H5    1.080956 S    
C19   C20   1.397534 A    
C4    C5    1.397277 S    
O6    Zn2   1.936837 S    
C24   H6    1.082273 S    
C30   C31   1.399396 A    
C26   H8    1.082398 S    
C10   C29   1.484474 S    
C36   H16   1.081105 S    
C38   H18   1.082269 S    
C9    C10   1.526319 S    
O2    C2    1.297885 A    
C23   C28   1.404962 A    
N4    O12   1.301619 A    
C5    C12   1.184349 T    
N3    O9    1.301654 A    
C39   C40   1.398177 A    
O4    C2    1.307373 A    
C35   C36   1.405205 A    
N2    C17   1.423050 S    
C33   H14   1.081589 S    
C17   C22   1.406446 A    
C6    C11   1.183959 T    
N6    O15   1.300702 A    
N3    O10   1.300710 A    
O7    Zn2   1.932365 S    
C35   C40   1.405475 A    
C38   C39   1.396665 A    
C8    C11   1.412431 S    
N1    C9    1.319598 D    
O6    C4    1.295462 A    
C21   C22   1.400402 A    
C29   C34   1.403942 A    
C20   H3    1.082246 S    
O7    C3    1.302153 A    
O3    Zn2   1.884130 S    
O8    C4    1.299442 A    
C1    C13   1.464788 S    
C7    N4    1.446061 S    
C23   C24   1.401800 A    
C34   H15   1.081000 S    
C26   C27   1.398034 A    
O1    Zn1   1.909580 S    
C25   C26   1.398003 A    
C31   H12   1.078702 S    
C15   C16   1.469741 S    
C27   C28   1.398314 A    
N4    O11   1.301717 A    
N2    C10   1.320489 D    
C19   H2    1.082196 S    
C13   N8    1.441532 S    
C32   C33   1.394012 A    
O3    C1    1.308754 A    
O8    Zn1   1.932363 S    
C40   H20   1.078658 S    
C13   C15   1.362431 D    
C14   C16   1.363614 D    
C21   H4    1.080699 S    
C20   C21   1.397473 A    
C7    C12   1.414028 S    
C31   C32   1.394977 A    
N5    O13   1.297768 A    
C2    C14   1.453680 S    
C28   H10   1.081438 S    
C9    C35   1.482807 S    
N8    O19   1.301321 A    
C25   H7    1.082175 S    
C29   C30   1.406052 A    
O2    Zn2   1.909580 S    
N1    C23   1.419730 S    
N7    O17   1.299240 A    
O5    Zn1   1.936837 S    
C37   C38   1.396635 A    
C39   H19   1.082176 S    
Zn1   N2    2.042928 S    
C30   H11   1.081048 S    
Zn2   N1    2.042928 S    
