data_mof_unit_68264.cif
_audit_creation_date              2012-12-11T18:15:18-0500
_audit_creation_method            fapswitch 2.2
_symmetry_space_group_name_H-M    P1
_symmetry_Int_Tables_number       1
_space_group_crystal_system       triclinic
_cell_length_a                    20.144379
_cell_length_b                    20.071714
_cell_length_c                    8.38393
_cell_angle_alpha                 90.003079
_cell_angle_beta                  91.709467
_cell_angle_gamma                 89.900481
_cell_volume                      3388.37917781

loop_
_atom_site_label
_atom_site_type_symbol
_atom_type_description
_atom_site_fract_x
_atom_site_fract_y
_atom_site_fract_z
_atom_type_partial_charge
Ba1   Ba    Ba6+2 0.999980 0.452130 0.155200 1.618705
Ba2   Ba    Ba6+2 0.999980 0.547870 0.655200 1.629509
Ba3   Ba    Ba6+2 0.499980 0.952130 0.155200 1.628106
Ba4   Ba    Ba6+2 0.499980 0.047870 0.655200 1.625632
C1    C     C_3   0.951149 0.137328 0.444455 -0.133782
C2    C     C_R   0.112742 0.662412 0.179520 -0.321823
C3    C     C_R   0.613020 0.837155 0.678440 -0.296421
C4    C     C_R   0.613099 0.162526 0.179905 -0.327787
C5    C     C_R   0.126647 0.286307 0.574190 0.039874
C6    C     C_R   0.125311 0.715075 0.076178 0.034962
C7    C     C_R   0.626155 0.784490 0.574524 -0.031170
C8    C     C_R   0.627261 0.213792 0.073966 0.040310
C9    C     C_R   0.174395 0.238423 0.616103 0.053492
C10   C     C_R   0.172607 0.763313 0.118664 0.066741
C11   C     C_R   0.674777 0.736899 0.618009 0.061525
C12   C     C_3   0.947703 0.862072 0.924141 -0.098860
C13   C     C_R   0.676734 0.260302 0.112907 0.057276
C14   C     C_R   0.211455 0.243813 0.762433 -0.023105
C15   C     C_R   0.210234 0.757349 0.264216 -0.019037
C16   C     C_R   0.711406 0.743277 0.763823 0.020783
C17   C     C_R   0.713663 0.254817 0.259504 -0.021283
C18   C     C_R   0.201771 0.300119 0.862394 -0.049062
C19   C     C_R   0.200849 0.700790 0.363827 -0.051414
C20   C     C_R   0.701648 0.799775 0.862950 -0.061588
C21   C     C_R   0.702741 0.199447 0.361673 -0.046880
C22   C     C_R   0.800100 0.701220 0.946538 -0.051255
C23   C     C_3   0.453332 0.633458 0.431803 -0.101237
C24   C     C_R   0.801467 0.297704 0.444122 -0.031908
C25   C     C_R   0.300321 0.201541 0.945026 -0.034127
C26   C     C_R   0.299776 0.798891 0.445894 -0.011886
C27   C     C_R   0.790788 0.757869 0.044726 -0.006365
C28   C     C_R   0.791184 0.241912 0.544387 -0.002471
C29   C     C_R   0.290864 0.258001 0.043702 -0.000686
C30   C     C_R   0.289923 0.742764 0.545344 0.028136
C31   C     C_R   0.850525 0.653560 0.989510 0.043942
C32   C     C_R   0.851473 0.345701 0.487939 0.048407
C33   C     C_R   0.350951 0.153952 0.987881 0.042068
C34   C     C_3   0.451218 0.362083 0.936209 -0.109064
C35   C     C_R   0.351068 0.845821 0.487589 0.062756
C36   C     C_R   0.888975 0.663488 0.129199 -0.289906
C37   C     C_R   0.889321 0.336005 0.628608 -0.264182
C38   C     C_R   0.389549 0.163999 0.127173 -0.282932
C39   C     C_R   0.389905 0.835282 0.626242 -0.245992
C40   C     C_3   0.028331 0.210301 0.915025 0.362445
C41   C     C_3   0.023743 0.792983 0.418520 0.383854
C42   C     C_3   0.524200 0.709330 0.906182 0.413266
C43   C     C_3   0.516342 0.296665 0.437973 0.364249
C44   C     C_R   0.876003 0.716453 0.231906 0.007472
C45   C     C_R   0.151257 0.347728 0.819336 0.045147
C46   C     C_R   0.875620 0.283770 0.732772 0.035326
C47   C     C_R   0.376044 0.216509 0.230580 0.010330
C48   C     C_R   0.375585 0.783681 0.731617 0.020129
C49   C     C_R   0.828231 0.764266 0.188335 -0.148142
C50   C     C_R   0.827710 0.236221 0.689547 -0.144164
C51   C     C_R   0.328016 0.264113 0.187707 -0.146462
C52   C     C_R   0.327116 0.736555 0.689447 -0.133445
C53   C     C_R   0.758818 0.694274 0.809243 -0.034659
C54   C     C_R   0.761493 0.303493 0.304150 -0.044296
C55   C     C_R   0.258865 0.194658 0.807820 -0.043857
C56   C     C_R   0.150642 0.652958 0.320409 0.045335
C57   C     C_R   0.258205 0.805976 0.308770 -0.037523
C58   C     C_3   0.056391 0.142876 0.864092 -0.215572
C59   C     C_3   0.046187 0.862440 0.367979 -0.224479
C60   C     C_3   0.551090 0.639180 0.878447 -0.223356
C61   C     C_3   0.542483 0.366836 0.468545 -0.208886
C62   C     C_3   0.797748 0.469082 0.775832 0.435806
C63   C     C_3   0.789608 0.527067 0.275691 0.492804
C64   C     C_3   0.295292 0.970084 0.776143 0.400709
C65   C     C_3   0.285825 0.022844 0.264656 0.478456
C66   C     C_3   0.729972 0.454245 0.695949 -0.056993
C67   C     C_R   0.650989 0.847154 0.819453 0.044960
C68   C     C_3   0.722824 0.524543 0.183292 -0.043315
C69   C     C_3   0.224411 0.952689 0.718250 -0.054703
C70   C     C_3   0.219000 0.013965 0.173379 -0.028298
C71   C     C_3   0.188847 0.541752 0.993178 0.309227
C72   C     C_3   0.189845 0.458629 0.493879 0.307375
C73   C     C_3   0.689497 0.041465 0.993372 0.305430
C74   C     C_3   0.688933 0.958065 0.492585 0.309112
C75   C     C_3   0.251332 0.584300 0.003530 -0.394276
C76   C     C_3   0.252758 0.416519 0.505218 -0.390990
C77   C     C_3   0.752414 0.083347 0.004983 -0.390644
C78   C     C_R   0.651405 0.152597 0.319956 0.046869
C79   C     C_3   0.751553 0.915544 0.504099 -0.384704
C80   C     C_3   0.982144 0.207015 0.439913 0.357284
C81   C     C_3   0.981304 0.793886 0.934190 0.455893
C82   C     C_3   0.500749 0.691061 0.468778 0.393453
C83   C     C_3   0.480267 0.291923 0.925821 0.448706
C84   C     C_R   0.242847 0.306631 0.001149 -0.036901
C85   C     C_R   0.241910 0.694259 0.502711 -0.026844
C86   C     C_R   0.742836 0.806552 0.001581 -0.046121
C87   C     C_R   0.743234 0.193313 0.501633 -0.034116
C88   C     C_3   0.053466 0.090471 0.995287 -0.390701
C89   C     C_R   0.113580 0.338637 0.678038 -0.324959
C90   C     C_3   0.036521 0.914356 0.498238 -0.351599
C91   C     C_3   0.558252 0.599861 0.032908 -0.389390
C92   C     C_3   0.614951 0.372391 0.425957 -0.526210
H1    H     H_    0.945112 0.243004 0.389634 0.054592
H2    H     H_    0.717510 0.567630 0.100250 0.044680
H3    H     H_    0.384839 0.357906 0.747286 0.197781
H4    H     H_    0.175018 0.140752 0.559461 0.170815
H5    H     H_    0.235856 0.187645 0.475962 0.207847
H6    H     H_    0.173156 0.861837 0.066709 0.151071
H7    H     H_    0.232073 0.815132 0.973924 0.181953
H8    H     H_    0.701219 0.701412 0.402939 0.190669
H9    H     H_    0.644905 0.654435 0.499523 0.166269
H10   H     H_    0.682273 0.357856 0.051691 0.172882
H11   H     H_    0.739268 0.306804 0.965527 0.196413
H12   H     H_    0.001288 0.075589 0.014113 0.147408
H13   H     H_    0.197303 0.928332 0.815763 0.095694
H14   H     H_    0.081435 0.045524 0.958793 0.119856
H15   H     H_    0.075978 0.109914 0.108426 0.150110
H16   H     H_    0.983037 0.920172 0.522856 0.177519
H17   H     H_    0.064179 0.899756 0.609450 0.150117
H18   H     H_    0.054856 0.963293 0.457155 0.103717
H19   H     H_    0.509389 0.594253 0.089006 0.158908
H20   H     H_    0.577575 0.549497 0.005862 0.101227
H21   H     H_    0.593398 0.625567 0.116485 0.144959
H22   H     H_    0.645269 0.335066 0.493543 0.158468
H23   H     H_    0.620206 0.365137 0.295912 0.139553
H24   H     H_    0.210258 0.055627 0.087664 0.073997
H25   H     H_    0.633041 0.422653 0.458222 0.170383
H26   H     H_    0.868360 0.420587 0.909063 0.206409
H27   H     H_    0.790974 0.410458 0.973983 0.192994
H28   H     H_    0.782137 0.628492 0.295679 0.110915
H29   H     H_    0.843571 0.593318 0.407372 0.188574
H30   H     H_    0.372771 0.924252 0.893620 0.211140
H31   H     H_    0.298218 0.907338 0.967793 0.176158
H32   H     H_    0.276813 0.124390 0.259166 0.112884
H33   H     H_    0.335272 0.094678 0.389629 0.184975
H34   H     H_    0.167518 0.538276 0.112890 0.013737
H35   H     H_    0.168465 0.462355 0.613524 0.015002
H36   H     H_    0.667837 0.038032 0.112756 0.013409
H37   H     H_    0.667054 0.961335 0.611758 0.011012
H38   H     H_    0.152768 0.565733 0.908355 0.064757
H39   H     H_    0.154018 0.434195 0.409379 0.062240
H40   H     H_    0.653821 0.065869 0.908275 0.063436
H41   H     H_    0.945607 0.755459 0.889848 0.041335
H42   H     H_    0.653300 0.934204 0.406705 0.065806
H43   H     H_    0.287214 0.562831 0.092674 0.119897
H44   H     H_    0.288300 0.438393 0.594418 0.122647
H45   H     H_    0.787780 0.061526 0.094836 0.139321
H46   H     H_    0.786737 0.936674 0.595086 0.122877
H47   H     H_    0.239235 0.635856 0.039662 0.065746
H48   H     H_    0.241138 0.364963 0.541866 0.062855
H49   H     H_    0.740767 0.135001 0.040884 0.062265
H50   H     H_    0.739469 0.863816 0.538396 0.062018
H51   H     H_    0.274753 0.586020 0.885338 0.116873
H52   H     H_    0.471312 0.733943 0.512138 0.004430
H53   H     H_    0.276367 0.414706 0.387255 0.118417
H54   H     H_    0.776269 0.084841 0.887293 0.117442
H55   H     H_    0.775761 0.914386 0.386827 0.121245
H56   H     H_    0.994628 0.221364 0.564958 -0.107664
H57   H     H_    0.993952 0.784040 0.061699 -0.160959
H58   H     H_    0.535863 0.674180 0.564053 -0.095010
H59   H     H_    0.487205 0.273054 0.049706 -0.149447
H60   H     H_    0.919693 0.133334 0.550776 0.074009
H61   H     H_    0.910571 0.866202 0.019356 0.034958
H62   H     H_    0.434424 0.614358 0.546411 0.054774
H63   H     H_    0.444322 0.259169 0.860132 0.053658
H64   H     H_    0.409367 0.362088 0.019881 0.035283
H65   H     H_    0.109036 0.149487 0.832177 0.081030
H66   H     H_    0.099601 0.860532 0.338654 0.076594
H67   H     H_    0.600486 0.642570 0.823469 0.071012
H68   H     H_    0.512698 0.403172 0.396213 0.108861
H69   H     H_    0.075791 0.374743 0.644055 0.069963
H70   H     H_    0.075355 0.626105 0.144980 0.069407
H71   H     H_    0.575147 0.873134 0.644266 0.068460
H72   H     H_    0.574465 0.127229 0.147397 0.070635
H73   H     H_    0.819434 0.805599 0.268101 0.073018
H74   H     H_    0.716319 0.495337 0.612195 0.127503
H75   H     H_    0.818528 0.195279 0.770086 0.069097
H76   H     H_    0.318681 0.304967 0.268498 0.072697
H77   H     H_    0.317762 0.695789 0.770359 0.062891
H78   H     H_    0.926177 0.626964 0.164391 0.071498
H79   H     H_    0.926941 0.372101 0.662958 0.065088
H80   H     H_    0.426688 0.127430 0.162519 0.072644
H81   H     H_    0.428341 0.870734 0.659180 0.059770
H82   H     H_    0.238164 0.349420 0.078110 0.098927
H83   H     H_    0.237318 0.651457 0.579583 0.096923
H84   H     H_    0.738251 0.849508 0.078036 0.103333
H85   H     H_    0.721283 0.478037 0.112198 0.097085
H86   H     H_    0.737798 0.151087 0.579938 0.102447
H87   H     H_    0.763274 0.650532 0.735849 0.143227
H88   H     H_    0.766862 0.346499 0.229531 0.096986
H89   H     H_    0.263411 0.150864 0.734998 0.118628
H90   H     H_    0.263330 0.849375 0.235020 0.089821
H91   H     H_    0.990835 0.098941 0.456614 0.115859
H92   H     H_    0.985549 0.901719 0.944327 0.098192
H93   H     H_    0.480041 0.592087 0.372830 0.077307
H94   H     H_    0.490015 0.396659 0.984229 0.100719
H95   H     H_    0.057837 0.229584 0.018680 0.100678
H96   H     H_    0.225686 0.917220 0.616419 0.070446
H97   H     H_    0.056104 0.775111 0.519036 0.093436
H98   H     H_    0.556943 0.735781 0.994225 0.093502
H99   H     H_    0.546911 0.260738 0.509534 0.094007
H100  H     H_    0.034534 0.244945 0.813601 -0.063133
H101  H     H_    0.030765 0.759312 0.315290 -0.073583
H102  H     H_    0.525489 0.736496 0.790956 -0.128412
H103  H     H_    0.520393 0.285128 0.309061 -0.053427
H104  H     H_    0.028535 0.124628 0.756505 0.100217
H105  H     H_    0.017520 0.877954 0.258925 0.096515
H106  H     H_    0.516919 0.611853 0.795202 0.103136
H107  H     H_    0.220812 0.967001 0.104504 0.063994
H108  H     H_    0.537685 0.379554 0.596532 0.174507
H109  H     H_    0.833576 0.476989 0.680076 0.036948
H110  H     H_    0.830368 0.525462 0.189389 -0.025663
H111  H     H_    0.325362 0.980983 0.671191 0.066040
H112  H     H_    0.326704 0.020458 0.179068 -0.002550
H113  H     H_    0.636854 0.425686 0.757681 0.194620
H114  H     H_    0.663659 0.495400 0.847402 0.184934
H115  H     H_    0.656064 0.572636 0.321374 0.183704
H116  H     H_    0.626479 0.503205 0.234266 0.165018
H117  H     H_    0.140691 0.999443 0.632359 0.174132
H118  H     H_    0.733705 0.407164 0.627066 0.073826
H119  H     H_    0.212065 0.033881 0.575107 0.228167
H120  H     H_    0.152429 0.058720 0.318699 0.191085
H121  H     H_    0.122394 0.992589 0.218357 0.163271
H122  H     H_    0.870631 0.157784 0.296386 0.189533
H123  H     H_    0.938392 0.131291 0.201616 0.236369
H124  H     H_    0.896551 0.920137 0.763578 0.168353
H125  H     H_    0.873174 0.840086 0.761713 0.193403
H126  H     H_    0.413190 0.661339 0.215594 0.246017
H127  H     H_    0.361794 0.617822 0.328454 0.168039
H128  H     H_    0.412609 0.434605 0.790676 0.170731
N1    N     N_3   0.678393 0.447587 0.813649 -0.503980
N2    N     N_3   0.182867 0.816844 0.009385 -0.494018
N3    N     N_3   0.688226 0.682382 0.513669 -0.495114
N4    N     N_3   0.689974 0.311437 0.999122 -0.473631
N5    N     N_3   0.819199 0.412285 0.871936 -0.524491
N6    N     N_3   0.794086 0.588076 0.369285 -0.463093
N7    N     N_3   0.323507 0.913420 0.862238 -0.551142
N8    N     N_3   0.287145 0.087301 0.343557 -0.505683
N9    N     N_3   0.668062 0.523606 0.293327 -0.492933
N10   N     N_3   0.188363 0.012998 0.671822 -0.489856
N11   N     N_3   0.163999 0.010318 0.282539 -0.494019
N12   N     N_3   0.909968 0.123676 0.301885 -0.498378
N13   N     N_3   0.914706 0.871323 0.768423 -0.457336
N14   N     N_3   0.397116 0.655949 0.331950 -0.481881
N15   N     N_3   0.427553 0.384957 0.779340 -0.470826
N16   N     N_3   0.185948 0.185947 0.505115 -0.487611
O1    O     O_2   0.130070 0.404060 0.104920 -0.470210
O2    O     O_3   0.957452 0.795505 0.467306 -0.581518
O3    O     O_3   0.459425 0.705234 0.963453 -0.609479
O4    O     O_3   0.450156 0.294280 0.484531 -0.596604
O5    O     O_3   0.924190 0.533610 0.949240 -0.492720
O6    O     O_3   0.924190 0.466390 0.449240 -0.486569
O7    O     O_3   0.424190 0.033610 0.949240 -0.494265
O8    O     O_3   0.424190 0.966390 0.449240 -0.486317
O9    O     O_3   0.075780 0.466370 0.861070 -0.493506
O10   O     O_3   0.075780 0.533630 0.361070 -0.492460
O11   O     O_3   0.575780 0.966370 0.861070 -0.494765
O12   O     O_2   0.130070 0.595940 0.604920 -0.470548
O13   O     O_3   0.575780 0.033630 0.361070 -0.493393
O14   O     O_3   0.022320 0.344950 0.359800 -0.484835
O15   O     O_3   0.022320 0.655050 0.859800 -0.487232
O16   O     O_3   0.522320 0.844950 0.359800 -0.459100
O17   O     O_3   0.522320 0.155050 0.859800 -0.490591
O18   O     O_2   0.128529 0.288598 0.238961 -0.482580
O19   O     O_2   0.128934 0.710949 0.741350 -0.485616
O20   O     O_2   0.628185 0.789834 0.238141 -0.497253
O21   O     O_2   0.628983 0.210691 0.738767 -0.481085
O22   O     O_3   0.206438 0.478276 0.940183 -0.640039
O23   O     O_2   0.630070 0.904060 0.104920 -0.466705
O24   O     O_3   0.206822 0.522016 0.439666 -0.640115
O25   O     O_3   0.706656 0.977956 0.939874 -0.639636
O26   O     O_3   0.706526 0.021618 0.440529 -0.634691
O27   O     O_3   0.039373 0.206501 0.347323 -0.592874
O28   O     O_3   0.038843 0.793504 0.842932 -0.583005
O29   O     O_3   0.536924 0.707970 0.333936 -0.593758
O30   O     O_3   0.540943 0.293699 0.846802 -0.589090
O31   O     O_2   0.869860 0.403670 0.205810 -0.490854
O32   O     O_2   0.869860 0.596330 0.705810 -0.464400
O33   O     O_2   0.369860 0.903670 0.205810 -0.487093
O34   O     O_2   0.630070 0.095940 0.604920 -0.470756
O35   O     O_2   0.369860 0.096330 0.705810 -0.462507
O36   O     O_3   0.977590 0.344880 0.951200 -0.483804
O37   O     O_3   0.977590 0.655120 0.451200 -0.484182
O38   O     O_3   0.477590 0.844880 0.951200 -0.481022
O39   O     O_3   0.477590 0.155120 0.451200 -0.487169
O40   O     O_2   0.872265 0.285013 0.068022 -0.485982
O41   O     O_2   0.869110 0.711120 0.564866 -0.471552
O42   O     O_2   0.370183 0.787820 0.066475 -0.467976
O43   O     O_2   0.364711 0.204549 0.557882 -0.484943
O44   O     O_3   0.790654 0.473460 0.381761 -0.648673
O45   O     O_3   0.791512 0.525141 0.873536 -0.668195
O46   O     O_3   0.290548 0.973821 0.382935 -0.647296
O47   O     O_3   0.291723 0.024842 0.878771 -0.652971
O48   O     O_3   0.961455 0.203651 0.956801 -0.611205
P1    P     P_3+3 0.136530 0.426510 0.931350 0.971492
P2    P     P_3+3 0.918864 0.718887 0.429092 0.967003
P3    P     P_3+3 0.419078 0.781186 0.928469 0.966816
P4    P     P_3+3 0.416762 0.217135 0.429917 0.942483
P5    P     P_3+3 0.080654 0.718253 0.880326 0.978015
P6    P     P_3+3 0.081124 0.282078 0.379870 0.978196
P7    P     P_3+3 0.581612 0.217521 0.879681 0.978227
P8    P     P_3+3 0.580647 0.781426 0.378120 0.944317
P9    P     P_3+3 0.136530 0.573490 0.431350 0.972749
P10   P     P_3+3 0.636530 0.926510 0.931350 0.973118
P11   P     P_3+3 0.636530 0.073490 0.431350 0.974332
P12   P     P_3+3 0.863410 0.426100 0.379280 0.951472
P13   P     P_3+3 0.863410 0.573900 0.879280 0.952356
P14   P     P_3+3 0.363410 0.926100 0.379280 0.956964
P15   P     P_3+3 0.363410 0.073900 0.879280 0.955713
P16   P     P_3+3 0.920349 0.279972 0.927971 0.951057

loop_
_geom_bond_atom_site_label_1
_geom_bond_atom_site_label_2
_ccdc_geom_bond_type
C29   C51   A    
C75   H43   S    
C30   C52   A    
Ba2   O37   S    
C23   H62   S    
O38   P3    S    
C9    C14   A    
C74   O26   S    
C43   H99   S    
C29   C84   A    
C72   H35   S    
C42   H102  S    
C70   H107  S    
C25   C29   A    
C36   C44   A    
C33   C38   A    
C5    C9    A    
C4    H72   S    
C7    C11   A    
C90   H17   S    
C61   C92   S    
C34   H94   S    
C19   C85   A    
C64   N7    S    
C65   O46   S    
H32   N8    S    
H5    N16   S    
C76   H53   S    
C42   O3    S    
O3    P3    S    
C11   C16   A    
C40   H100  S    
C66   H118  S    
C24   C28   A    
C12   H92   S    
C65   N8    S    
C13   C17   A    
C80   O27   S    
H125  N13   S    
Ba4   P15   S    
C23   C82   S    
C15   C19   A    
Ba3   O13   S    
C62   N5    S    
C27   C86   A    
O9    P1    S    
C64   H111  S    
Ba1   P1    S    
C65   C70   S    
C69   N10   S    
C6    P5    S    
C12   C81   S    
Ba3   O8    S    
C51   H76   S    
Ba1   O14   S    
O8    P14   S    
C1    C80   S    
C65   H112  S    
O7    P15   S    
C10   C15   A    
C20   C86   A    
C88   H15   S    
C24   C54   A    
O43   P4    D    
C70   H24   S    
C34   C83   S    
H30   N7    S    
C82   H58   S    
C38   H80   S    
O34   P11   D    
C36   H78   S    
C62   C66   S    
C15   C57   A    
C13   N4    S    
C41   C59   S    
C31   C36   A    
C47   C51   A    
C66   H74   S    
C22   C53   A    
O2    P2    S    
C58   H104  S    
C22   C31   A    
C26   C57   A    
H120  N11   S    
Ba1   O5    S    
C45   C89   A    
C71   C75   S    
C23   N14   S    
Ba1   P12   S    
H121  N11   S    
C71   H38   S    
C91   H21   S    
C59   C90   S    
O25   P10   S    
C92   H25   S    
Ba2   O5    S    
O31   P12   D    
C43   O4    S    
C39   C48   A    
C58   H65   S    
C41   H101  S    
C63   C68   S    
O23   P10   D    
C88   H12   S    
C75   H47   S    
C83   H63   S    
C76   H48   S    
C8    P7    S    
C72   O24   S    
C43   H103  S    
C72   H39   S    
C42   H98   S    
C44   C49   A    
C86   H84   S    
O11   P10   S    
C26   C30   A    
O33   P14   D    
C46   P16   S    
C6    C10   A    
Ba2   O9    S    
C62   H109  S    
O1    P1    D    
H115  N9    S    
O45   P13   S    
Ba4   O7    S    
C64   O47   S    
C91   H20   S    
C4    C8    A    
O19   P5    D    
O21   P7    D    
C87   H86   S    
Ba2   P9    S    
C25   C33   A    
Ba3   Ba4   S    
O5    P13   S    
H26   N5    S    
C17   C21   A    
C59   H105  S    
O26   P11   S    
C14   C18   A    
Ba4   O35   S    
O12   P9    D    
C72   C76   S    
C82   O29   S    
C82   H52   S    
C84   H82   S    
Ba1   O31   S    
Ba2   O32   S    
Ba3   O23   S    
O22   P1    S    
C30   C85   A    
C34   H64   S    
C17   C54   A    
C88   H14   S    
C56   P9    S    
C90   H16   S    
C26   C35   A    
H4    N16   S    
H9    N3    S    
O13   P11   S    
C69   H96   S    
C44   P2    S    
C14   C55   A    
O39   P4    S    
C25   C55   A    
C48   P3    S    
C70   N11   S    
C41   O2    S    
C2    H70   S    
Ba4   O17   S    
C92   H23   S    
Ba2   O15   S    
H33   N8    S    
C46   C50   A    
H113  N1    S    
C35   P14   S    
C4    C78   A    
C80   H1    S    
C68   H85   S    
C10   N2    S    
C83   O30   S    
C32   P12   S    
C31   P13   S    
H6    N2    S    
C68   N9    S    
C54   H88   S    
Ba3   O16   S    
Ba1   O36   S    
C3    H71   S    
C74   C79   S    
O20   P8    D    
C1    N12   S    
C8    C13   A    
C73   H40   S    
C18   C84   A    
Ba3   P14   S    
C71   H34   S    
C49   H73   S    
O41   P2    D    
H3    N15   S    
C37   H79   S    
C81   O28   S    
C32   C37   A    
H119  N10   S    
Ba3   O7    S    
C60   H67   S    
H123  N12   S    
C28   C50   A    
Ba3   O33   S    
C79   H55   S    
C41   H97   S    
O16   P8    S    
C78   P11   S    
C75   H51   S    
C76   H44   S    
O44   P12   S    
Ba2   O12   S    
C79   H50   S    
C73   C77   S    
O10   P9    S    
C63   H110  S    
C21   C78   A    
H10   N4    S    
H124  N13   S    
C1    H91   S    
H117  N10   S    
C81   H41   S    
C37   C46   A    
H8    N3    S    
C39   H81   S    
C12   H61   S    
O46   P14   S    
Ba4   O11   S    
C63   O44   S    
O32   P13   D    
C2    C6    A    
C69   H13   S    
C1    H60   S    
C52   H77   S    
Ba4   O34   S    
Ba2   O6    S    
H122  N12   S    
C47   P4    S    
C61   H108  S    
C73   O25   S    
Ba2   P13   S    
C74   H37   S    
O17   P7    S    
O42   P3    D    
C24   C32   A    
C11   N3    S    
Ba4   O39   S    
C59   H66   S    
O27   P6    S    
C45   P1    S    
C66   N1    S    
O15   P5    S    
H116  N9    S    
C90   H18   S    
C68   H2    S    
H7    N2    S    
C3    C7    A    
C92   H22   S    
Ba1   O6    S    
C40   H95   S    
C3    C67   A    
O35   P15   D    
C28   C87   A    
C77   H54   S    
Ba1   Ba2   S    
O28   P5    S    
Ba4   O8    S    
O29   P8    S    
O30   P7    S    
O4    P4    S    
C16   C20   A    
C63   N6    S    
C91   H19   S    
C58   C88   S    
C55   H89   S    
Ba4   P11   S    
C38   C47   A    
C77   H45   S    
C34   N15   S    
C71   O22   S    
C89   H69   S    
C22   C27   A    
O47   P15   S    
O48   P16   S    
C74   H42   S    
C5    P6    S    
C9    N16   S    
C19   C56   A    
C40   O48   S    
C21   C87   A    
O40   P16   D    
C2    C56   A    
O24   P9    S    
H29   N6    S    
Ba1   O10   S    
Ba3   O38   S    
C35   C39   A    
O37   P2    S    
C40   C58   S    
C64   C69   S    
H126  N14   S    
C42   C60   S    
C73   H36   S    
Ba3   P10   S    
O18   P6    D    
H27   N5    S    
O6    P12   S    
H11   N4    S    
H31   N7    S    
C81   H57   S    
C27   C49   A    
O36   P16   S    
Ba1   O1    S    
C80   H56   S    
C12   N13   S    
C77   H49   S    
C18   C45   A    
H114  N1    S    
C83   H59   S    
C5    C89   A    
C53   H87   S    
C60   H106  S    
C50   H75   S    
C62   O45   S    
C60   C91   S    
O14   P6    S    
H127  N14   S    
C79   H46   S    
C33   P15   S    
C67   P10   S    
C61   H68   S    
C57   H90   S    
C85   H83   S    
H128  N15   S    
C7    P8    S    
C23   H93   S    
C16   C53   A    
C43   C61   S    
H28   N6    S    
C48   C52   A    
C20   C67   A    
