data_mof_unit_13302.cif
_audit_creation_date              2012-10-26T18:32:19-0400
_audit_creation_method            fapswitch 2.2
_symmetry_space_group_name_H-M    P1
_symmetry_Int_Tables_number       1
_space_group_crystal_system       triclinic
_cell_length_a                    12.496234
_cell_length_b                    13.16602
_cell_length_c                    15.922408
_cell_angle_alpha                 74.283105
_cell_angle_beta                  100.315819
_cell_angle_gamma                 116.875986
_cell_volume                      2244.42965801

loop_
_atom_site_label
_atom_site_type_symbol
_atom_type_description
_atom_site_fract_x
_atom_site_fract_y
_atom_site_fract_z
_atom_type_partial_charge
C1    C     C_R   0.855879 0.286654 0.503597 0.595870
C2    C     C_R   0.227413 0.840336 0.478581 0.018691
C3    C     C_R   0.812520 0.073154 0.532464 0.189349
C4    C     C_R   0.000949 0.501313 0.659236 0.581056
C5    C     C_R   0.729681 0.958346 0.558612 -0.049268
C6    C     C_R   0.606967 0.928369 0.551561 0.189659
C7    C     C_R   0.562638 0.011388 0.502759 0.035197
C8    C     C_R   0.647496 0.128890 0.475662 -0.025963
C9    C     C_R   0.437875 0.984122 0.482233 0.047434
C10   C     C_R   0.399301 0.074554 0.451460 0.061689
C11   C     C_R   0.484226 0.188904 0.420279 0.001745
C12   C     C_3   0.067012 0.422014 0.076161 0.199226
C13   C     C_R   0.604752 0.210537 0.424413 -0.050367
C14   C     C_R   0.350988 0.869857 0.484688 -0.068275
C15   C     C_R   0.189530 0.930706 0.463516 -0.010978
C16   C     C_R   0.144574 0.714761 0.487940 0.548223
C17   C     C_R   0.772725 0.162259 0.500680 0.015616
C18   C     C_R   0.347605 0.333215 0.650286 0.204886
C19   C     C_R   0.760945 0.654000 0.382009 0.140327
C20   C     C_R   0.688242 0.712301 0.377776 -0.013827
C21   C     C_R   0.594214 0.661668 0.432097 -0.048792
C22   C     C_R   0.566545 0.552330 0.487162 -0.036076
C23   C     C_3   0.008384 0.506260 0.084498 0.002249
C24   C     C_R   0.658410 0.510330 0.506562 0.132897
C25   C     C_R   0.455786 0.489372 0.530870 -0.045703
C26   C     C_R   0.454670 0.408369 0.609332 -0.016020
C27   C     C_R   0.561417 0.401555 0.644768 0.014920
C28   C     C_R   0.001787 0.502175 0.340754 0.545248
C29   C     C_R   0.648330 0.426616 0.589045 0.255835
C30   C     C_R   0.345673 0.500567 0.500352 0.365726
C31   C     C_R   0.245746 0.353821 0.623017 0.141343
C32   C     C_3   0.048312 0.412255 0.977720 0.166357
C33   C     C_3   0.873911 0.472366 0.939730 0.164894
C34   C     C_3   0.086981 0.635513 0.031913 0.403582
C35   C     C_3   0.871462 0.460959 0.042683 0.178916
C36   C     C_1   0.005976 0.505428 0.251579 0.059821
C37   C     C_3   0.006749 0.505891 0.917389 -0.044477
C38   C     C_3   0.017792 0.297074 0.135988 -0.291509
C39   C     C_3   0.059611 0.907926 0.461407 -0.342773
C40   C     C_3   0.448510 0.287590 0.377961 -0.364523
C41   C     C_3   0.140410 0.281747 0.680296 -0.226597
C42   C     C_3   0.589324 0.379452 0.742492 -0.241552
C43   C     C_3   0.842841 0.693326 0.308929 -0.308917
C44   C     C_3   0.708362 0.828336 0.316324 -0.371182
C45   C     C_3   0.093918 0.630092 0.935546 0.133876
C46   C     C_3   0.827600 0.562167 0.881077 -0.363764
C47   C     C_3   0.795318 0.517940 0.063134 -0.282945
C48   C     C_1   0.009446 0.507008 0.176563 0.078211
C49   C     C_1   0.006605 0.505924 0.824313 0.081588
C50   C     C_1   0.003740 0.504226 0.748726 0.078298
C51   C     C_R   0.275885 0.046874 0.446745 -0.073340
Cl1   Cl    Cl    0.171041 0.404655 0.938586 -0.424504
Cl2   Cl    Cl    0.783585 0.312385 0.098888 -0.566655
Cl3   Cl    Cl    0.244410 0.677622 0.905697 -0.323267
Cl4   Cl    Cl    0.232384 0.709167 0.085435 -0.280705
Cl5   Cl    Cl    0.224959 0.476532 0.112624 -0.390514
Cl6   Cl    Cl    0.030645 0.739794 0.028963 -0.571349
Cl7   Cl    Cl    0.964660 0.098428 0.543147 -0.646359
Cl8   Cl    Cl    0.520486 0.792300 0.618018 -0.569321
Cl9   Cl    Cl    0.334930 0.202883 0.728322 -0.527420
Cl10  Cl    Cl    0.328804 0.582786 0.395394 -0.543571
Cl11  Cl    Cl    0.711489 0.326001 0.631869 -0.538243
Cl12  Cl    Cl    0.772528 0.336237 0.907460 -0.526674
Cu1   Cu    Cu3+1 0.098280 0.475420 0.519630 1.095480
Cu2   Cu    Cu3+1 0.901720 0.524580 0.480370 0.972081
H1    H     H_    0.245625 0.115495 0.428721 0.136286
H2    H     H_    0.935443 0.232961 0.108135 0.185402
H3    H     H_    0.020149 0.849451 0.523515 0.181562
H4    H     H_    0.049618 0.989606 0.453380 0.183339
H5    H     H_    0.008445 0.869024 0.405081 0.130698
H6    H     H_    0.527305 0.370657 0.355435 0.150535
H7    H     H_    0.384735 0.265896 0.320338 0.167709
H8    H     H_    0.405660 0.302728 0.425854 0.153398
H9    H     H_    0.058870 0.293961 0.658987 0.192977
H10   H     H_    0.112414 0.187476 0.686043 0.214156
H11   H     H_    0.168202 0.300598 0.746745 0.173412
H12   H     H_    0.379656 0.803637 0.485926 0.200024
H13   H     H_    0.682928 0.440634 0.755580 0.156257
H14   H     H_    0.531805 0.397023 0.777065 0.179112
H15   H     H_    0.579768 0.288837 0.768815 0.276530
H16   H     H_    0.844333 0.771574 0.260084 0.109031
H17   H     H_    0.937274 0.716417 0.333237 0.175998
H18   H     H_    0.809660 0.623789 0.271474 0.156599
H19   H     H_    0.687434 0.817796 0.247593 0.185088
H20   H     H_    0.649918 0.865328 0.328723 0.160022
H21   H     H_    0.803027 0.892412 0.325221 0.131515
H22   H     H_    0.840390 0.576144 0.811129 0.134206
H23   H     H_    0.761882 0.892449 0.590264 0.186273
H24   H     H_    0.730053 0.530978 0.887447 0.182362
H25   H     H_    0.874765 0.649335 0.896648 0.153028
H26   H     H_    0.813842 0.607405 0.027510 0.167708
H27   H     H_    0.698495 0.468219 0.044845 0.204318
H28   H     H_    0.802142 0.516193 0.133934 0.151509
H29   H     H_    0.975212 0.325765 0.971861 0.189522
H30   H     H_    0.664772 0.292722 0.386916 0.153148
H31   H     H_    0.544825 0.710619 0.433114 0.181665
H32   H     H_    0.066580 0.695254 0.889114 0.157355
H33   H     H_    0.082454 0.257883 0.144562 0.184012
H34   H     H_    0.002481 0.298109 0.202197 0.161941
N1    N     N_R   0.246300 0.438200 0.549400 -0.226416
N2    N     N_R   0.754300 0.561180 0.451130 -0.235911
O1    O     O_R   0.972520 0.318130 0.524690 -0.467069
O2    O     O_R   0.806530 0.359650 0.491530 -0.463749
O3    O     O_R   0.083030 0.479240 0.637150 -0.506782
O4    O     O_R   0.917040 0.520750 0.603990 -0.461637
O5    O     O_R   0.193470 0.640350 0.508470 -0.452455
O6    O     O_R   0.027480 0.681870 0.475310 -0.534614
O7    O     O_R   0.082960 0.479250 0.396010 -0.420846
O8    O     O_R   0.916970 0.520760 0.362850 -0.552081

loop_
_geom_bond_atom_site_label_1
_geom_bond_atom_site_label_2
_ccdc_geom_bond_type
C32   H29   S    
C42   H15   S    
C8    C13   A    
C40   H6    S    
C35   Cl2   S    
C43   H18   S    
C39   H3    S    
C19   C20   A    
C18   C26   A    
Cu2   N2    S    
C38   H33   S    
C35   C47   S    
C7    C8    A    
C46   H24   S    
Cu1   O1    S    
C12   C23   S    
C26   C27   A    
C13   H30   S    
C5    C6    A    
C27   C29   A    
C30   N1    A    
C11   C13   A    
C40   H8    S    
C7    C9    A    
C24   N2    A    
C47   H27   S    
C14   H12   S    
C24   C29   A    
C32   Cl1   S    
C16   O6    A    
C41   H9    S    
C5    H23   S    
C22   C25   A    
C34   Cl6   S    
C36   C48   T    
C15   C51   A    
C2    C16   S    
C9    C10   A    
C1    O2    A    
C16   O5    A    
C34   Cl4   S    
C21   C22   A    
C12   C32   S    
C33   C46   S    
C44   H21   S    
C10   C51   A    
Cu2   O4    S    
C20   C44   S    
C19   C43   S    
Cu1   O7    S    
C47   H28   S    
C3    C5    A    
C25   C26   A    
C31   N1    A    
C33   C37   S    
C4    C50   S    
C51   H1    S    
C9    C14   A    
C41   H10   S    
C37   C49   S    
Cu1   N1    S    
C33   Cl12  S    
C23   C34   S    
C15   C39   S    
C39   H4    S    
C34   C45   S    
C31   C41   S    
C32   C37   S    
C38   H2    S    
C2    C15   A    
Cu2   O8    S    
C12   Cl5   S    
C18   Cl9   S    
C45   Cl3   S    
C42   H13   S    
C23   C35   S    
C43   H16   S    
C22   C24   A    
Cu2   O2    S    
C37   C45   S    
C44   H20   S    
C46   H22   S    
C25   C30   A    
Cu1   O3    S    
C29   Cl11  S    
C23   C48   S    
C40   H7    S    
C47   H26   S    
C6    Cl8   S    
C38   H34   S    
C44   H19   S    
Cu1   O5    S    
C6    C7    A    
C46   H25   S    
C21   H31   S    
C28   O8    A    
C4    O4    A    
C1    C17   S    
C8    C17   A    
Cu1   Cu2   S    
C45   H32   S    
C41   H11   S    
C19   N2    A    
C27   C42   S    
C28   O7    A    
C4    O3    A    
C33   C35   S    
C39   H5    S    
C3    C17   A    
C12   C38   S    
C11   C40   S    
C2    C14   A    
C10   C11   A    
C3    Cl7   S    
C42   H14   S    
C20   C21   A    
C28   C36   S    
C49   C50   T    
C30   Cl10  S    
C43   H17   S    
C18   C31   A    
C1    O1    A    
Cu2   O6    S    
