data_mof_unit_46851.cif
_audit_creation_date              2012-12-10T17:57:50-0500
_audit_creation_method            fapswitch 2.2
_symmetry_space_group_name_H-M    P1
_symmetry_Int_Tables_number       1
_space_group_crystal_system       triclinic
_cell_length_a                    10.95118
_cell_length_b                    9.61967
_cell_length_c                    15.065634
_cell_angle_alpha                 90.77734
_cell_angle_beta                  91.654293
_cell_angle_gamma                 89.663608
_cell_volume                      1586.28405296

loop_
_atom_site_label
_atom_site_type_symbol
_atom_type_description
_atom_site_fract_x
_atom_site_fract_y
_atom_site_fract_z
_atom_type_partial_charge
C1    C     C_R   0.261831 0.501490 0.497351 0.930654
C2    C     C_R   0.737298 0.500554 0.499321 0.931353
C3    C     C_R   0.319585 0.352046 0.044211 0.321937
C4    C     C_R   0.730009 0.547769 0.960762 0.410399
C5    C     C_R   0.060670 0.380745 0.498209 0.245461
C6    C     C_R   0.932730 0.626385 0.471839 0.323535
C7    C     C_R   0.939679 0.386468 0.522108 0.274770
C8    C     C_R   0.058838 0.634956 0.493231 0.231885
C9    C     C_R   0.870650 0.504302 0.497468 -0.350877
C10   C     C_R   0.126785 0.506652 0.495837 -0.382256
C11   C     C_R   0.455647 0.073461 0.428167 0.499424
C12   C     C_R   0.551876 0.927415 0.569537 0.369301
C13   C     C_R   0.546982 0.075810 0.571285 0.490631
C14   C     C_R   0.449764 0.925554 0.429979 0.347349
C15   C     C_R   0.507257 0.498157 0.329390 0.858217
C16   C     C_R   0.499226 0.500450 0.671161 0.887761
C17   C     C_R   0.612021 0.535950 0.816075 0.390016
C18   C     C_R   0.401723 0.464687 0.182413 0.426485
C19   C     C_R   0.503022 0.498861 0.768709 -0.262611
C20   C     C_R   0.510732 0.490592 0.232599 -0.251408
C21   C     C_R   0.400923 0.449193 0.813508 0.372802
C22   C     C_R   0.623509 0.485643 0.189461 0.315869
C23   C     C_R   0.411555 0.423483 0.905525 -0.065726
C24   C     C_R   0.621400 0.508594 0.097275 -0.148058
C25   C     C_R   0.516401 0.470814 0.953835 -0.120482
C26   C     C_R   0.516103 0.470008 0.047309 -0.090941
C27   C     C_R   0.620863 0.518408 0.909393 -0.096976
C28   C     C_R   0.410319 0.429248 0.091653 -0.046087
C29   C     C_R   0.321637 0.348326 0.950547 0.348214
C30   C     C_R   0.725387 0.555682 0.053710 0.378451
Cu1   Cu    Cu3+1 0.500000 0.640660 0.500000 1.063298
Cu2   Cu    Cu3+1 0.500000 0.359340 0.500000 1.168622
N1    N     N_R   0.500000 0.852070 0.500000 -0.290567
N2    N     N_R   0.500000 0.147930 0.500000 -0.252141
O1    O     O_R   0.319640 0.618740 0.499990 -0.552685
O2    O     O_R   0.680360 0.381260 0.500010 -0.509704
O3    O     O_R   0.680360 0.618740 0.500010 -0.577914
O4    O     O_R   0.319640 0.381260 0.499990 -0.497961
O5    O     O_R   0.499970 0.618800 0.370260 -0.591113
O6    O     O_R   0.500030 0.381200 0.629740 -0.513072
O7    O     O_R   0.500030 0.618800 0.629740 -0.547006
O8    O     O_R   0.499970 0.381200 0.370260 -0.483368
O9    O     O_3   0.705319 0.602781 0.774188 -0.611616
H1    H     H_    0.703086 0.582109 0.709819 0.334003
O10   O     O_3   0.287289 0.473773 0.218861 -0.634612
H2    H     H_    0.292911 0.518308 0.278382 0.313401
S1    S     S_3+6 0.254901 0.447274 0.757207 0.073216
O11   O     O_2   0.236807 0.310190 0.709801 -0.191163
O12   O     O_2   0.153681 0.471615 0.820924 -0.242340
O13   O     O_3   0.246050 0.575233 0.683661 -0.515081
H3    H     H_    0.157432 0.594830 0.676494 0.397865
S2    S     S_3+6 0.751825 0.392101 0.236001 0.067912
O14   O     O_2   0.809224 0.307882 0.163292 -0.190921
O15   O     O_2   0.846716 0.488749 0.274924 -0.246872
O16   O     O_3   0.709455 0.281655 0.314707 -0.509780
H4    H     H_    0.786755 0.241471 0.338914 0.394999
O17   O     O_3   0.245552 0.259953 0.902334 -0.582092
H5    H     H_    0.163232 0.266225 0.927752 0.403336
O18   O     O_3   0.821922 0.616696 0.100275 -0.588487
H6    H     H_    0.790237 0.662158 0.154415 0.359601
S3    S     S_3+6 0.220529 0.237620 0.100377 0.093431
O19   O     O_2   0.277476 0.195963 0.187768 -0.217589
O20   O     O_2   0.101289 0.310860 0.115896 -0.172634
O21   O     O_3   0.193962 0.091216 0.040646 -0.482959
H7    H     H_    0.133518 0.039265 0.074686 0.402155
S4    S     S_3+6 0.877675 0.560924 0.914228 0.152492
O22   O     O_2   0.890517 0.456536 0.839958 -0.199705
O23   O     O_2   0.893737 0.705207 0.879338 -0.195240
O24   O     O_3   0.988607 0.528746 0.991083 -0.414035
H8    H     H_    0.060690 0.580961 0.971899 0.386307
S5    S     S_3+6 0.112260 0.223040 0.449370 0.150761
O25   O     O_2   0.194772 0.147158 0.513931 -0.194070
O26   O     O_2   0.006679 0.130967 0.422794 -0.165921
O27   O     O_3   0.188261 0.260807 0.357779 -0.433269
H9    H     H_    0.127638 0.309530 0.319099 0.385054
S6    S     S_3+6 0.859151 0.763854 0.409506 0.123971
O28   O     O_2   0.809575 0.871276 0.472293 -0.225759
O29   O     O_2   0.948664 0.831121 0.350092 -0.167170
O30   O     O_3   0.742329 0.706285 0.344632 -0.513231
H10   H     H_    0.706539 0.790653 0.317018 0.367893
S7    S     S_3+6 0.886258 0.256944 0.594157 0.134952
O31   O     O_2   0.815977 0.148939 0.541527 -0.190365
O32   O     O_2   0.992616 0.188341 0.641692 -0.156287
O33   O     O_3   0.795555 0.331187 0.669630 -0.523035
H11   H     H_    0.796169 0.266025 0.719974 0.402135
S8    S     S_3+6 0.118526 0.804803 0.521439 0.121559
O34   O     O_2   0.157879 0.872966 0.438149 -0.198208
O35   O     O_2   0.019342 0.891523 0.561511 -0.138322
O36   O     O_3   0.236102 0.807594 0.595639 -0.470278
H12   H     H_    0.261109 0.906247 0.600354 0.382033
O37   O     O_3   0.412792 0.144244 0.354992 -0.574872
H13   H     H_    0.409731 0.080568 0.302888 0.388290
O38   O     O_3   0.612329 0.862205 0.638562 -0.669279
H14   H     H_    0.658862 0.784447 0.612877 0.382122
O39   O     O_3   0.595995 0.149569 0.642593 -0.636967
H15   H     H_    0.615220 0.087194 0.692818 0.366697
O40   O     O_3   0.390770 0.859332 0.359832 -0.677311
H16   H     H_    0.347710 0.779237 0.383736 0.389803

loop_
_geom_bond_atom_site_label_1
_geom_bond_atom_site_label_2
_ccdc_geom_bond_type
S4    O23   D    
O16   H4    S    
O38   H14   S    
O39   H15   S    
S6    O30   S    
C4    C27   A    
C14   N1    A    
S7    O31   D    
S1    O12   D    
O10   H2    S    
C13   O39   S    
Cu2   O2    S    
C3    C28   A    
C19   C21   A    
C24   C26   A    
C11   C14   A    
S8    O35   D    
S4    O24   S    
S3    O20   D    
C3    C29   A    
S1    O11   D    
Cu1   N1    S    
Cu2   O4    S    
C18   C20   A    
S2    O16   S    
C23   C25   A    
S4    O22   D    
O18   H6    S    
O24   H8    S    
C6    C9    A    
S7    O32   D    
S2    O15   D    
O40   H16   S    
S1    O13   S    
C3    S3    S    
C15   C20   S    
O27   H9    S    
S6    O29   D    
C17   C27   A    
C18   C28   A    
O33   H11   S    
O37   H13   S    
C5    C7    A    
S8    O34   D    
C6    C8    A    
C25   C26   A    
Cu1   O3    S    
Cu2   N2    S    
S3    O21   S    
O9    H1    S    
C17   O9    S    
Cu1   Cu2   S    
C30   O18   S    
O13   H3    S    
S6    O28   D    
C15   O5    A    
C1    O4    A    
C16   O6    A    
C7    S7    S    
C20   C22   A    
C21   C23   A    
C22   C24   A    
C12   O38   S    
C18   O10   S    
C23   C29   A    
S7    O33   S    
S2    O14   D    
C1    O1    A    
C14   O40   S    
C22   S2    S    
C2    O2    A    
C7    C9    A    
Cu1   O7    S    
C11   N2    A    
C1    C10   S    
C15   O8    A    
C29   O17   S    
S8    O36   S    
S5    O27   S    
C6    S6    S    
C25   C27   A    
C26   C28   A    
O21   H7    S    
C12   N1    A    
C13   N2    A    
C5    S5    S    
C4    S4    S    
C2    O3    A    
O17   H5    S    
C16   C19   S    
Cu1   O1    S    
C17   C19   A    
Cu1   O5    S    
C8    S8    S    
Cu2   O6    S    
S3    O19   D    
C24   C30   A    
O30   H10   S    
C11   O37   S    
C5    C10   A    
S5    O25   D    
C12   C13   A    
C8    C10   A    
S5    O26   D    
Cu2   O8    S    
O36   H12   S    
C2    C9    S    
C16   O7    A    
C4    C30   A    
C21   S1    S    
