data_mof_unit_54143.cif
_audit_creation_date              2012-12-11T14:58:33-0500
_audit_creation_method            fapswitch 2.2
_symmetry_space_group_name_H-M    P1
_symmetry_Int_Tables_number       1
_space_group_crystal_system       triclinic
_cell_length_a                    10.937526
_cell_length_b                    10.912729
_cell_length_c                    18.779317
_cell_angle_alpha                 90.399457
_cell_angle_beta                  90.481637
_cell_angle_gamma                 59.794326
_cell_volume                      1937.0531939

loop_
_atom_site_label
_atom_site_type_symbol
_atom_type_description
_atom_site_fract_x
_atom_site_fract_y
_atom_site_fract_z
_atom_type_partial_charge
C1    C     C_R   0.359047 0.773108 0.397797 0.542791
C2    C     C_R   0.246844 0.442639 0.198930 -0.154980
C3    C     C_R   0.245138 0.450593 0.273076 -0.032451
C4    C     C_R   0.385960 0.354852 0.387359 0.532529
C5    C     C_R   0.877966 0.802918 0.367643 -0.118226
C6    C     C_R   0.926485 0.665730 0.392635 -0.103487
C7    C     C_R   0.045248 0.550587 0.362026 -0.048131
C8    C     C_R   0.118667 0.571946 0.306838 0.058468
C9    C     C_R   0.362638 0.343501 0.311393 -0.002431
C10   C     C_R   0.955449 0.302005 0.307966 -0.157634
C11   C     C_R   0.984196 0.293706 0.235778 -0.127136
C12   C     C_R   0.612972 0.116124 0.166432 0.058944
C13   C     C_R   0.874775 0.332257 0.185859 0.036400
C14   C     C_R   0.736088 0.382629 0.207391 -0.152454
C15   C     C_R   0.707009 0.393113 0.279538 -0.117666
C16   C     C_R   0.778402 0.377727 0.403255 0.531654
C17   C     C_R   0.816729 0.352975 0.329524 0.040510
C18   C     C_R   0.471019 0.787873 0.287209 -0.142128
C19   C     C_R   0.458832 0.814494 0.214422 -0.154207
C20   C     C_R   0.324302 0.888399 0.184178 0.033499
C21   C     C_R   0.203187 0.946376 0.227516 -0.141931
C22   C     C_R   0.215241 0.921404 0.299568 -0.150408
C23   C     C_R   0.359904 0.331105 0.162512 -0.004591
C24   C     C_R   0.348277 0.835668 0.328912 0.029794
C25   C     C_R   0.379494 0.199154 0.693048 -0.138841
C26   C     C_R   0.368326 0.185615 0.765113 -0.122814
C27   C     C_R   0.298129 0.306822 0.808658 0.031353
C28   C     C_R   0.344976 0.768771 0.604859 0.546090
C29   C     C_R   0.228621 0.441777 0.778860 -0.158696
C30   C     C_R   0.238793 0.455506 0.706170 -0.135355
C31   C     C_R   0.320322 0.334062 0.663903 0.029771
C32   C     C_R   0.906345 0.395093 0.707825 -0.130420
C33   C     C_R   0.943614 0.376436 0.779065 -0.130751
C34   C     C_R   0.479296 0.237786 0.274090 -0.150921
C35   C     C_R   0.921083 0.283767 0.820671 0.027608
C36   C     C_R   0.870733 0.200937 0.788740 -0.134798
C37   C     C_R   0.831083 0.221131 0.717050 -0.136513
C38   C     C_R   0.842846 0.323329 0.677246 0.026891
C39   C     C_R   0.196113 0.847927 0.711427 -0.137562
C40   C     C_R   0.368492 0.350578 0.595321 0.546322
C41   C     C_R   0.186104 0.858054 0.784609 -0.137802
C42   C     C_R   0.300914 0.842322 0.825400 0.033817
C43   C     C_R   0.427707 0.811285 0.792381 -0.141254
C44   C     C_R   0.438356 0.799602 0.719040 -0.141371
C45   C     C_R   0.482608 0.232346 0.200535 -0.025162
C46   C     C_R   0.322864 0.816725 0.678190 0.030295
C47   C     C_R   0.910710 0.316249 0.111834 0.543273
C48   C     C_R   0.329743 0.295266 0.091932 0.541185
C49   C     C_R   0.301150 0.910780 0.108336 0.551384
C50   C     C_R   0.948443 0.280222 0.897045 0.571166
C51   C     C_R   0.292927 0.285274 0.883954 0.539217
C52   C     C_R   0.768358 0.373717 0.609335 0.547630
C53   C     C_R   0.275877 0.892994 0.898121 0.542627
C54   C     C_R   0.849613 0.893814 0.098311 -0.113472
C55   C     C_R   0.793361 0.033041 0.074592 -0.085186
C56   C     C_R   0.068114 0.710758 0.281921 -0.086810
C57   C     C_R   0.676862 0.144109 0.108915 -0.057576
C58   C     C_R   0.948823 0.825399 0.312373 -0.113019
C59   C     C_R   0.670890 0.975221 0.189878 -0.095490
C60   C     C_R   0.788226 0.864908 0.155828 -0.123157
Cr1   Cr    Cr6+3 0.601770 0.606860 0.505860 0.995600
Cr2   Cr    Cr6+3 0.291380 0.601660 0.495070 1.019807
Cr3   Cr    Cr6+3 0.606880 0.291510 0.499120 1.008029
Cr4   Cr    Cr6+3 0.062440 0.063090 0.008210 0.978838
Cr5   Cr    Cr6+3 0.062880 0.375170 0.998920 1.000411
Cr6   Cr    Cr6+3 0.374700 0.061720 0.992470 1.020178
H1    H     H_    0.573444 0.160500 0.302277 0.141031
H2    H     H_    0.552630 0.771355 0.181665 0.123461
H3    H     H_    0.097651 0.007141 0.205230 0.150479
H4    H     H_    0.831213 0.756847 0.173932 0.124267
H5    H     H_    0.120569 0.960992 0.331430 0.128618
H6    H     H_    0.441177 0.104938 0.660990 0.122514
H7    H     H_    0.417745 0.079713 0.787051 0.139973
H8    H     H_    0.170950 0.535451 0.811776 0.117552
H9    H     H_    0.192071 0.561306 0.684234 0.139694
H10   H     H_    0.918725 0.472776 0.677998 0.130042
H11   H     H_    0.983743 0.439998 0.802651 0.135454
H12   H     H_    0.785706 0.891828 0.391200 0.110825
H13   H     H_    0.854802 0.126891 0.819746 0.126031
H14   H     H_    0.782844 0.164002 0.694296 0.131370
H15   H     H_    0.106019 0.859852 0.681141 0.127324
H16   H     H_    0.911029 0.931757 0.292903 0.115393
H17   H     H_    0.086221 0.884459 0.808808 0.126396
H18   H     H_    0.516848 0.800713 0.823062 0.128328
H19   H     H_    0.538328 0.772652 0.694724 0.135105
H20   H     H_    0.940106 0.808224 0.071790 0.110493
H21   H     H_    0.839213 0.054641 0.029020 0.148401
H22   H     H_    0.633645 0.251090 0.089198 0.097300
H23   H     H_    0.872586 0.648871 0.436161 0.130864
H24   H     H_    0.121512 0.730321 0.239013 0.116925
H25   H     H_    0.624018 0.950319 0.233914 0.109481
H26   H     H_    0.153634 0.518891 0.169691 0.133912
H27   H     H_    0.082106 0.445449 0.382624 0.095788
H28   H     H_    0.040198 0.268905 0.346552 0.096154
H29   H     H_    0.091912 0.255376 0.218603 0.125296
H30   H     H_    0.651201 0.415202 0.168880 0.101308
H31   H     H_    0.598622 0.435277 0.296625 0.125893
H32   H     H_    0.575581 0.721113 0.309632 0.145360
O1    O     O_R   0.748800 0.497470 0.428000 -0.533342
O2    O     O_R   0.417600 0.174890 0.067840 -0.501675
O3    O     O_R   0.375320 0.946260 0.070860 -0.490853
O4    O     O_R   0.476420 0.724060 0.429470 -0.512427
O5    O     O_R   0.160600 0.919630 0.926660 -0.536344
O6    O     O_R   0.933060 0.190520 0.936020 -0.520050
O7    O     O_R   0.908880 0.403460 0.925020 -0.515994
O8    O     O_R   0.179600 0.361450 0.918490 -0.527498
O9    O     O_R   0.391510 0.170860 0.907530 -0.523403
O10   O     O_R   0.351130 0.942530 0.922260 -0.509074
O11   O     O_3   0.166667 0.166667 0.999870 -0.269860
O12   O     O_R   0.300070 0.471040 0.567100 -0.510207
O13   O     O_R   0.264580 0.744340 0.416750 -0.505283
O14   O     O_R   0.309380 0.472470 0.418200 -0.493530
O15   O     O_R   0.501710 0.260430 0.414300 -0.532980
O16   O     O_R   0.728090 0.305600 0.428960 -0.504252
O17   O     O_R   0.738760 0.495930 0.588610 -0.528451
O18   O     O_R   0.467110 0.722640 0.578360 -0.506300
O19   O     O_R   0.254530 0.742800 0.577360 -0.528436
O20   O     O_R   0.491670 0.258900 0.574910 -0.519568
O21   O     O_R   0.718780 0.304180 0.577850 -0.502431
O22   O     O_3   0.500010 0.500010 0.500020 -0.242485
O23   O     O_R   0.186690 0.923650 0.086970 -0.531465
O24   O     O_R   0.957250 0.194250 0.084630 -0.516143
O25   O     O_R   0.934970 0.407490 0.085330 -0.512091
O26   O     O_R   0.203780 0.365190 0.067090 -0.508135

loop_
_geom_bond_atom_site_label_1
_geom_bond_atom_site_label_2
_ccdc_geom_bond_type
C25   C31   A    
Cr4   O5    S    
C40   O20   A    
C50   O6    A    
C23   C45   A    
C27   C29   A    
C41   C42   A    
Cr5   O8    S    
C19   C20   A    
Cr6   O9    S    
C8    C56   A    
C7    C8    A    
C39   C41   A    
C54   C60   A    
C28   C46   S    
C26   C27   A    
C29   C30   A    
C5    C58   A    
C18   C24   A    
C36   C37   A    
C37   C38   A    
C28   O19   A    
C58   H16   S    
C42   C53   S    
C49   O3    A    
C30   C31   A    
C38   C52   S    
C10   H28   S    
C10   C17   A    
Cr6   O2    S    
Cr4   O23   S    
C41   H17   S    
C26   H7    S    
C31   C40   S    
C15   C17   A    
C18   C19   A    
Cr5   O26   S    
C14   H30   S    
Cr2   O19   S    
C28   O18   A    
C12   C59   A    
Cr2   O13   S    
C35   C36   A    
C27   C51   S    
C16   C17   S    
Cr1   O17   S    
C50   O7    A    
C32   C38   A    
Cr2   O22   S    
C56   H24   S    
C4    O14   A    
C59   C60   A    
C21   C22   A    
Cr1   O22   S    
C43   H18   S    
Cr3   O16   S    
Cr6   O3    S    
Cr1   O1    S    
C15   H31   S    
C7    H27   S    
Cr5   O7    S    
C44   C46   A    
C48   O2    A    
C37   H14   S    
C4    O15   A    
C39   H15   S    
C3    C8    S    
C13   C47   S    
Cr3   O20   S    
C47   O24   A    
C40   O12   A    
C29   H8    S    
C25   C26   A    
C21   H3    S    
C43   C44   A    
C32   H10   S    
C20   C49   S    
C3    C9    A    
Cr3   O21   S    
C47   O25   A    
Cr2   O12   S    
C60   H4    S    
C49   O23   A    
C35   C50   S    
Cr2   O14   S    
C19   H2    S    
C25   H6    S    
C59   H25   S    
C2    H26   S    
Cr5   O11   S    
C34   C45   A    
C39   C46   A    
C12   C57   A    
C55   C57   A    
C9    C34   A    
C22   C24   A    
C42   C43   A    
C44   H19   S    
C22   H5    S    
C54   H20   S    
C52   O17   A    
C11   H29   S    
Cr4   O6    S    
C54   C55   A    
C23   C48   S    
Cr1   O18   S    
Cr6   O10   S    
C12   C45   S    
C36   H13   S    
C16   O16   A    
C34   H1    S    
C48   O26   A    
C16   O1    A    
C6    C7    A    
C6    H23   S    
C57   H22   S    
C32   C33   A    
Cr1   O4    S    
C4    C9    S    
C1    O13   A    
Cr3   O22   S    
C11   C13   A    
C53   O10   A    
C33   H11   S    
Cr4   O11   S    
C5    C6    A    
C53   O5    A    
C51   O8    A    
Cr4   O24   S    
C33   C35   A    
C56   C58   A    
C2    C3    A    
Cr5   O25   S    
Cr6   O11   S    
C55   H21   S    
C10   C11   A    
Cr3   O15   S    
C52   O21   A    
C30   H9    S    
C20   C21   A    
C1    C24   S    
C51   O9    A    
C2    C23   A    
C14   C15   A    
C18   H32   S    
C5    H12   S    
C13   C14   A    
C1    O4    A    
