data_mof_unit_38945.cif
_audit_creation_date              2012-12-10T17:03:40-0500
_audit_creation_method            fapswitch 2.2
_symmetry_space_group_name_H-M    P1
_symmetry_Int_Tables_number       1
_space_group_crystal_system       triclinic
_cell_length_a                    10.022883
_cell_length_b                    10.764008
_cell_length_c                    13.159276
_cell_angle_alpha                 89.870712
_cell_angle_beta                  69.523267
_cell_angle_gamma                 90.823269
_cell_volume                      1329.82419771

loop_
_atom_site_label
_atom_site_type_symbol
_atom_type_description
_atom_site_fract_x
_atom_site_fract_y
_atom_site_fract_z
_atom_type_partial_charge
C1    C     C_R   0.503158 0.737365 0.496337 0.960232
C2    C     C_R   0.429465 0.513247 0.985270 0.082543
C3    C     C_R   0.455385 0.553282 0.877804 0.091696
C4    C     C_R   0.538134 0.533398 0.029658 0.090648
C5    C     C_R   0.662209 0.603402 0.970943 0.143943
C6    C     C_R   0.674485 0.657943 0.872031 -0.229377
C7    C     C_R   0.571290 0.634729 0.826616 -0.193086
C8    C     C_R   0.528564 0.483490 0.129671 -0.258983
C9    C     C_R   0.762323 0.567277 0.112190 -0.009102
C10   C     C_R   0.367363 0.507565 0.822582 -0.110403
C11   C     C_2   0.621064 0.070013 0.478410 -0.204057
C12   C     C_R   0.420487 0.504682 0.704258 0.849273
C13   C     C_2   0.505918 0.132166 0.480568 -0.362346
C14   C     C_2   0.629286 0.937335 0.460265 0.001870
C15   C     C_2   0.507205 0.869572 0.496753 -0.411996
C16   C     C_2   0.103658 0.432223 0.435091 -0.117228
C17   C     C_2   0.951226 0.426239 0.440249 -0.073904
C18   C     C_R   0.500456 0.262722 0.497055 0.948341
C19   C     C_R   0.580281 0.499261 0.294983 0.899210
C20   C     C_R   0.774066 0.616502 0.010771 -0.246289
C21   C     C_R   0.631155 0.510018 0.176110 -0.136122
C22   C     C_R   0.239092 0.445533 0.879767 -0.192453
C23   C     C_R   0.203336 0.420707 0.989631 -0.104067
C24   C     C_R   0.297998 0.451817 0.042059 -0.185299
H1    H     H_    0.417432 0.088859 0.463804 0.167316
H2    H     H_    0.404722 0.911419 0.537886 0.157444
H3    H     H_    0.179757 0.375039 0.375209 0.159484
H4    H     H_    0.075286 0.547098 0.559824 0.161920
H5    H     H_    0.923737 0.358103 0.389916 0.184000
H6    H     H_    0.879746 0.568151 0.541546 0.165357
H7    H     H_    0.765826 0.716159 0.828304 0.152321
H8    H     H_    0.871564 0.664012 0.961610 0.181371
H9    H     H_    0.438348 0.426778 0.176096 0.153281
H10   H     H_    0.169570 0.411249 0.838561 0.158890
H11   H     H_    0.264236 0.427605 0.126896 0.142626
H12   H     H_    0.104750 0.371696 0.033216 0.173914
H13   H     H_    0.584287 0.679770 0.750049 0.163868
H14   H     H_    0.712889 0.117479 0.487160 0.205696
N1    N     N_2   0.148270 0.498670 0.498870 -0.187931
N2    N     N_2   0.852610 0.498640 0.498840 -0.186167
O1    O     O_R   0.386950 0.680940 0.500020 -0.606000
O2    O     O_R   0.613110 0.680900 0.499980 -0.599179
O3    O     O_R   0.330780 0.500000 0.653640 -0.613274
O4    O     O_R   0.556930 0.499960 0.653610 -0.611133
O5    O     O_R   0.386890 0.319100 0.500020 -0.615693
O6    O     O_R   0.613050 0.319060 0.499980 -0.610290
O7    O     O_R   0.443070 0.500040 0.346390 -0.616431
O8    O     O_R   0.669220 0.500000 0.346360 -0.553037
Zn1   Zn    Zn3+2 0.349000 0.500030 0.500020 0.954910
Zn2   Zn    Zn3+2 0.651000 0.499970 0.499980 0.986748
C25   C     C_2   0.890597 0.574032 0.143935 0.927507
O9    O     O_2   0.914529 0.491654 0.198961 -0.651609
O10   O     O_R   0.990828 0.670145 0.103147 -0.806594
H15   H     H_    0.076143 0.662683 0.127151 0.342928
C26   C     C_2   0.773129 0.885837 0.403508 0.957151
O11   O     O_2   0.876212 0.928290 0.421885 -0.650750
O12   O     O_R   0.791995 0.792642 0.326283 -0.778418
H16   H     H_    0.894214 0.764212 0.296518 0.356726

loop_
_geom_bond_atom_site_label_1
_geom_bond_atom_site_label_2
_ccdc_geom_bond_type
C11   H14   S    
C2    C4    A    
C23   C24   A    
C6    C7    A    
C1    C15   S    
C17   H5    S    
O6    Zn2   S    
C9    C20   A    
C3    C7    A    
C9    C25   S    
O5    Zn1   S    
C26   O11   D    
C13   H1    S    
C16   H3    S    
O8    Zn2   S    
C14   C26   S    
C7    H13   S    
H6    N2    S    
O7    Zn1   S    
C5    C20   A    
O10   H15   S    
C10   C22   A    
C11   C13   D    
C9    C21   A    
O12   H16   S    
C16   C17   S    
C10   C12   S    
C13   C18   S    
O2    Zn2   S    
N2    Zn2   S    
C18   O6    A    
O1    Zn1   S    
C19   C21   S    
C6    H7    S    
C12   O3    A    
C2    C3    A    
C8    H9    S    
C26   O12   S    
C2    C24   A    
C5    C6    A    
C22   H10   S    
C11   C14   S    
C19   O7    A    
C24   H11   S    
C16   N1    D    
C25   O9    D    
C18   O5    A    
C1    O2    A    
C12   O4    A    
C23   H12   S    
C20   H8    S    
O4    Zn2   S    
C4    C8    A    
C3    C10   A    
C14   C15   D    
O3    Zn1   S    
C15   H2    S    
H4    N1    S    
N1    Zn1   S    
C19   O8    A    
C22   C23   A    
C1    O1    A    
C4    C5    A    
C25   O10   S    
C17   N2    D    
C8    C21   A    
