data_mof_unit_50402.cif
_audit_creation_date              2012-12-10T16:52:02-0500
_audit_creation_method            fapswitch 2.2
_symmetry_space_group_name_H-M    P1
_symmetry_Int_Tables_number       1
_space_group_crystal_system       triclinic
_cell_length_a                    7.76062
_cell_length_b                    8.57126
_cell_length_c                    14.945547
_cell_angle_alpha                 91.188578
_cell_angle_beta                  85.59387
_cell_angle_gamma                 93.811739
_cell_volume                      988.899218558

loop_
_atom_site_label
_atom_site_type_symbol
_atom_type_description
_atom_site_fract_x
_atom_site_fract_y
_atom_site_fract_z
_atom_type_partial_charge
C1    C     C_R   0.545923 0.794804 0.497657 0.967891
C2    C     C_R   0.650074 0.554342 0.809020 -0.176898
C3    C     C_R   0.496363 0.505592 0.231420 -0.086007
C4    C     C_R   0.503637 0.494408 0.768580 -0.086006
C5    C     C_R   0.643367 0.566428 0.181021 -0.187985
C6    C     C_R   0.356634 0.433571 0.818979 -0.187985
C7    C     C_R   0.646870 0.566464 0.088073 0.036301
C8    C     C_R   0.353130 0.433538 0.911927 0.036300
C9    C     C_R   0.499508 0.502160 0.046596 0.021211
C10   C     C_R   0.500490 0.497842 0.953404 0.021212
C11   C     C_R   0.350988 0.441886 0.098429 0.089928
C12   C     C_R   0.454077 0.205195 0.502343 0.967891
C13   C     C_R   0.649010 0.558117 0.901571 0.089930
C14   C     C_R   0.793470 0.627956 0.035614 0.384242
C15   C     C_R   0.206528 0.372047 0.964386 0.384241
C16   C     C_R   0.793450 0.622991 0.942671 -0.174318
C17   C     C_R   0.206546 0.377014 0.057329 -0.174318
C18   C     C_2   0.570070 0.958354 0.496288 -0.363006
C19   C     C_2   0.429930 0.041646 0.503712 -0.363006
C20   C     C_R   0.501488 0.498561 0.673090 0.886596
C21   C     C_R   0.498512 0.501439 0.326910 0.886597
C22   C     C_R   0.349923 0.445662 0.190980 -0.176897
Cl1   Cl    Cl    0.979410 0.713665 0.082799 -0.625335
Cl2   Cl    Cl    0.020586 0.286340 0.917201 -0.625334
H1    H     H_    0.237301 0.398252 0.231538 0.151656
H2    H     H_    0.985926 0.617158 0.567957 0.192528
H3    H     H_    0.762694 0.601755 0.768462 0.151656
H4    H     H_    0.753981 0.613659 0.215102 0.206339
H5    H     H_    0.246023 0.386337 0.784898 0.206338
H6    H     H_    0.906652 0.669837 0.902467 0.187239
H7    H     H_    0.093343 0.330169 0.097532 0.187239
H8    H     H_    0.702325 0.009668 0.489191 0.183094
H9    H     H_    0.297674 0.990332 0.510809 0.183094
H10   H     H_    0.014074 0.382842 0.432043 0.192527
N1    N     N_2   0.950330 0.457950 0.475660 -0.169524
N2    N     N_2   0.049670 0.542050 0.524340 -0.169524
O1    O     O_R   0.389250 0.738570 0.505970 -0.610954
O2    O     O_R   0.610750 0.261430 0.494030 -0.610954
O3    O     O_R   0.678390 0.711620 0.490370 -0.630532
O4    O     O_R   0.321610 0.288380 0.509630 -0.630533
O5    O     O_R   0.355420 0.513510 0.639950 -0.619777
O6    O     O_R   0.644580 0.486490 0.360050 -0.619777
O7    O     O_R   0.644560 0.486560 0.624350 -0.625071
O8    O     O_R   0.355440 0.513440 0.375650 -0.625072
Zn1   Zn    Zn3+2 0.306940 0.517990 0.510420 0.962382
Zn2   Zn    Zn3+2 0.693060 0.482010 0.489580 0.962382

loop_
_geom_bond_atom_site_label_1
_geom_bond_atom_site_label_2
_ccdc_geom_bond_type
C14   Cl1   S    
C12   O4    A    
C2    C4    A    
C15   C17   A    
C2    H3    S    
C21   O8    A    
C9    C10   A    
C11   C22   A    
N1    N2    D    
C1    O1    A    
C6    H5    S    
C20   O5    A    
N2    Zn1   S    
C9    C11   A    
C1    C18   S    
O3    Zn2   S    
C12   C19   S    
C4    C6    A    
C15   Cl2   S    
C18   C19   D    
C8    C15   A    
C12   O2    A    
O4    Zn1   S    
C17   H7    S    
O7    Zn2   S    
C14   C16   A    
C3    C21   S    
O2    Zn2   S    
C1    O3    A    
O1    Zn1   S    
C21   O6    A    
C5    H4    S    
C7    C9    A    
C20   O7    A    
C18   H8    S    
O8    Zn1   S    
C8    C10   A    
H10   N1    S    
O6    Zn2   S    
C13   C16   A    
H2    N2    S    
C5    C7    A    
C2    C13   A    
O5    Zn1   S    
C11   C17   A    
C3    C22   A    
C6    C8    A    
N1    Zn2   S    
C16   H6    S    
C10   C13   A    
C7    C14   A    
C19   H9    S    
C3    C5    A    
C22   H1    S    
C4    C20   S    
