data_mof_unit_9052.cif
_audit_creation_date              2012-12-11T14:08:22-0500
_audit_creation_method            fapswitch 2.2
_symmetry_space_group_name_H-M    P1
_symmetry_Int_Tables_number       1
_space_group_crystal_system       triclinic
_cell_length_a                    28.105356
_cell_length_b                    7.192791
_cell_length_c                    17.195354
_cell_angle_alpha                 89.947838
_cell_angle_beta                  101.538991
_cell_angle_gamma                 90.176121
_cell_volume                      3405.86989482

loop_
_atom_site_label
_atom_site_type_symbol
_atom_type_description
_atom_site_fract_x
_atom_site_fract_y
_atom_site_fract_z
_atom_type_partial_charge
O1    O     O_R   0.000700 0.436510 0.857920 -0.532885
O2    O     O_R   0.999300 0.563490 0.142080 -0.533466
O3    O     O_R   0.999300 0.936510 0.642080 -0.532865
O4    O     O_R   0.000700 0.063490 0.357920 -0.533102
O5    O     O_R   0.930080 0.766380 0.721890 -0.541987
O6    O     O_R   0.069920 0.233620 0.278110 -0.540750
O7    O     O_R   0.069920 0.266380 0.778110 -0.542479
O8    O     O_R   0.930080 0.733620 0.221890 -0.542484
C1    C     C_R   0.910495 0.597561 0.709156 0.696997
C2    C     C_R   0.089495 0.402777 0.290300 0.695034
C3    C     C_R   0.089443 0.097807 0.791043 0.696145
C4    C     C_R   0.910510 0.901960 0.209102 0.696502
O9    O     O_R   0.996180 0.766230 0.862310 -0.543113
O10   O     O_R   0.003820 0.233770 0.137690 -0.543094
O11   O     O_R   0.003820 0.266230 0.637690 -0.543019
O12   O     O_R   0.996180 0.733770 0.362310 -0.542643
O13   O     O_R   0.065870 0.936460 0.783500 -0.539440
O14   O     O_R   0.934130 0.063540 0.216500 -0.538977
O15   O     O_R   0.934130 0.436460 0.716500 -0.538844
O16   O     O_R   0.065870 0.563540 0.283500 -0.538569
C5    C     C_R   0.998485 0.596425 0.894481 0.761036
C6    C     C_R   0.001519 0.403576 0.105520 0.759763
C7    C     C_R   0.001519 0.096500 0.605494 0.761600
C8    C     C_R   0.998478 0.903501 0.394505 0.762224
O17   O     O_3   0.022790 0.603020 0.723980 -0.377853
O18   O     O_3   0.977210 0.396980 0.276020 -0.377678
O19   O     O_3   0.977210 0.103020 0.776020 -0.377644
O20   O     O_3   0.022790 0.896980 0.223980 -0.377833
V1    V     V_3+5 0.995770 0.877900 0.754830 1.411046
V2    V     V_3+5 0.004230 0.122100 0.245170 1.412823
V3    V     V_3+5 0.004230 0.377900 0.745170 1.410811
V4    V     V_3+5 0.995770 0.622100 0.254830 1.411711
C9    C     C_2   0.001704 0.082701 0.519529 -0.330865
C10   C     C_2   0.998291 0.917301 0.480469 -0.330321
C11   C     C_2   0.998298 0.582628 0.980425 -0.330924
C12   C     C_2   0.001711 0.417376 0.019578 -0.330436
H1    H     H_    0.004495 0.211606 0.487776 0.153485
H2    H     H_    0.995500 0.788396 0.512223 0.153658
H3    H     H_    0.995508 0.711459 0.012091 0.153704
H4    H     H_    0.004503 0.288545 0.987913 0.153825
C13   C     C_R   0.683551 0.984348 0.030397 0.599424
C14   C     C_R   0.314894 0.011532 0.974029 0.597240
C15   C     C_R   0.316728 0.598909 0.438705 0.601687
C16   C     C_R   0.684853 0.482947 0.530549 0.598839
O21   O     O_2   0.713693 0.021583 0.980290 -0.510298
O22   O     O_2   0.284221 0.991174 0.024660 -0.510953
O23   O     O_2   0.286391 0.709309 0.469400 -0.523427
O24   O     O_2   0.716002 0.411399 0.488145 -0.515722
N1    N     N_R   0.702392 0.932147 0.106969 -0.561659
N2    N     N_R   0.296832 0.053325 0.896031 -0.562073
N3    N     N_R   0.298164 0.462629 0.385115 -0.554775
N4    N     N_R   0.702431 0.563952 0.602822 -0.558993
C17   C     C_R   0.672467 0.894976 0.158954 0.591008
C18   C     C_R   0.327111 0.071936 0.843267 0.586222
C19   C     C_R   0.328731 0.346581 0.354919 0.594546
C20   C     C_R   0.671344 0.640213 0.646151 0.591695
C21   C     C_R   0.782321 0.087762 0.139681 -0.083719
C22   C     C_R   0.216421 0.904520 0.862110 -0.089923
C23   C     C_R   0.218063 0.596752 0.325593 -0.080095
C24   C     C_R   0.781612 0.408303 0.648080 -0.077328
C25   C     C_R   0.832836 0.080824 0.164504 -0.191411
C26   C     C_R   0.166103 0.915053 0.836519 -0.190618
C27   C     C_R   0.167504 0.582775 0.303425 -0.195794
C28   C     C_R   0.832139 0.416225 0.673411 -0.192833
C29   C     C_R   0.828290 0.746440 0.178543 -0.192960
C30   C     C_R   0.172250 0.249197 0.822723 -0.195465
C31   C     C_R   0.171479 0.260913 0.345317 -0.196671
C32   C     C_R   0.828860 0.752631 0.669286 -0.191322
C33   C     C_R   0.777729 0.753899 0.153913 -0.079672
C34   C     C_R   0.222743 0.238025 0.848085 -0.082236
C35   C     C_R   0.222138 0.275976 0.368676 -0.076672
C36   C     C_R   0.778369 0.744306 0.643772 -0.079738
C37   C     C_R   0.754420 0.924438 0.133952 0.374246
C38   C     C_R   0.245037 0.065681 0.868286 0.379828
C39   C     C_R   0.245951 0.444402 0.359298 0.357969
C40   C     C_R   0.754325 0.572194 0.632556 0.369374
C41   C     C_R   0.601500 0.957437 0.055251 -0.044295
C42   C     C_R   0.397113 0.013202 0.949307 -0.046133
C43   C     C_R   0.398994 0.505898 0.432581 -0.033700
C44   C     C_R   0.602221 0.555300 0.542686 -0.046443
C45   C     C_R   0.632949 0.999991 0.003553 -0.065635
C46   C     C_R   0.365203 0.988267 0.001661 -0.067247
C47   C     C_R   0.367305 0.623729 0.462854 -0.058195
C48   C     C_R   0.634527 0.475877 0.499557 -0.066080
C49   C     C_R   0.613655 0.071335 0.928393 -0.122145
C50   C     C_R   0.383542 0.926596 0.078643 -0.117853
C51   C     C_R   0.386690 0.768351 0.514166 -0.124630
C52   C     C_R   0.616137 0.399241 0.424765 -0.130685
C53   C     C_R   0.621643 0.908486 0.134244 -0.031488
C54   C     C_R   0.377658 0.050994 0.868755 -0.037654
C55   C     C_R   0.379586 0.365590 0.378284 -0.019699
C56   C     C_R   0.620761 0.638465 0.616694 -0.031600
C57   C     C_R   0.856620 0.909882 0.184001 -0.052780
C58   C     C_R   0.143206 0.087653 0.816754 -0.051786
C59   C     C_R   0.143441 0.414903 0.313153 -0.053460
C60   C     C_R   0.856566 0.588612 0.683985 -0.053671
H5    H     H_    0.845102 0.612253 0.193064 0.135169
H6    H     H_    0.156058 0.384391 0.808046 0.134035
H7    H     H_    0.154213 0.129730 0.353841 0.137114
H8    H     H_    0.846152 0.887994 0.676557 0.133976
H9    H     H_    0.756674 0.626647 0.149638 0.126020
H10   H     H_    0.244500 0.363567 0.852730 0.122235
H11   H     H_    0.242805 0.156904 0.394963 0.154190
H12   H     H_    0.757972 0.872159 0.631562 0.129327
H13   H     H_    0.637715 0.120910 0.890849 0.196908
H14   H     H_    0.358691 0.892195 0.117264 0.196228
H15   H     H_    0.362853 0.869953 0.532697 0.191082
H16   H     H_    0.640734 0.350819 0.388080 0.197406
C61   C     C_R   0.479603 0.025406 0.922538 0.053325
C62   C     C_R   0.518864 0.933177 0.083060 0.061472
C63   C     C_R   0.519490 0.647189 0.552248 0.062359
C64   C     C_R   0.481781 0.418654 0.421030 0.081278
C65   C     C_R   0.467222 0.940509 0.056717 0.005415
C66   C     C_R   0.530763 0.028767 0.949903 -0.001274
C67   C     C_R   0.532736 0.452093 0.440997 0.001301
C68   C     C_R   0.469198 0.657462 0.517339 0.005049
C69   C     C_R   0.448250 0.995552 0.976796 0.049228
C70   C     C_R   0.550113 0.969984 0.028845 0.050980
C71   C     C_R   0.551373 0.551594 0.511835 0.051474
C72   C     C_R   0.450099 0.527787 0.456895 0.066808
C73   C     C_R   0.458536 0.035585 0.841041 -0.117972
C74   C     C_R   0.540935 0.907270 0.163495 -0.083310
C75   C     C_R   0.538571 0.717312 0.628696 -0.095317
C76   C     C_R   0.461547 0.271301 0.371043 -0.090330
C77   C     C_R   0.408734 0.055402 0.814760 -0.102291
C78   C     C_R   0.590880 0.886585 0.188050 -0.084268
C79   C     C_R   0.588337 0.714848 0.660076 -0.090650
C80   C     C_R   0.411384 0.246311 0.349343 -0.090087
O25   O     O_2   0.308379 0.107999 0.766224 -0.511433
O26   O     O_2   0.691779 0.848187 0.234675 -0.510599
O27   O     O_2   0.689210 0.716777 0.717668 -0.510050
O28   O     O_2   0.310135 0.214955 0.301493 -0.516801
C81   C     C_R   0.563822 0.097816 0.903373 0.131238
C82   C     C_R   0.432855 0.888614 0.104488 0.139103
C83   C     C_R   0.436845 0.789736 0.539737 0.124303
C84   C     C_R   0.566204 0.391137 0.394309 0.135296
H17   H     H_    0.145204 0.787492 0.832815 0.134682
H18   H     H_    0.853194 0.209616 0.167902 0.134146
H19   H     H_    0.852001 0.286919 0.684304 0.134914
H20   H     H_    0.147284 0.703754 0.278136 0.140510
H21   H     H_    0.233260 0.770593 0.877351 0.118117
H22   H     H_    0.764792 0.220558 0.124744 0.122502
H23   H     H_    0.763656 0.274227 0.639972 0.127964
H24   H     H_    0.235597 0.727257 0.316892 0.147539
H25   H     H_    0.394625 0.069348 0.751618 0.191126
H26   H     H_    0.605436 0.862586 0.250488 0.181508
H27   H     H_    0.601236 0.772456 0.718725 0.180907
H28   H     H_    0.397660 0.132017 0.310167 0.177447
H29   H     H_    0.480095 0.019938 0.796233 0.176107
H30   H     H_    0.520795 0.916840 0.210000 0.174361
H31   H     H_    0.515038 0.766461 0.666716 0.165980
H32   H     H_    0.484270 0.167951 0.351405 0.159252
I1    I     I_    0.547343 0.297811 0.809389 -0.394247
I2    I     I_    0.443260 0.702880 0.203913 -0.399463
I3    I     I_    0.458197 0.055007 0.591080 -0.446099
I4    I     I_    0.548471 0.339184 0.269896 -0.416823

loop_
_geom_bond_atom_site_label_1
_geom_bond_atom_site_label_2
_ccdc_geom_bond_type
O17   V3    S    
C47   C51   A    
N1    C17   A    
C22   C26   A    
O1    C5    A    
O19   V1    S    
O13   V1    S    
C27   H20   S    
O3    C7    A    
C11   C12   D    
C14   C46   A    
C44   C48   A    
O4    V2    S    
O15   V3    S    
C62   C70   A    
C78   H26   S    
C61   C69   A    
C68   C83   A    
C30   C34   A    
C42   C54   A    
O7    C3    A    
C41   C53   A    
C32   C60   A    
C21   H22   S    
C81   I1    S    
C74   H30   S    
C63   C71   A    
N3    C39   S    
C18   C54   A    
N2    C38   S    
C24   H23   S    
C52   H16   S    
C25   C57   A    
C25   H18   S    
C31   C35   A    
C67   C84   A    
C27   C59   A    
O1    V3    S    
C15   C47   A    
O2    V4    S    
C14   O22   S    
C21   C37   A    
O3    V1    S    
C34   C38   A    
C19   C55   A    
C73   C77   A    
C1    O15   A    
C2    O16   A    
C7    C9    S    
O2    C6    A    
C33   C37   A    
C63   C68   A    
O14   V2    S    
C79   H27   S    
C43   C55   A    
C31   H7    S    
C76   C80   A    
C16   N4    A    
O11   C7    A    
C76   H32   S    
C44   C71   A    
O12   C8    A    
C31   C59   A    
C50   H14   S    
O10   V2    S    
C49   H13   S    
C13   N1    A    
C50   C82   A    
O5    V1    S    
C53   C78   A    
C75   H31   S    
O7    V3    S    
C55   C80   A    
C63   C75   A    
O8    V4    S    
C51   C83   A    
C12   H4    S    
C42   C69   A    
C28   C60   A    
C41   C70   A    
C83   I3    S    
C64   C72   A    
O18   V4    S    
C80   H28   S    
C36   H12   S    
N4    C40   S    
C46   C50   A    
O11   V3    S    
C24   C40   A    
C8    C10   S    
C68   C72   A    
C32   C36   A    
C74   C78   A    
C11   H3    S    
C32   H8    S    
O5    C1    A    
C54   C77   A    
C42   C46   A    
C75   C79   A    
C1    C60   S    
C41   C45   A    
O8    C4    A    
C13   C45   A    
C43   C72   A    
C9    C10   D    
O9    C5    A    
C36   C40   A    
N2    C18   A    
C21   C25   A    
C44   C56   A    
C62   C65   A    
C52   C84   A    
C66   C70   A    
C61   C66   A    
C14   N2    A    
C65   C69   A    
C3    C58   S    
O6    V2    S    
C23   H24   S    
C67   C71   A    
C65   C82   A    
C26   C58   A    
C17   C53   A    
O10   C6    A    
N1    C37   S    
C4    C57   S    
C56   C79   A    
C23   C39   A    
C22   C38   A    
O16   V4    S    
O9    V1    S    
C18   O25   S    
C35   H11   S    
C3    O13   A    
C10   H2    S    
C48   C52   A    
C17   O26   S    
C16   C48   A    
O6    C2    A    
C34   H10   S    
C64   C76   A    
C5    C11   S    
C33   H9    S    
O12   V4    S    
C6    C12   S    
C23   C27   A    
C30   C58   A    
C24   C28   A    
C30   H6    S    
O20   V2    S    
C29   H5    S    
C77   H25   S    
C62   C74   A    
C35   C39   A    
C22   H21   S    
C15   N3    A    
C82   I2    S    
C2    C59   S    
O4    C8    A    
C29   C33   A    
C29   C57   A    
C66   C81   A    
C73   H29   S    
N3    C19   A    
C84   I4    S    
C26   H17   S    
C9    H1    S    
C20   O27   S    
C43   C47   A    
N4    C20   A    
C20   C56   A    
C51   H15   S    
C19   O28   S    
C4    O14   A    
C13   O21   S    
C61   C73   A    
C15   O23   S    
C64   C67   A    
C45   C49   A    
C16   O24   S    
C49   C81   A    
C28   H19   S    
