data_mof_unit_9438.cif
_audit_creation_date              2013-03-05T15:53:29-0500
_audit_creation_method            fapswitch 2.2
_symmetry_space_group_name_H-M    P1
_symmetry_Int_Tables_number       1
_space_group_crystal_system       triclinic
_cell_length_a                    24.729883
_cell_length_b                    17.317965
_cell_length_c                    15.658131
_cell_angle_alpha                 89.87982
_cell_angle_beta                  129.591133
_cell_angle_gamma                 90.14965
_cell_volume                      5167.64880955

loop_
_atom_site_label
_atom_site_type_symbol
_atom_site_description
_atom_site_fract_x
_atom_site_fract_y
_atom_site_fract_z
_atom_type_partial_charge
C1    C     C_R   0.832103 0.893625 0.198774 -0.102356
C2    C     C_R   0.168179 0.894579 0.801680 -0.103735
C3    C     C_R   0.331999 0.394160 0.198363 -0.102921
C4    C     C_R   0.667897 0.393725 0.801231 -0.100790
H1    H     H_    0.779960 0.896443 0.172910 0.105928
H2    H     H_    0.220244 0.898005 0.827284 0.106712
H3    H     H_    0.279792 0.397534 0.172184 0.106025
H4    H     H_    0.720006 0.396716 0.826962 0.104600
N1    N     N_R   0.888400 0.921830 0.294620 -0.049115
N2    N     N_R   0.111600 0.921830 0.705380 -0.049156
N3    N     N_R   0.388400 0.421830 0.294620 -0.048887
N4    N     N_R   0.611600 0.421830 0.705380 -0.048983
C5    C     C_R   0.093284 0.859667 0.409449 0.212289
C6    C     C_R   0.905778 0.860264 0.590560 0.199157
C7    C     C_R   0.595293 0.362045 0.409067 0.213366
C8    C     C_R   0.407300 0.359015 0.590685 0.211853
N5    N     N_R   0.079940 0.922160 0.443410 -0.065074
N6    N     N_R   0.920060 0.922160 0.556590 -0.066667
N7    N     N_R   0.579940 0.422160 0.443410 -0.065877
N8    N     N_R   0.420060 0.422160 0.556590 -0.065121
C9    C     C_R   0.162212 0.857803 0.594596 -0.156530
C10   C     C_R   0.835731 0.858851 0.405427 -0.143780
C11   C     C_R   0.664910 0.359886 0.594692 -0.154158
C12   C     C_R   0.338516 0.357204 0.405614 -0.158106
H5    H     H_    0.204577 0.844466 0.680543 0.122639
H6    H     H_    0.792154 0.846586 0.319636 0.126495
H7    H     H_    0.707552 0.346868 0.680659 0.121026
H8    H     H_    0.296263 0.343647 0.319707 0.122578
N9    N     N_R   0.125650 0.922400 0.556620 -0.048985
N10   N     N_R   0.874350 0.922400 0.443380 -0.052804
N11   N     N_R   0.625650 0.422400 0.556620 -0.048644
N12   N     N_R   0.374350 0.422400 0.443380 -0.048809
C13   C     C_R   0.080617 0.898114 0.807183 -0.079631
C14   C     C_R   0.920174 0.896579 0.194032 -0.097978
C15   C     C_R   0.579952 0.396631 0.806199 -0.094474
C16   C     C_R   0.420196 0.396558 0.194024 -0.099004
H9    H     H_    0.057050 0.908704 0.844697 0.146043
H10   H     H_    0.944708 0.905233 0.157604 0.147882
H11   H     H_    0.555528 0.405293 0.842757 0.149573
H12   H     H_    0.444820 0.404943 0.157731 0.149115
N13   N     N_R   0.054230 0.922730 0.705400 -0.053193
N14   N     N_R   0.945770 0.922730 0.294600 -0.053620
N15   N     N_R   0.554230 0.422730 0.705400 -0.054579
N16   N     N_R   0.445770 0.422730 0.294600 -0.053708
C17   C     C_R   0.850132 0.877253 0.133726 0.119669
C18   C     C_R   0.150623 0.878925 0.867460 0.115584
C19   C     C_R   0.350055 0.377600 0.133432 0.118502
C20   C     C_R   0.649989 0.377346 0.866492 0.115049
C21   C     C_R   0.142484 0.817066 0.504060 -0.007752
C22   C     C_R   0.855428 0.818233 0.496190 -0.011871
C23   C     C_R   0.645911 0.320643 0.503617 -0.010400
C24   C     C_R   0.358517 0.316114 0.496184 -0.008758
C25   C     C_R   0.812438 0.103049 0.410470 -0.076551
C26   C     C_R   0.186878 0.105804 0.589869 -0.079279
C27   C     C_R   0.313416 0.606531 0.410018 -0.079548
C28   C     C_R   0.686687 0.606432 0.590050 -0.087023
H13   H     H_    0.763878 0.102985 0.327322 0.166652
H14   H     H_    0.235572 0.105866 0.672876 0.167561
H15   H     H_    0.264754 0.606888 0.326994 0.167716
H16   H     H_    0.735613 0.606624 0.673065 0.174083
N17   N     N_R   0.873790 0.077030 0.443380 -0.049902
N18   N     N_R   0.126210 0.077030 0.556620 -0.050038
N19   N     N_R   0.373790 0.577030 0.443380 -0.050247
N20   N     N_R   0.626210 0.577030 0.556620 -0.051081
C29   C     C_R   0.938560 0.136160 0.233676 -0.158933
C30   C     C_R   0.061450 0.136064 0.766144 -0.159662
C31   C     C_R   0.438509 0.636005 0.233459 -0.156828
C32   C     C_R   0.561910 0.635608 0.767140 -0.156943
H17   H     H_    0.974674 0.150897 0.219411 0.117203
H18   H     H_    0.025120 0.150798 0.779878 0.117371
H19   H     H_    0.474689 0.650717 0.219315 0.120997
H20   H     H_    0.525933 0.650154 0.781633 0.117582
N21   N     N_R   0.945200 0.076700 0.294600 -0.056026
N22   N     N_R   0.054800 0.076700 0.705400 -0.056338
N23   N     N_R   0.445200 0.576700 0.294600 -0.056671
N24   N     N_R   0.554800 0.576700 0.705400 -0.055944
C33   C     C_R   0.156057 0.132389 0.776067 0.176525
C34   C     C_R   0.844137 0.132514 0.224191 0.178136
C35   C     C_R   0.656360 0.631968 0.776672 0.171190
C36   C     C_R   0.343979 0.632257 0.223711 0.175869
N25   N     N_R   0.111030 0.077600 0.705380 -0.067605
N26   N     N_R   0.888970 0.077600 0.294620 -0.067612
N27   N     N_R   0.611030 0.577600 0.705380 -0.066922
N28   N     N_R   0.388970 0.577600 0.294620 -0.067733
C37   C     C_R   0.887981 0.103206 0.594092 -0.131291
C38   C     C_R   0.111119 0.106639 0.405842 -0.121277
C39   C     C_R   0.389205 0.607373 0.594138 -0.120589
C40   C     C_R   0.611641 0.605967 0.406055 -0.106309
H21   H     H_    0.910081 0.103620 0.679968 0.115176
H22   H     H_    0.089455 0.107340 0.320198 0.115748
H23   H     H_    0.410822 0.608208 0.679748 0.116204
H24   H     H_    0.589938 0.607321 0.320410 0.119537
N29   N     N_R   0.919490 0.077280 0.556590 -0.044762
N30   N     N_R   0.080510 0.077280 0.443410 -0.045396
N31   N     N_R   0.419490 0.577280 0.556590 -0.045694
N32   N     N_R   0.580510 0.577280 0.443410 -0.048019
Ni1   Ni    Ni4+2 0.882160 0.999430 0.370180 0.241119
Ni2   Ni    Ni4+2 0.117840 0.999430 0.629820 0.242466
Ni3   Ni    Ni4+2 0.382160 0.499430 0.370180 0.241994
Ni4   Ni    Ni4+2 0.617840 0.499430 0.629820 0.241131
Ni5   Ni    Ni4+2 0.012460 0.999430 0.370180 0.235980
Ni6   Ni    Ni4+2 0.987540 0.999430 0.629820 0.232147
Ni7   Ni    Ni4+2 0.512460 0.499430 0.370180 0.236636
Ni8   Ni    Ni4+2 0.487540 0.499430 0.629820 0.236565
C41   C     C_R   0.820772 0.119380 0.503629 0.064889
C42   C     C_R   0.177749 0.124614 0.496681 0.067653
C43   C     C_R   0.322802 0.625987 0.503197 0.067833
C44   C     C_R   0.678180 0.623737 0.497053 0.062916
C45   C     C_R   0.877039 0.174024 0.192443 0.084491
C46   C     C_R   0.123167 0.173832 0.807658 0.084939
C47   C     C_R   0.376878 0.673723 0.191911 0.082772
C48   C     C_R   0.623737 0.673166 0.808887 0.086103
C49   C     C_R   0.802665 0.690643 0.458886 0.070352
C50   C     C_R   0.165476 0.694610 0.456339 0.100999
C51   C     C_R   0.335197 0.193210 0.543221 0.099594
C52   C     C_R   0.664218 0.198157 0.451101 0.096254
C53   C     C_R   0.807358 0.767794 0.487316 0.088410
C54   C     C_R   0.188791 0.763789 0.513023 0.090430
C55   C     C_R   0.312126 0.262629 0.487053 0.091186
C56   C     C_R   0.690359 0.265813 0.511057 0.098507
C57   C     C_R   0.760945 0.799169 0.500085 -0.120046
C58   C     C_R   0.259043 0.785815 0.571453 -0.142725
C59   C     C_R   0.242011 0.284765 0.429034 -0.144175
C60   C     C_R   0.761769 0.283320 0.573727 -0.146338
H25   H     H_    0.761286 0.860305 0.514362 0.179607
H26   H     H_    0.279042 0.840158 0.615719 0.167134
H27   H     H_    0.222236 0.339360 0.385352 0.166939
H28   H     H_    0.783778 0.336740 0.620061 0.162351
C61   C     C_R   0.197726 0.237569 0.431235 -0.153962
C62   C     C_R   0.804574 0.232894 0.572699 -0.155926
C63   C     C_R   0.718516 0.750475 0.503913 -0.138794
C64   C     C_R   0.303202 0.738785 0.569047 -0.152601
H29   H     H_    0.144056 0.255816 0.387985 0.149500
H30   H     H_    0.859347 0.247984 0.619078 0.144247
H31   H     H_    0.684601 0.774031 0.518836 0.159578
H32   H     H_    0.357006 0.756902 0.612697 0.149778
C65   C     C_R   0.223702 0.168745 0.492568 0.045567
C66   C     C_R   0.775903 0.165323 0.508246 0.051380
C67   C     C_R   0.722840 0.671141 0.493963 0.035266
C68   C     C_R   0.276960 0.670219 0.507179 0.044564
C69   C     C_R   0.293052 0.148305 0.548375 0.046876
C70   C     C_R   0.704998 0.149582 0.447749 0.037296
C71   C     C_R   0.760561 0.641825 0.463139 0.038666
C72   C     C_R   0.207474 0.649907 0.450997 0.047885
C73   C     C_3   0.813136 0.577668 0.511406 0.363804
C74   C     C_3   0.152284 0.589171 0.384863 0.348836
C75   C     C_3   0.348155 0.087667 0.614667 0.348758
C76   C     C_3   0.645389 0.094239 0.374206 0.356393
C77   C     C_3   0.859125 0.631877 0.505218 -0.542107
C78   C     C_3   0.104323 0.641497 0.390727 -0.539400
C79   C     C_3   0.396295 0.140254 0.609086 -0.537923
C80   C     C_3   0.599401 0.151245 0.378372 -0.534300
H33   H     H_    0.908782 0.649203 0.587233 0.227041
H34   H     H_    0.059657 0.667346 0.310247 0.234330
H35   H     H_    0.440880 0.166131 0.689637 0.234717
H36   H     H_    0.558518 0.180750 0.298596 0.235418
H37   H     H_    0.865278 0.614235 0.443638 0.213914
H38   H     H_    0.090853 0.617382 0.440910 0.213442
H39   H     H_    0.409923 0.116355 0.559143 0.213233
H40   H     H_    0.581329 0.129408 0.423245 0.213599
H41   H     H_    0.797086 0.282271 0.181436 0.167218
H42   H     H_    0.203470 0.282157 0.818853 0.164148
H43   H     H_    0.296869 0.781960 0.180735 0.163362
H44   H     H_    0.703467 0.781744 0.819228 0.160372
H45   H     H_    0.290863 0.871283 0.002300 0.142084
H46   H     H_    0.709807 0.871549 0.997058 0.142441
H47   H     H_    0.790366 0.371795 0.002647 0.140354
H48   H     H_    0.209682 0.371741 0.996758 0.141783
C81   C     C_2   0.198997 0.853729 0.983394 -0.154558
C82   C     C_2   0.802094 0.851647 0.018107 -0.159409
C83   C     C_2   0.698226 0.351809 0.982263 -0.148415
C84   C     C_2   0.301980 0.352054 0.017736 -0.155648
C85   C     C_2   0.267840 0.847985 0.037000 -0.101333
C86   C     C_2   0.733039 0.847307 0.963314 -0.101393
C87   C     C_2   0.767275 0.347570 0.036773 -0.101137
C88   C     C_2   0.232909 0.347632 0.962941 -0.101658
H49   H     H_    0.863193 0.254475 0.070983 0.141426
H50   H     H_    0.136892 0.254227 0.928710 0.141352
H51   H     H_    0.363336 0.754298 0.070822 0.142501
H52   H     H_    0.637810 0.753316 0.930439 0.142437
C89   C     C_2   0.850813 0.244112 0.125362 -0.178513
C90   C     C_2   0.149444 0.243890 0.874602 -0.175255
C91   C     C_2   0.350716 0.743821 0.124872 -0.170521
C92   C     C_2   0.650107 0.743115 0.875977 -0.170704
C93   C     C_2   0.809083 0.292255 0.126532 -0.066092
C94   C     C_2   0.191279 0.292144 0.873457 -0.069943
C95   C     C_2   0.309070 0.792066 0.126109 -0.069538
C96   C     C_2   0.691513 0.791616 0.874159 -0.074638
H53   H     H_    0.176783 0.829102 0.018991 0.173903
H54   H     H_    0.824490 0.826074 0.983457 0.171912
H55   H     H_    0.675977 0.326300 0.017339 0.175282
H56   H     H_    0.324364 0.326589 0.983011 0.173239
I1    I     I_    0.860024 0.544889 0.678113 -0.328945
I2    I     I_    0.114702 0.574634 0.219264 -0.287585
I3    I     I_    0.385404 0.072785 0.780107 -0.279725
I4    I     I_    0.611517 0.081322 0.210576 -0.263831
I5    I     I_    0.773759 0.480611 0.402053 -0.340315
I6    I     I_    0.180551 0.482833 0.474125 -0.380448
I7    I     I_    0.319904 0.981517 0.525309 -0.381424
I8    I     I_    0.660106 0.986836 0.453892 -0.412297
I9    I     I_    0.080049 0.852859 0.261812 -0.377001
I10   I     I_    0.925612 0.848312 0.743371 -0.385922
I11   I     I_    0.581102 0.357976 0.260498 -0.365059
I12   I     I_    0.420324 0.351372 0.738134 -0.371831
I13   I     I_    0.266636 0.123328 0.875737 -0.395670
I14   I     I_    0.733607 0.123709 0.125084 -0.394538
I15   I     I_    0.766959 0.622731 0.875591 -0.408364
I16   I     I_    0.233395 0.622705 0.123695 -0.391239

loop_
_geom_bond_atom_site_label_1
_geom_bond_atom_site_label_2
_geom_bond_distance
_ccdc_geom_bond_type
N24   Ni8   1.855771 S    
C12   N12   1.318861 A    
N17   Ni1   1.863567 S    
C80   H40   1.111169 S    
C12   C24   1.365922 A    
C27   H15   1.069673 S    
C22   C53   1.407123 S    
N5    N9    1.366041 A    
C6    N6    1.338562 A    
C75   C79   1.543023 S    
C14   N14   1.347770 A    
C3    N3    1.329186 A    
C81   H53   1.087380 S    
C4    H4    1.078701 S    
N7    N11   1.366041 A    
C17   C82   1.464487 S    
C9    C21   1.366102 A    
C19   C84   1.465064 S    
C48   C92   1.457491 S    
C38   C42   1.359023 A    
C2    C18   1.375161 A    
C7    N7    1.334833 A    
N10   Ni1   1.845261 S    
N1    N14   1.419000 A    
C9    H5    1.079320 S    
N9    Ni2   1.849459 S    
C1    H1    1.078797 S    
N3    Ni3   1.862809 S    
N4    N15   1.419079 A    
C63   H31   1.084632 S    
C90   C94   1.337186 D    
C40   C44   1.357692 A    
H49   C89   1.087324 S    
N23   N28   1.390891 A    
C32   H20   1.079495 S    
C50   C72   1.341718 A    
N25   Ni2   1.876877 S    
H45   C85   1.083675 S    
C30   N22   1.338837 A    
N19   N31   1.366039 A    
C29   N21   1.339572 A    
N13   Ni6   1.844441 S    
C16   C19   1.384711 A    
H43   C95   1.086887 S    
N6    Ni6   1.856362 S    
C43   C68   1.403825 S    
N2    Ni2   1.858645 S    
C77   H33   1.112130 S    
N15   Ni8   1.844442 S    
C28   C44   1.364743 A    
C73   C77   1.522728 S    
H41   C93   1.086827 S    
C38   N30   1.319796 A    
C86   C96   1.451481 S    
C41   C66   1.405923 S    
N18   Ni2   1.859313 S    
C37   N29   1.318993 A    
C76   I4    2.140603 S    
C11   C23   1.365525 A    
C80   H36   1.110820 S    
N30   Ni5   1.870716 S    
N1    Ni1   1.862809 S    
C39   N31   1.320135 A    
N19   Ni3   1.863567 S    
C28   N20   1.330167 A    
C75   I3    2.140669 S    
N6    N10   1.366034 A    
C79   H35   1.111117 S    
C4    N4    1.328492 A    
C15   N15   1.348648 A    
C73   I1    2.149375 S    
C36   N28   1.339081 A    
C33   I13   2.121279 S    
C10   C22   1.366404 A    
N21   Ni5   1.858453 S    
C74   C78   1.543081 S    
C59   C61   1.382732 A    
N2    N13   1.419079 A    
N23   Ni7   1.858453 S    
C13   C18   1.384732 A    
C2    H2    1.078797 S    
C27   N19   1.331084 A    
C67   C71   1.392214 A    
C57   C63   1.375132 A    
C37   C41   1.359155 A    
C15   C20   1.385709 A    
N24   N27   1.390805 A    
C58   C64   1.383677 A    
N16   Ni7   1.841808 S    
N8    N12   1.366034 A    
C92   C96   1.336925 D    
C11   H7    1.079564 S    
C49   C71   1.373651 A    
C31   C47   1.382908 A    
H46   C86   1.083806 S    
C39   H23   1.081462 S    
C26   C42   1.365551 A    
C83   H55   1.087380 S    
H51   C91   1.087321 S    
C40   H24   1.081441 S    
C16   H12   1.074773 S    
C1    N1    1.328729 A    
C51   C69   1.341730 A    
N20   N32   1.366036 A    
C8    C24   1.386186 A    
C66   C70   1.388424 A    
H42   C94   1.086860 S    
C89   C93   1.337584 D    
C76   I8    2.136316 S    
C42   C65   1.402947 S    
C55   C59   1.404631 A    
C26   N18   1.331127 A    
C3    H3    1.078905 S    
C9    N9    1.319008 A    
C84   H56   1.087418 S    
C61   C65   1.403001 A    
C52   C56   1.378088 A    
C27   C43   1.366047 A    
C40   N32   1.323775 A    
C11   N11   1.317247 A    
C58   H26   1.083541 S    
C15   H11   1.075412 S    
C34   I14   2.120168 S    
C54   C58   1.404575 A    
C57   H25   1.081448 S    
C49   C77   1.491558 S    
C87   C93   1.452346 S    
C20   C83   1.465546 S    
C34   N26   1.338818 A    
C59   H27   1.083638 S    
C21   C54   1.408022 S    
C33   N25   1.339119 A    
C8    N8    1.338227 A    
C47   C91   1.458518 S    
C23   C56   1.401879 S    
C65   C69   1.386311 A    
C60   C62   1.382048 A    
N3    N16   1.419000 A    
C14   C17   1.384727 A    
C50   C54   1.379886 A    
N11   Ni4   1.849461 S    
C30   C46   1.382684 A    
C4    C20   1.376860 A    
C70   C76   1.500424 S    
C29   C45   1.383084 A    
H50   C90   1.087346 S    
C5    C21   1.386354 A    
C35   C48   1.391960 A    
C72   C74   1.495686 S    
C36   I16   2.120981 S    
C61   H29   1.084289 S    
C7    C23   1.382361 A    
N27   Ni4   1.876876 S    
N18   N30   1.366036 A    
C38   H22   1.081534 S    
C75   I7    2.140863 S    
C26   H14   1.069796 S    
N26   Ni1   1.872655 S    
C49   C53   1.390199 A    
C16   N16   1.348143 A    
C31   N23   1.339243 A    
C73   I5    2.140935 S    
C50   C78   1.484902 S    
N22   N25   1.390805 A    
C25   N17   1.332906 A    
C2    N2    1.328699 A    
N14   Ni5   1.841807 S    
N21   N26   1.390891 A    
C52   C80   1.482100 S    
H52   C92   1.087362 S    
N31   Ni8   1.873580 S    
C12   H8    1.079289 S    
H47   C87   1.083690 S    
C82   C86   1.337968 D    
C45   C89   1.458645 S    
C71   C73   1.499213 S    
C64   H32   1.084242 S    
C85   C95   1.452722 S    
C37   H21   1.081735 S    
C78   H38   1.111025 S    
C14   H10   1.075274 S    
N28   Ni3   1.872655 S    
N5    Ni5   1.859177 S    
C76   C80   1.540433 S    
C74   I6    2.141042 S    
H44   C96   1.086916 S    
C39   C43   1.359619 A    
C25   H13   1.069742 S    
N29   Ni6   1.873581 S    
C52   C70   1.341466 A    
C44   C67   1.399726 S    
C7    I11   2.121301 S    
N12   Ni3   1.845261 S    
C88   C94   1.452033 S    
N8    Ni8   1.856364 S    
C53   C57   1.396025 A    
C64   C68   1.403222 A    
C82   H54   1.087436 S    
C51   C55   1.379804 A    
C18   C81   1.465697 S    
C60   H28   1.084125 S    
N22   Ni6   1.855772 S    
C13   N13   1.349285 A    
C68   C72   1.386299 A    
C10   N10   1.322989 A    
C35   N27   1.339097 A    
C74   I2    2.140209 S    
C32   N24   1.338947 A    
C1    C17   1.377404 A    
C6    C22   1.385031 A    
C83   C87   1.338806 D    
C29   H17   1.079562 S    
C6    I10   2.123947 S    
C36   C47   1.391886 A    
C3    C19   1.376897 A    
C5    I9    2.121700 S    
C13   H9    1.075011 S    
C34   C45   1.391749 A    
C31   H19   1.079648 S    
C35   I15   2.122954 S    
C33   C46   1.392375 A    
C62   H30   1.084222 S    
N7    Ni7   1.859177 S    
N4    Ni4   1.858645 S    
C63   C67   1.395070 A    
C56   C60   1.401115 A    
C69   C75   1.495700 S    
C10   H6    1.079729 S    
C5    N5    1.338249 A    
C24   C55   1.407301 S    
C25   C41   1.366911 A    
N20   Ni4   1.859312 S    
C28   H16   1.071886 S    
C30   H18   1.079922 S    
C46   C90   1.458091 S    
C78   H34   1.111091 S    
N32   Ni7   1.870716 S    
C51   C79   1.484836 S    
C81   C85   1.338645 D    
H48   C88   1.083726 S    
C8    I12   2.121992 S    
N17   N29   1.366039 A    
C77   H37   1.111179 S    
C32   C48   1.382326 A    
C91   C95   1.337601 D    
C84   C88   1.338378 D    
C79   H39   1.111032 S    
C62   C66   1.406823 A    
