data_mof_unit_55122.cif
_audit_creation_date              2012-12-10T19:58:06-0500
_audit_creation_method            fapswitch 2.2
_symmetry_space_group_name_H-M    P1
_symmetry_Int_Tables_number       1
_space_group_crystal_system       triclinic
_cell_length_a                    21.358123
_cell_length_b                    20.569126
_cell_length_c                    14.242514
_cell_angle_alpha                 89.659361
_cell_angle_beta                  90.006509
_cell_angle_gamma                 90.236465
_cell_volume                      6256.82777891

loop_
_atom_site_label
_atom_site_type_symbol
_atom_type_description
_atom_site_fract_x
_atom_site_fract_y
_atom_site_fract_z
_atom_type_partial_charge
C1    C     C_R   0.086223 0.414139 0.500133 0.917072
C2    C     C_R   0.914439 0.586561 0.499718 0.920287
C3    C     C_R   0.914593 0.412913 0.500331 0.920475
C4    C     C_R   0.086910 0.585408 0.499898 0.917198
C5    C     C_R   0.586252 0.914163 0.500131 0.917065
C6    C     C_R   0.414442 0.086552 0.499721 0.920327
C7    C     C_R   0.414596 0.912911 0.500332 0.920551
C8    C     C_R   0.586906 0.085407 0.499898 0.917166
C9    C     C_R   0.790566 0.298844 0.582485 0.460977
C10   C     C_R   0.200307 0.714919 0.435306 0.480683
C11   C     C_R   0.239886 0.655112 0.572510 0.471790
C12   C     C_R   0.842165 0.254091 0.442808 0.499458
C13   C     C_R   0.237665 0.338924 0.436528 0.455725
C14   C     C_R   0.838030 0.743923 0.550232 0.484335
C15   C     C_R   0.777466 0.685467 0.431260 0.436944
C16   C     C_R   0.185872 0.272633 0.557848 0.478221
C17   C     C_R   0.290542 0.798862 0.582441 0.460852
C18   C     C_R   0.700205 0.215006 0.435372 0.480780
C19   C     C_R   0.739887 0.155114 0.572429 0.471806
C20   C     C_R   0.342287 0.754000 0.442961 0.499509
C21   C     C_R   0.737743 0.839136 0.436185 0.456410
C22   C     C_R   0.337875 0.243848 0.550079 0.485217
C23   C     C_R   0.277057 0.184952 0.431855 0.436601
C24   C     C_R   0.686314 0.772979 0.557993 0.478067
C25   C     C_R   0.829353 0.353384 0.575576 -0.329699
C26   C     C_R   0.148154 0.674816 0.432515 -0.319591
C27   C     C_R   0.187074 0.615275 0.568622 -0.320261
C28   C     C_R   0.879425 0.309030 0.436715 -0.297532
C29   C     C_R   0.187483 0.381898 0.439150 -0.318552
C30   C     C_R   0.879410 0.692074 0.555414 -0.312115
C31   C     C_R   0.820124 0.634927 0.435124 -0.312224
C32   C     C_R   0.136686 0.316402 0.560392 -0.319505
C33   C     C_R   0.329314 0.853411 0.575511 -0.329628
C34   C     C_R   0.648072 0.174879 0.432580 -0.319722
C35   C     C_R   0.687091 0.115256 0.568548 -0.320241
C36   C     C_R   0.379529 0.808955 0.436836 -0.297635
C37   C     C_R   0.687485 0.882017 0.438872 -0.318204
C38   C     C_R   0.379392 0.192101 0.555180 -0.313466
C39   C     C_R   0.319854 0.134561 0.435545 -0.311370
C40   C     C_R   0.637051 0.816656 0.560594 -0.319432
C41   C     C_R   0.872690 0.358401 0.502606 -0.169176
C42   C     C_R   0.141155 0.626390 0.500490 -0.149127
C43   C     C_R   0.137389 0.369827 0.499853 -0.140599
C44   C     C_R   0.869987 0.638092 0.498089 -0.148222
C45   C     C_R   0.372708 0.858386 0.502615 -0.169264
C46   C     C_R   0.641135 0.126400 0.500485 -0.149039
C47   C     C_R   0.637523 0.869962 0.499835 -0.140915
C48   C     C_R   0.369915 0.137994 0.498118 -0.147785
C49   C     C_R   0.974730 0.447516 0.104989 0.356377
C50   C     C_R   0.976740 0.553434 0.894841 0.369232
C51   C     C_R   0.025225 0.552640 0.104187 0.360966
C52   C     C_R   0.023444 0.446877 0.895957 0.376797
C53   C     C_R   0.474717 0.947508 0.104997 0.356494
C54   C     C_R   0.476695 0.053405 0.894846 0.369428
C55   C     C_R   0.525193 0.052642 0.104176 0.360722
C56   C     C_R   0.523446 0.946872 0.895955 0.376490
C57   C     C_R   0.795985 0.250985 0.512920 -0.040080
C58   C     C_R   0.246196 0.704059 0.504391 -0.020695
C59   C     C_R   0.236440 0.285346 0.497537 0.016152
C60   C     C_R   0.785656 0.738320 0.491692 -0.004621
C61   C     C_R   0.296035 0.750945 0.512971 -0.040228
C62   C     C_R   0.746140 0.204109 0.504371 -0.020799
C63   C     C_R   0.736748 0.785675 0.497415 0.016188
C64   C     C_R   0.285330 0.237975 0.491945 -0.004235
C65   C     C_R   0.981256 0.445762 0.203746 0.316930
C66   C     C_R   0.982335 0.554566 0.796148 0.333741
C67   C     C_R   0.018916 0.554267 0.202973 0.316029
C68   C     C_R   0.017823 0.445537 0.797216 0.325213
C69   C     C_R   0.481251 0.945759 0.203754 0.316883
C70   C     C_R   0.482307 0.054554 0.796153 0.333232
C71   C     C_R   0.518906 0.054267 0.202965 0.316061
C72   C     C_R   0.517833 0.945538 0.797213 0.325419
C73   C     C_R   0.999952 0.500112 0.053290 -0.137425
C74   C     C_R   0.999953 0.500124 0.946930 -0.176851
C75   C     C_R   0.499926 0.000106 0.053289 -0.137034
C76   C     C_R   0.499935 0.000109 0.946930 -0.176650
H1    H     H_    0.824730 0.393165 0.624338 0.161522
H2    H     H_    0.112606 0.682638 0.379375 0.197905
H3    H     H_    0.181778 0.575253 0.617638 0.163819
H4    H     H_    0.914021 0.312614 0.381372 0.206542
H5    H     H_    0.187642 0.425242 0.395723 0.161124
H6    H     H_    0.919060 0.694222 0.602761 0.185462
H7    H     H_    0.813490 0.592580 0.391314 0.165545
H8    H     H_    0.097800 0.308271 0.607966 0.185550
H9    H     H_    0.324633 0.893230 0.624198 0.161498
H10   H     H_    0.612487 0.182726 0.379502 0.197794
H11   H     H_    0.681833 0.075200 0.617515 0.163789
H12   H     H_    0.414180 0.812503 0.381566 0.206431
H13   H     H_    0.687479 0.925273 0.395262 0.161175
H14   H     H_    0.419166 0.194393 0.602277 0.184648
H15   H     H_    0.313172 0.092126 0.391922 0.165749
H16   H     H_    0.598265 0.808516 0.608347 0.185952
N1    N     N_R   1.000000 0.500000 0.252470 -0.225665
N2    N     N_R   0.000000 0.500000 0.747530 -0.238200
N3    N     N_R   0.500000 0.000000 0.252470 -0.225638
N4    N     N_R   0.500000 0.000000 0.747530 -0.238127
O1    O     O_R   0.065470 0.434530 0.579480 -0.598290
O2    O     O_R   0.934530 0.565470 0.420520 -0.644864
O3    O     O_R   0.934530 0.565470 0.579480 -0.595815
O4    O     O_R   0.065470 0.434530 0.420520 -0.645879
O5    O     O_R   0.934530 0.434530 0.420520 -0.601671
O6    O     O_R   0.065470 0.565470 0.579480 -0.646738
O7    O     O_R   0.065470 0.565470 0.420520 -0.599449
O8    O     O_R   0.934530 0.434530 0.579480 -0.643029
O9    O     O_R   0.565470 0.934530 0.579480 -0.598345
O10   O     O_R   0.434530 0.065470 0.420520 -0.644852
O11   O     O_R   0.434530 0.065470 0.579480 -0.595726
O12   O     O_R   0.565470 0.934530 0.420520 -0.645889
O13   O     O_R   0.434530 0.934530 0.420520 -0.601630
O14   O     O_R   0.565470 0.065470 0.579480 -0.646730
O15   O     O_R   0.565470 0.065470 0.420520 -0.599478
O16   O     O_R   0.434530 0.934530 0.579480 -0.642995
Zn1   Zn    Zn3+2 1.000000 0.500000 0.606140 0.934450
Zn2   Zn    Zn3+2 1.000000 0.500000 0.393860 0.929685
Zn3   Zn    Zn3+2 0.500000 0.000000 0.606140 0.934453
Zn4   Zn    Zn3+2 0.500000 0.000000 0.393860 0.929728
O17   O     O_3   0.949038 0.394907 0.058412 -0.560160
C77   C     C_3   0.883318 0.395806 0.069335 0.132455
H17   H     H_    0.870298 0.384209 0.143263 0.187829
H18   H     H_    0.863715 0.444147 0.049654 0.081538
C78   C     C_3   0.854282 0.344617 0.005114 -0.313153
H19   H     H_    0.865186 0.356993 0.930767 0.213074
H20   H     H_    0.874759 0.296248 0.021423 0.245709
C79   C     C_3   0.783366 0.340904 0.017529 -1.000484
H21   H     H_    0.771493 0.325832 0.090441 0.287285
H22   H     H_    0.763574 0.304584 0.968288 0.263324
H23   H     H_    0.761822 0.388888 0.002375 0.258269
O18   O     O_3   0.953145 0.607421 0.939805 -0.520962
C80   C     C_3   0.888246 0.598242 0.953615 0.154087
H24   H     H_    0.863769 0.593785 0.884816 0.116081
H25   H     H_    0.878610 0.553771 0.996247 0.086103
C81   C     C_3   0.861124 0.656933 0.004684 -0.350649
H26   H     H_    0.871306 0.701893 0.963668 0.238607
H27   H     H_    0.809450 0.651266 0.009587 0.154386
C82   C     C_3   0.887875 0.663827 0.103618 -0.786871
H28   H     H_    0.877201 0.619776 0.146331 0.225554
H29   H     H_    0.866655 0.706696 0.138023 0.212883
H30   H     H_    0.939336 0.671335 0.100873 0.323999
O19   O     O_3   0.051170 0.605052 0.056610 -0.564302
C83   C     C_3   0.116891 0.604385 0.067827 0.137100
H31   H     H_    0.129604 0.623734 0.138111 0.193464
H32   H     H_    0.136494 0.554471 0.060484 0.082042
C84   C     C_3   0.146374 0.647678 0.992093 -0.324906
H33   H     H_    0.134936 0.627716 0.921719 0.214637
H34   H     H_    0.126624 0.697479 0.996713 0.243137
C85   C     C_3   0.217386 0.651572 0.002877 -0.998988
H35   H     H_    0.229851 0.674283 0.070978 0.291311
H36   H     H_    0.237358 0.681666 0.945156 0.252925
H37   H     H_    0.238208 0.602249 0.999568 0.260739
O20   O     O_3   0.048539 0.393799 0.942349 -0.521391
C86   C     C_3   0.113747 0.403664 0.951489 0.150384
H38   H     H_    0.136474 0.402979 0.881098 0.124431
H39   H     H_    0.124606 0.450981 0.985648 0.085267
C87   C     C_3   0.142202 0.349051 0.010862 -0.351329
H40   H     H_    0.131377 0.301329 0.978297 0.236166
H41   H     H_    0.193930 0.355171 0.012217 0.157779
C88   C     C_3   0.117798 0.349434 0.111688 -0.791474
H42   H     H_    0.126993 0.397271 0.144933 0.223501
H43   H     H_    0.141866 0.311117 0.153197 0.213985
H44   H     H_    0.066758 0.339137 0.112932 0.321026
O21   O     O_3   0.449021 0.894900 0.058423 -0.560278
C89   C     C_3   0.383305 0.895766 0.069414 0.132524
H45   H     H_    0.370324 0.884028 0.143311 0.187967
H46   H     H_    0.363676 0.944137 0.049946 0.081726
C90   C     C_3   0.354252 0.844688 0.005024 -0.313356
H47   H     H_    0.365150 0.857185 0.930715 0.213112
H48   H     H_    0.374724 0.796290 0.021162 0.245694
C91   C     C_3   0.283336 0.840969 0.017443 -1.000557
H49   H     H_    0.271467 0.825810 0.090319 0.287233
H50   H     H_    0.263538 0.804710 0.968113 0.263271
H51   H     H_    0.261798 0.888972 0.002411 0.258305
O22   O     O_3   0.452994 0.107328 0.939844 -0.521051
C92   C     C_3   0.388045 0.098158 0.953139 0.153854
H52   H     H_    0.363774 0.094106 0.884125 0.116899
H53   H     H_    0.378222 0.053468 0.995199 0.086049
C93   C     C_3   0.360834 0.156598 0.004697 -0.350464
H54   H     H_    0.371221 0.201773 0.964297 0.238520
H55   H     H_    0.309137 0.150985 0.009132 0.154528
C94   C     C_3   0.387251 0.162878 0.103921 -0.787702
H56   H     H_    0.376431 0.118572 0.145995 0.225498
H57   H     H_    0.365918 0.205531 0.138715 0.213151
H58   H     H_    0.438720 0.170397 0.101650 0.323792
O23   O     O_3   0.551102 0.105067 0.056585 -0.564155
C95   C     C_3   0.616829 0.104416 0.067731 0.137174
H59   H     H_    0.629571 0.123791 0.137987 0.193464
H60   H     H_    0.636440 0.054504 0.060404 0.081922
C96   C     C_3   0.646268 0.147687 0.991932 -0.324746
H61   H     H_    0.634780 0.127711 0.921585 0.214660
H62   H     H_    0.626528 0.197492 0.996559 0.243137
C97   C     C_3   0.717287 0.151571 0.002607 -0.999194
H63   H     H_    0.729802 0.174290 0.070683 0.291287
H64   H     H_    0.737225 0.181655 0.944847 0.252864
H65   H     H_    0.738100 0.102245 0.999279 0.260744
O24   O     O_3   0.548518 0.893781 0.942342 -0.521389
C98   C     C_3   0.613715 0.903659 0.951618 0.150479
H66   H     H_    0.636499 0.903083 0.881264 0.124241
H67   H     H_    0.624525 0.950930 0.985936 0.085249
C99   C     C_3   0.642146 0.848975 0.010881 -0.351561
H68   H     H_    0.631371 0.801296 0.978149 0.236192
H69   H     H_    0.693870 0.855118 0.012356 0.157727
C100  C     C_3   0.617654 0.849197 0.111663 -0.791290
H70   H     H_    0.626827 0.896977 0.145086 0.223476
H71   H     H_    0.641680 0.810807 0.153088 0.214228
H72   H     H_    0.566611 0.838907 0.112775 0.321134
O25   O     O_3   0.740583 0.295028 0.645321 -0.641310
C101  C     C_3   0.755585 0.317214 0.736649 0.121631
H73   H     H_    0.806748 0.322529 0.750259 0.087786
H74   H     H_    0.739158 0.279951 0.787861 0.139529
C102  C     C_3   0.721578 0.381105 0.757078 -0.380296
H75   H     H_    0.735941 0.398778 0.827430 0.181313
H76   H     H_    0.734891 0.418780 0.704573 0.210305
C103  C     C_3   0.650513 0.372506 0.755578 -0.792915
H77   H     H_    0.634544 0.357339 0.684743 0.274148
H78   H     H_    0.627781 0.419368 0.772974 0.230704
H79   H     H_    0.635781 0.335420 0.808211 0.249556
O26   O     O_3   0.207044 0.764821 0.370470 -0.618284
C104  C     C_3   0.173232 0.819599 0.401639 0.060448
H80   H     H_    0.175408 0.825685 0.479465 0.159429
H81   H     H_    0.123317 0.814621 0.380397 0.144690
C105  C     C_3   0.201058 0.880708 0.356139 -0.301228
H82   H     H_    0.251885 0.883528 0.372619 0.237131
H83   H     H_    0.195596 0.877941 0.278643 0.225702
C106  C     C_3   0.169269 0.942154 0.391784 -0.987870
H84   H     H_    0.118422 0.940963 0.375431 0.268159
H85   H     H_    0.190462 0.985464 0.357208 0.273504
H86   H     H_    0.175773 0.946622 0.468878 0.275686
O27   O     O_3   0.288437 0.644682 0.635959 -0.641613
C107  C     C_3   0.266943 0.635936 0.729416 0.138566
H87   H     H_    0.216553 0.647876 0.740195 0.094422
H88   H     H_    0.293246 0.670156 0.774964 0.146648
C108  C     C_3   0.279871 0.566390 0.763202 -0.385691
H89   H     H_    0.260086 0.559816 0.834778 0.177323
H90   H     H_    0.256564 0.530885 0.716199 0.215712
C109  C     C_3   0.349899 0.551883 0.766221 -0.794353
H91   H     H_    0.370620 0.556801 0.695025 0.280282
H92   H     H_    0.357282 0.501334 0.791529 0.231183
H93   H     H_    0.374096 0.585749 0.814804 0.245680
O28   O     O_3   0.846047 0.207488 0.373344 -0.617823
C110  C     C_3   0.877938 0.152163 0.408198 0.068898
H94   H     H_    0.860002 0.109166 0.369566 0.173857
H95   H     H_    0.869001 0.142221 0.484142 0.157885
C111  C     C_3   0.948443 0.158499 0.390175 -0.357269
H96   H     H_    0.956780 0.167462 0.314148 0.243833
H97   H     H_    0.967543 0.200366 0.430127 0.209733
C112  C     C_3   0.983072 0.097089 0.420245 -0.971902
H98   H     H_    0.976278 0.087935 0.496502 0.271664
H99   H     H_    0.033864 0.103327 0.406306 0.265458
H100  H     H_    0.965797 0.054485 0.380121 0.266786
O29   O     O_3   0.290898 0.350607 0.382683 -0.639559
C113  C     C_3   0.276616 0.366015 0.287950 0.091804
H101  H     H_    0.226603 0.358271 0.268276 0.081683
H102  H     H_    0.303803 0.332782 0.242363 0.140641
C114  C     C_3   0.295972 0.436210 0.265167 -0.346100
H103  H     H_    0.284696 0.446786 0.190446 0.169620
H104  H     H_    0.269087 0.470558 0.309264 0.210070
C115  C     C_3   0.365885 0.447718 0.281048 -0.800500
H105  H     H_    0.377945 0.440634 0.356276 0.275998
H106  H     H_    0.378146 0.498389 0.260688 0.228126
H107  H     H_    0.393918 0.413851 0.237691 0.244979
O30   O     O_3   0.845918 0.798344 0.605881 -0.624984
C116  C     C_3   0.898216 0.834180 0.572933 0.081215
H108  H     H_    0.896290 0.841253 0.495195 0.166191
H109  H     H_    0.942355 0.808636 0.591799 0.134606
C117  C     C_3   0.898722 0.901162 0.618799 -0.299073
H110  H     H_    0.854731 0.927175 0.600885 0.236749
H111  H     H_    0.901108 0.895324 0.696353 0.227308
C118  C     C_3   0.954618 0.941759 0.585569 -0.989231
H112  H     H_    0.999206 0.916896 0.603275 0.269948
H113  H     H_    0.954214 0.989745 0.620754 0.264780
H114  H     H_    0.952226 0.949790 0.508459 0.267678
O31   O     O_3   0.724322 0.680923 0.375936 -0.642951
C119  C     C_3   0.740089 0.684754 0.279407 0.114890
H115  H     H_    0.790931 0.692878 0.265080 0.084433
H116  H     H_    0.715262 0.727049 0.248246 0.135964
C120  C     C_3   0.719013 0.622951 0.228839 -0.367342
H117  H     H_    0.731140 0.627411 0.153184 0.173268
H118  H     H_    0.744391 0.580333 0.257910 0.204330
C121  C     C_3   0.648567 0.611464 0.238061 -0.786825
H119  H     H_    0.635586 0.603686 0.312803 0.276116
H120  H     H_    0.635084 0.567429 0.198002 0.230832
H121  H     H_    0.622300 0.653709 0.209574 0.247897
O32   O     O_3   0.186983 0.218858 0.616864 -0.630560
C122  C     C_3   0.140351 0.173854 0.589206 0.078252
H122  H     H_    0.135838 0.170709 0.511235 0.170990
H123  H     H_    0.094430 0.188223 0.619366 0.145119
C123  C     C_3   0.157939 0.106542 0.626656 -0.297058
H124  H     H_    0.204644 0.092817 0.598713 0.233095
H125  H     H_    0.160878 0.107994 0.704540 0.226013
C124  C     C_3   0.110100 0.055037 0.597957 -0.990941
H126  H     H_    0.062992 0.067497 0.625353 0.269625
H127  H     H_    0.124004 0.007080 0.627277 0.268887
H128  H     H_    0.108063 0.051189 0.520292 0.278371
O33   O     O_3   0.240505 0.795093 0.645183 -0.641287
C125  C     C_3   0.255461 0.817273 0.736531 0.121669
H129  H     H_    0.306617 0.822596 0.750200 0.087799
H130  H     H_    0.239009 0.780006 0.787720 0.139500
C126  C     C_3   0.221443 0.881161 0.756934 -0.380417
H131  H     H_    0.235743 0.898808 0.827329 0.181311
H132  H     H_    0.234811 0.918852 0.704484 0.210272
C127  C     C_3   0.150378 0.872576 0.755279 -0.792563
H133  H     H_    0.134471 0.857440 0.684399 0.274131
H134  H     H_    0.127637 0.919435 0.772666 0.230715
H135  H     H_    0.135591 0.835472 0.807852 0.249546
O34   O     O_3   0.706868 0.264989 0.370648 -0.618217
C128  C     C_3   0.672931 0.319650 0.401929 0.060600
H136  H     H_    0.675271 0.325763 0.479739 0.159481
H137  H     H_    0.622985 0.314484 0.380937 0.144537
C129  C     C_3   0.700445 0.380846 0.356256 -0.301254
H138  H     H_    0.751292 0.383885 0.372531 0.236978
H139  H     H_    0.694853 0.378021 0.278785 0.225756
C130  C     C_3   0.668475 0.442168 0.391977 -0.988110
H140  H     H_    0.617597 0.440738 0.375878 0.268234
H141  H     H_    0.689407 0.485556 0.357250 0.273361
H142  H     H_    0.675130 0.446704 0.469033 0.275687
O35   O     O_3   0.788470 0.144665 0.635816 -0.641536
C131  C     C_3   0.767017 0.135883 0.729289 0.138681
H143  H     H_    0.716626 0.147801 0.740122 0.094434
H144  H     H_    0.793326 0.170099 0.774835 0.146694
C132  C     C_3   0.779981 0.066332 0.763015 -0.385591
H145  H     H_    0.760193 0.059711 0.834581 0.177325
H146  H     H_    0.756701 0.030835 0.715970 0.215719
C133  C     C_3   0.850018 0.051873 0.766034 -0.795014
H147  H     H_    0.870755 0.056923 0.694867 0.280510
H148  H     H_    0.857430 0.001290 0.791179 0.231376
H149  H     H_    0.874175 0.085682 0.814742 0.245697
O36   O     O_3   0.346282 0.707312 0.373632 -0.617827
C134  C     C_3   0.378145 0.652043 0.408735 0.068952
H150  H     H_    0.360265 0.608984 0.370188 0.173742
H151  H     H_    0.369120 0.642206 0.484683 0.158041
C135  C     C_3   0.448670 0.658367 0.390885 -0.357438
H152  H     H_    0.457102 0.667111 0.314830 0.243744
H153  H     H_    0.467696 0.700363 0.430634 0.209867
C136  C     C_3   0.483293 0.597066 0.421443 -0.971439
H154  H     H_    0.476427 0.588157 0.497742 0.271466
H155  H     H_    0.534097 0.603279 0.407592 0.265222
H156  H     H_    0.466077 0.554325 0.381567 0.266864
O37   O     O_3   0.790828 0.850805 0.382008 -0.640134
C137  C     C_3   0.776294 0.865958 0.287277 0.092822
H157  H     H_    0.726250 0.858062 0.267910 0.082204
H158  H     H_    0.803439 0.832673 0.241711 0.140530
C138  C     C_3   0.795458 0.936140 0.264044 -0.346938
H159  H     H_    0.783962 0.946520 0.189341 0.169586
H160  H     H_    0.768625 0.970535 0.308135 0.210173
C139  C     C_3   0.865392 0.947827 0.279449 -0.800242
H161  H     H_    0.877676 0.940907 0.354627 0.275728
H162  H     H_    0.877497 0.998488 0.258824 0.228225
H163  H     H_    0.893371 0.913941 0.236045 0.244947
O38   O     O_3   0.345736 0.298415 0.605461 -0.625111
C140  C     C_3   0.398413 0.333901 0.573082 0.082465
H164  H     H_    0.397432 0.340176 0.495158 0.164787
H165  H     H_    0.442299 0.308543 0.593708 0.135047
C141  C     C_3   0.398379 0.401363 0.617473 -0.298796
H166  H     H_    0.354678 0.427238 0.597618 0.236916
H167  H     H_    0.399678 0.396340 0.695198 0.227281
C142  C     C_3   0.454773 0.441551 0.585129 -0.989490
H168  H     H_    0.499071 0.416876 0.604924 0.270013
H169  H     H_    0.453870 0.489943 0.619117 0.264826
H170  H     H_    0.453533 0.448687 0.507782 0.267445
O39   O     O_3   0.223804 0.180125 0.376858 -0.642975
C143  C     C_3   0.239261 0.185198 0.280330 0.114556
H171  H     H_    0.289945 0.194285 0.265877 0.083973
H172  H     H_    0.213716 0.227390 0.250218 0.136080
C144  C     C_3   0.218993 0.123580 0.228589 -0.366785
H173  H     H_    0.230876 0.128982 0.152969 0.173522
H174  H     H_    0.245079 0.081106 0.256656 0.204447
C145  C     C_3   0.148743 0.110866 0.237934 -0.787477
H175  H     H_    0.136041 0.102163 0.312581 0.276279
H176  H     H_    0.135831 0.067015 0.197053 0.230885
H177  H     H_    0.121782 0.152944 0.210433 0.247977
O40   O     O_3   0.687559 0.719244 0.617074 -0.630329
C146  C     C_3   0.641070 0.674095 0.589372 0.077627
H178  H     H_    0.636800 0.670749 0.511390 0.170670
H179  H     H_    0.595039 0.688464 0.619156 0.145309
C147  C     C_3   0.658640 0.606901 0.627276 -0.297383
H180  H     H_    0.705405 0.593137 0.599597 0.232911
H181  H     H_    0.661436 0.608561 0.705161 0.226250
C148  C     C_3   0.610881 0.555289 0.598666 -0.990879
H182  H     H_    0.563737 0.567733 0.625938 0.269760
H183  H     H_    0.624818 0.507395 0.628169 0.268887
H184  H     H_    0.608900 0.551320 0.521012 0.278258
O41   O     O_3   0.969445 0.387837 0.248802 -0.754701
H185  H     H_    0.997789 0.385723 0.303421 0.368731
O42   O     O_3   0.969692 0.612098 0.750785 -0.722874
H186  H     H_    0.997777 0.614554 0.695887 0.365414
O43   O     O_3   0.031305 0.611989 0.247324 -0.754671
H187  H     H_    0.003134 0.614189 0.302108 0.371187
O44   O     O_3   0.030710 0.388032 0.752902 -0.726967
H188  H     H_    0.003000 0.385666 0.697579 0.367337
O45   O     O_3   0.469447 0.887835 0.248817 -0.754657
H189  H     H_    0.497797 0.885724 0.303428 0.368776
O46   O     O_3   0.469650 0.112086 0.750796 -0.722986
H190  H     H_    0.497747 0.114558 0.695911 0.365458
O47   O     O_3   0.531303 0.111988 0.247311 -0.754617
H191  H     H_    0.503142 0.114189 0.302106 0.371201
O48   O     O_3   0.530731 0.888038 0.752894 -0.727006
H192  H     H_    0.503010 0.885663 0.697584 0.367335

loop_
_geom_bond_atom_site_label_1
_geom_bond_atom_site_label_2
_ccdc_geom_bond_type
C133  H148  S    
C88   H42   S    
C68   O44   S    
C33   C45   A    
C106  H84   S    
C53   C69   A    
O37   C137  S    
C106  H86   S    
C5    O9    A    
C136  H154  S    
O32   C122  S    
O43   H187  S    
C70   O46   S    
O2    Zn2   S    
C133  H149  S    
C71   N3    A    
C113  H102  S    
O31   C119  S    
C22   C38   A    
C115  H107  S    
C126  H132  S    
C143  H171  S    
C148  H184  S    
C17   C61   A    
C93   C94   S    
C120  H117  S    
C119  H115  S    
C56   C72   A    
C4    O6    A    
C111  H97   S    
C52   O20   S    
O36   C134  S    
C129  C130  S    
C98   C99   S    
C113  C114  S    
C12   O28   S    
C112  H98   S    
C53   C75   A    
C109  H92   S    
C39   H15   S    
C107  H87   S    
C89   H46   S    
C111  C112  S    
C135  H152  S    
C83   H31   S    
C8    O15   A    
C25   C41   A    
C22   O38   S    
C101  H73   S    
C131  H143  S    
C109  H93   S    
C30   H6    S    
C75   C76   S    
C89   C90   S    
C142  H168  S    
C54   C70   A    
C11   C27   A    
C141  H166  S    
C120  C121  S    
C6    O10   A    
C87   H40   S    
C92   H53   S    
C79   H23   S    
C91   H49   S    
C88   H44   S    
O41   H185  S    
C49   C73   A    
O42   H186  S    
C127  H133  S    
C116  H109  S    
C85   H35   S    
C136  H156  S    
C82   H29   S    
C123  C124  S    
C21   O37   S    
C69   N3    A    
O19   C83   S    
C13   O29   S    
O47   H191  S    
C38   H14   S    
C19   C35   A    
C123  H125  S    
C119  C120  S    
O38   C140  S    
C108  C109  S    
N1    Zn2   S    
C86   H39   S    
C77   H18   S    
C78   H20   S    
C98   H66   S    
C72   N4    A    
C96   H61   S    
C103  H77   S    
C81   H27   S    
C112  H100  S    
O39   C143  S    
C99   H69   S    
C16   C59   A    
C107  C108  S    
C55   C71   A    
C84   H33   S    
C132  H146  S    
C140  H164  S    
C15   C60   A    
C83   C84   S    
O18   C80   S    
C102  C103  S    
O40   C146  S    
C17   O33   S    
C36   H12   S    
O29   C113  S    
C26   H2    S    
C131  C132  S    
C10   C58   A    
C52   C74   A    
C50   C74   A    
C114  H103  S    
C118  H114  S    
C141  C142  S    
C7    O16   A    
C20   C61   A    
C33   H9    S    
C147  H180  S    
C69   O45   S    
C35   H11   S    
C1    C43   S    
C91   H51   S    
C49   O17   S    
C2    C44   S    
C117  H110  S    
C128  H137  S    
C115  H106  S    
C34   C46   A    
C37   C47   A    
C11   C58   A    
C38   C48   A    
O13   Zn4   S    
C127  H135  S    
C55   C75   A    
C3    O5    A    
C93   H55   S    
C90   H48   S    
C122  C123  S    
C100  H71   S    
C105  H82   S    
N2    Zn1   S    
C129  H139  S    
C124  H126  S    
C138  H160  S    
C54   O22   S    
O7    Zn2   S    
O4    Zn2   S    
C134  H151  S    
C18   C62   A    
C104  H80   S    
C121  H121  S    
C68   N2    A    
C94   H56   S    
C147  C148  S    
C70   N4    A    
O33   C125  S    
C8    O14   A    
C18   C34   A    
C103  H79   S    
N3    Zn4   S    
C86   H38   S    
C146  C147  S    
C102  H75   S    
C6    O11   A    
C110  H95   S    
C51   C67   A    
C145  H177  S    
C56   O24   S    
C12   C57   A    
C142  H169  S    
C2    O3    A    
C140  C141  S    
C137  H158  S    
C130  H141  S    
C144  C145  S    
C66   O42   S    
C26   C42   A    
C79   H22   S    
C80   H24   S    
C93   H54   S    
O9    Zn3   S    
O30   C116  S    
C114  C115  S    
C118  H112  S    
C106  H85   S    
C15   C31   A    
C13   C59   A    
C16   C32   A    
C137  C138  S    
C14   C60   A    
C95   C96   S    
C94   H58   S    
C14   O30   S    
O17   C77   S    
C27   C42   A    
C10   O26   S    
C67   O43   S    
C4    C42   S    
C58   C61   S    
C117  C118  S    
C126  C127  S    
C32   C43   A    
O24   C98   S    
C8    C46   S    
C148  H183  S    
O8    Zn1   S    
C139  H161  S    
C11   O27   S    
C122  H122  S    
C67   N1    A    
O20   C86   S    
C105  C106  S    
C98   H67   S    
C65   O41   S    
C84   C85   S    
C82   H30   S    
C73   C74   S    
C110  H94   S    
C107  H88   S    
O21   C89   S    
C9    C25   A    
C82   H28   S    
O22   C92   S    
C104  C105  S    
C97   H63   S    
C135  H153  S    
C12   C28   A    
C13   C29   A    
C83   H32   S    
C125  H129  S    
C101  H74   S    
C92   C93   S    
C146  H178  S    
C28   C41   A    
C124  H128  S    
C131  H144  S    
C126  H131  S    
C145  H175  S    
C96   C97   S    
C97   H65   S    
C3    C41   S    
C135  C136  S    
C141  H167  S    
C144  H173  S    
O15   Zn4   S    
C87   H41   S    
C80   C81   S    
C91   H50   S    
C133  H147  S    
O35   C131  S    
C88   H43   S    
C29   C43   A    
O5    Zn2   S    
C30   C44   A    
C17   C33   A    
C1    O4    A    
C143  H172  S    
C127  H134  S    
C85   H36   S    
C136  H155  S    
C32   H8    S    
C57   C62   S    
C125  C126  S    
C113  H101  S    
O25   C101  S    
O10   Zn4   S    
C24   O40   S    
C116  C117  S    
C85   H37   S    
C139  H163  S    
C111  H96   S    
C71   O47   S    
C78   H19   S    
C49   C65   A    
C87   C88   S    
C103  H78   S    
C112  H99   S    
C50   O18   S    
C109  H91   S    
C89   H45   S    
O28   C110  S    
C24   C40   A    
C97   H64   S    
C72   O48   S    
C23   O39   S    
O3    Zn1   S    
O48   H192  S    
C37   H13   S    
O12   Zn4   S    
C134  H150  S    
O6    Zn1   S    
C118  H113  S    
C116  H108  S    
C95   H60   S    
C147  H181  S    
C21   C63   A    
C22   C64   A    
C132  H145  S    
C20   C36   A    
C21   C37   A    
C117  H111  S    
C128  H136  S    
C55   O23   S    
C19   O35   S    
C35   C46   A    
O14   Zn3   S    
C39   C48   A    
C5    O12   A    
C3    O8    A    
C40   C47   A    
C130  H140  S    
C90   H47   S    
C56   C76   A    
C122  H123  S    
C100  H70   S    
O23   C95   S    
C20   O36   S    
C105  H83   S    
O46   H190  S    
C92   H52   S    
C95   H59   S    
C29   H5    S    
C5    C47   S    
C59   C64   S    
C6    C48   S    
C60   C63   S    
C25   H1    S    
C7    C45   S    
C120  H118  S    
C27   H3    S    
C123  H124  S    
C19   C62   A    
C4    O7    A    
C31   H7    S    
C34   H10   S    
C86   C87   S    
C77   H17   S    
C78   C79   S    
C102  H76   S    
O27   C107  S    
C81   H26   S    
C146  H179  S    
C18   O34   S    
N4    Zn3   S    
C99   H68   S    
C52   C68   A    
C66   N2    A    
C10   C26   A    
C132  C133  S    
C140  H165  S    
C144  H174  S    
C14   C30   A    
C15   O31   S    
C31   C44   A    
O26   C104  S    
C108  H90   S    
C1    O1    A    
C114  H104  S    
C7    O13   A    
C77   C78   S    
C128  C129  S    
C115  H105  S    
C99   C100  S    
C36   C45   A    
C40   H16   S    
C50   C66   A    
O11   Zn3   S    
C148  H182  S    
C54   C76   A    
C119  H116  S    
O34   C128  S    
C139  H162  S    
C90   C91   S    
C100  H72   S    
C121  H120  S    
O1    Zn1   S    
C129  H138  S    
C138  C139  S    
C84   H34   S    
C23   C64   A    
C121  H119  S    
C51   C73   A    
C134  C135  S    
C24   C63   A    
C9    O25   S    
C125  H130  S    
C101  C102  S    
C53   O21   S    
O45   H189  S    
C81   C82   S    
C23   C39   A    
C65   N1    A    
C124  H127  S    
C110  C111  S    
C9    C57   A    
C143  C144  S    
C16   O32   S    
C104  H81   S    
C28   H4    S    
C145  H176  S    
C96   H62   S    
C142  H170  S    
C2    O2    A    
C137  H157  S    
C130  H142  S    
C108  H89   S    
C138  H159  S    
C80   H25   S    
O16   Zn3   S    
O44   H188  S    
C51   O19   S    
C79   H21   S    
C94   H57   S    
