data_mof_unit_66595.cif
_audit_creation_date              2012-10-26T19:59:34-0400
_audit_creation_method            fapswitch 2.2
_symmetry_space_group_name_H-M    P1
_symmetry_Int_Tables_number       1
_space_group_crystal_system       triclinic
_cell_length_a                    10.84733
_cell_length_b                    8.734251
_cell_length_c                    7.508427
_cell_angle_alpha                 102.370328
_cell_angle_beta                  95.377676
_cell_angle_gamma                 93.753221
_cell_volume                      689.117865458

loop_
_atom_site_label
_atom_site_type_symbol
_atom_type_description
_atom_site_fract_x
_atom_site_fract_y
_atom_site_fract_z
_atom_type_partial_charge
C1    C     C_R   0.491036 0.200691 0.455203 0.502986
C2    C     C_R   0.505302 0.799488 0.545597 0.574507
C3    C     C_R   0.737704 0.505880 0.500986 0.530727
C4    C     C_R   0.150997 0.800838 0.667451 0.059998
C5    C     C_R   0.093108 0.942275 0.678854 0.027166
C6    C     C_R   0.965257 0.935589 0.690672 -0.073265
C7    C     C_R   0.899766 0.790368 0.680115 -0.022139
C8    C     C_R   0.948520 0.651897 0.588479 0.040642
C9    C     C_2   0.581875 0.694068 0.066038 0.491476
C10   C     C_2   0.250622 0.801269 0.816219 0.571863
C11   C     C_2   0.166706 0.097126 0.711355 0.263467
C12   C     C_R   0.078601 0.656245 0.586395 0.026622
C13   C     C_2   0.827754 0.785467 0.835320 0.293833
C14   C     C_2   0.850878 0.223239 0.336246 0.275597
C15   C     C_2   0.353393 0.961978 0.310155 0.182956
C16   C     C_2   0.616256 0.052304 0.717551 0.549421
C17   C     C_R   0.130928 0.516674 0.506508 0.035666
C18   C     C_R   0.055533 0.380108 0.422333 -0.051974
C19   C     C_R   0.926813 0.374315 0.420647 0.017313
C20   C     C_R   0.872731 0.510536 0.504687 0.023126
C21   C     C_2   0.464338 0.035281 0.439917 -0.061935
C22   C     C_2   0.522036 0.966474 0.566274 0.064072
C23   C     C_R   0.263743 0.508920 0.502254 0.558831
Cu1   Cu    Cu3+1 0.513920 0.517380 0.684380 1.067843
Cu2   Cu    Cu3+1 0.486080 0.482620 0.315620 1.058664
H1    H     H_    0.098650 0.275896 0.360579 0.168465
H2    H     H_    0.663088 0.125651 0.990417 0.344116
H3    H     H_    0.923891 0.043001 0.743892 0.210214
H4    H     H_    0.420501 0.357706 0.949928 0.253946
H5    H     H_    0.535184 0.796752 0.049073 0.116207
H6    H     H_    0.312578 0.698513 0.019941 0.352565
H7    H     H_    0.263902 0.103276 0.688450 0.145787
H8    H     H_    0.765375 0.874079 0.877849 0.141694
H9    H     H_    0.751615 0.211443 0.343989 0.138624
H10   H     H_    0.327291 0.010641 0.192366 0.183116
N1    N     N_2   0.465100 0.456430 0.038520 -0.253927
N2    N     N_2   0.534900 0.543570 0.961480 -0.170095
O1    O     O_R   0.509050 0.286130 0.619770 -0.494030
O2    O     O_2   0.337587 0.902783 0.852574 -0.549869
O3    O     O_R   0.238169 0.691639 0.926028 -0.616900
O4    O     O_2   0.119359 0.219885 0.761817 -0.491184
O5    O     O_2   0.847486 0.689176 0.928571 -0.395693
O6    O     O_2   0.898669 0.108689 0.257310 -0.485702
O7    O     O_2   0.284343 0.857060 0.341220 -0.507159
O8    O     O_2   0.709774 0.120669 0.682416 -0.542226
O9    O     O_R   0.594751 0.059585 0.899711 -0.674841
O10   O     O_R   0.485540 0.256780 0.308360 -0.519072
O11   O     O_R   0.331410 0.514680 0.655740 -0.490936
O12   O     O_R   0.307900 0.485330 0.344330 -0.482148
O13   O     O_R   0.514460 0.743220 0.691640 -0.513379
O14   O     O_R   0.490950 0.713870 0.380230 -0.497615
O15   O     O_R   0.692100 0.514670 0.655670 -0.461899
O16   O     O_R   0.668590 0.485320 0.344260 -0.469707
O17   O     O_2   0.678204 0.711273 0.168474 -0.445815

loop_
_geom_bond_atom_site_label_1
_geom_bond_atom_site_label_2
_ccdc_geom_bond_type
C16   O8    D    
C14   H9    S    
Cu1   O1    S    
C3    O15   A    
Cu2   O14   S    
C13   H8    S    
C6    C7    A    
C9    O17   D    
C4    C12   A    
Cu2   O10   S    
C13   O5    D    
C19   C20   A    
C18   H1    S    
C15   C21   S    
C8    C12   A    
C14   O6    D    
C9    N2    S    
C17   C18   A    
C3    C20   S    
C8    C20   A    
C2    C22   S    
H6    O3    S    
C12   C17   A    
C1    C21   S    
C3    O16   A    
H4    N1    S    
C17   C23   S    
C1    O1    A    
C9    H5    S    
H2    O9    S    
C15   H10   S    
N1    N2    D    
Cu2   O16   S    
C15   O7    D    
C5    C11   S    
Cu1   O15   S    
Cu1   O13   S    
C5    C6    A    
Cu2   O12   S    
C23   O12   A    
C7    C8    A    
C2    O14   A    
Cu2   N1    S    
C4    C10   S    
Cu1   O11   S    
C7    C13   S    
Cu1   Cu2   S    
C10   O3    S    
C18   C19   A    
C11   O4    D    
C16   O9    S    
Cu1   N2    S    
C1    O10   A    
C16   C22   S    
C23   O11   A    
C2    O13   A    
C21   C22   D    
C14   C19   S    
C10   O2    D    
C6    H3    S    
C4    C5    A    
C11   H7    S    
