data_mof_unit_61994.cif
_audit_creation_date              2012-12-10T17:29:12-0500
_audit_creation_method            fapswitch 2.2
_symmetry_space_group_name_H-M    P1
_symmetry_Int_Tables_number       1
_space_group_crystal_system       triclinic
_cell_length_a                    21.800427
_cell_length_b                    21.800323
_cell_length_c                    47.138574
_cell_angle_alpha                 89.999141
_cell_angle_beta                  89.998882
_cell_angle_gamma                 89.93944
_cell_volume                      22402.894109

loop_
_atom_site_label
_atom_site_type_symbol
_atom_type_description
_atom_site_fract_x
_atom_site_fract_y
_atom_site_fract_z
_atom_type_partial_charge
C1    C     C_R   0.879378 0.000001 0.500001 0.844540
C2    C     C_R   0.000014 0.879377 0.499999 0.844586
C3    C     C_R   0.120622 1.000000 0.500001 0.844542
C4    C     C_R   0.999986 0.120623 0.499999 0.844584
C5    C     C_R   0.379377 0.500014 0.000001 0.844570
C6    C     C_R   0.500000 0.379378 0.999999 0.844552
C7    C     C_R   0.620623 0.499986 0.000001 0.844571
C8    C     C_R   0.499999 0.620622 0.999999 0.844549
C9    C     C_R   0.025631 0.779452 0.523430 -0.102179
C10   C     C_R   0.220471 0.025592 0.523450 -0.102650
C11   C     C_R   0.974368 0.220546 0.523429 -0.102180
C12   C     C_R   0.779527 0.974409 0.523452 -0.102649
C13   C     C_R   0.025606 0.220471 0.476554 -0.102615
C14   C     C_R   0.220534 0.974431 0.476559 -0.102517
C15   C     C_R   0.974393 0.779530 0.476555 -0.102615
C16   C     C_R   0.779467 0.025571 0.476560 -0.102514
C17   C     C_R   0.525568 0.279466 0.023441 -0.102518
C18   C     C_R   0.720470 0.525609 0.023443 -0.102612
C19   C     C_R   0.474430 0.720532 0.023441 -0.102518
C20   C     C_R   0.279528 0.474392 0.023445 -0.102612
C21   C     C_R   0.525592 0.720472 0.976549 -0.102665
C22   C     C_R   0.720547 0.474367 0.976569 -0.102172
C23   C     C_R   0.474407 0.279529 0.976550 -0.102666
C24   C     C_R   0.279455 0.525635 0.976570 -0.102169
C25   C     C_R   0.999921 0.685025 0.500001 -0.012332
C26   C     C_R   0.314971 0.000076 0.499995 -0.012491
C27   C     C_R   0.000079 0.314974 0.500001 -0.012329
C28   C     C_R   0.685029 0.999923 0.499996 -0.012492
C29   C     C_R   0.499923 0.185029 0.000006 -0.012481
C30   C     C_R   0.814975 0.500077 0.999997 -0.012350
C31   C     C_R   0.500077 0.814971 0.000005 -0.012481
C32   C     C_R   0.185025 0.499923 0.999998 -0.012348
C33   C     C_R   0.000015 0.812362 0.499995 0.009159
C34   C     C_R   0.187634 0.000004 0.500005 0.009363
C35   C     C_R   0.999984 0.187637 0.499994 0.009160
C36   C     C_R   0.812366 0.999998 0.500006 0.009365
C37   C     C_R   0.499996 0.312366 0.999996 0.009365
C38   C     C_R   0.687638 0.499985 0.000004 0.009181
C39   C     C_R   0.500003 0.687634 0.999995 0.009367
C40   C     C_R   0.312362 0.500016 0.000005 0.009183
C41   C     C_R   0.052309 0.519129 0.369250 0.673848
C42   C     C_R   0.480846 0.052342 0.369251 0.673867
C43   C     C_R   0.947697 0.480872 0.369250 0.673843
C44   C     C_R   0.519151 0.947666 0.369250 0.673871
C45   C     C_R   0.051324 0.521581 0.630733 0.688272
C46   C     C_R   0.481156 0.947588 0.630754 0.674627
C47   C     C_R   0.948658 0.478365 0.630729 0.688289
C48   C     C_R   0.518843 0.052405 0.630754 0.674632
C49   C     C_R   0.552204 0.019409 0.869254 0.674737
C50   C     C_R   0.020726 0.551703 0.869253 0.687687
C51   C     C_R   0.447800 0.980586 0.869255 0.674729
C52   C     C_R   0.979308 0.448302 0.869252 0.687638
C53   C     C_R   0.552326 0.980830 0.130750 0.673872
C54   C     C_R   0.980875 0.447690 0.130750 0.673849
C55   C     C_R   0.447666 0.019174 0.130749 0.673868
C56   C     C_R   0.019124 0.552305 0.130750 0.673844
C57   C     C_R   0.052441 0.518687 0.398758 -0.200294
C58   C     C_R   0.481290 0.052473 0.398759 -0.200221
C59   C     C_R   0.947564 0.481314 0.398758 -0.200281
C60   C     C_R   0.518709 0.947532 0.398758 -0.200232
C61   C     C_R   0.051473 0.521180 0.601219 -0.196424
C62   C     C_R   0.481590 0.947460 0.601246 -0.200312
C63   C     C_R   0.948517 0.478787 0.601215 -0.196415
C64   C     C_R   0.518409 0.052535 0.601246 -0.200304
C65   C     C_R   0.552341 0.018960 0.898762 -0.199992
C66   C     C_R   0.020334 0.551833 0.898768 -0.196988
C67   C     C_R   0.447662 0.981037 0.898763 -0.199974
C68   C     C_R   0.979686 0.448171 0.898767 -0.196978
C69   C     C_R   0.552460 0.981272 0.101241 -0.200216
C70   C     C_R   0.981317 0.447558 0.101242 -0.200298
C71   C     C_R   0.447534 0.018730 0.101241 -0.200209
C72   C     C_R   0.018682 0.552438 0.101242 -0.200286
C73   C     C_R   0.000002 0.500000 0.413673 -0.163314
C74   C     C_R   0.500000 0.000002 0.413674 -0.163349
C75   C     C_R   0.999996 0.499989 0.586311 -0.176093
C76   C     C_R   0.499999 0.999998 0.586330 -0.163505
C77   C     C_R   0.500001 0.999999 0.913676 -0.164240
C78   C     C_R   0.000007 0.500002 0.913679 -0.174485
C79   C     C_R   0.499998 0.000000 0.086326 -0.163369
C80   C     C_R   0.999999 0.499998 0.086327 -0.163312
C81   C     C_R   0.000003 0.500000 0.354412 0.023715
C82   C     C_R   0.499998 0.000004 0.354412 0.023686
C83   C     C_R   0.999989 0.499967 0.645567 0.002765
C84   C     C_R   0.499999 0.999996 0.645591 0.022837
C85   C     C_R   0.500002 0.999997 0.854415 0.022451
C86   C     C_R   0.000020 0.500003 0.854422 0.004408
C87   C     C_R   0.499995 0.000003 0.145587 0.023676
C88   C     C_R   1.000000 0.499997 0.145588 0.023714
C89   C     C_R   0.499998 0.999994 0.734959 -0.005659
C90   C     C_R   0.999989 0.499965 0.734951 -0.006497
C91   C     C_R   0.499993 0.000008 0.265042 -0.006130
C92   C     C_R   0.000002 0.499999 0.265042 -0.006132
C93   C     C_R   0.000001 0.499998 0.234958 -0.006131
C94   C     C_R   0.499992 0.000008 0.234958 -0.006135
C95   C     C_R   1.000000 0.499979 0.765046 -0.006285
C96   C     C_R   0.499999 0.999994 0.765043 -0.005813
C97   C     C_R   0.000001 0.500000 0.444701 1.139277
C98   C     C_R   0.500000 0.000000 0.444701 1.138921
C99   C     C_R   0.999999 0.499998 0.555294 1.140902
C100  C     C_R   0.499999 0.999999 0.555300 1.139367
C101  C     C_R   0.500001 0.000000 0.944702 1.139337
C102  C     C_R   0.000001 0.500000 0.944703 1.140956
C103  C     C_R   0.499999 1.000000 0.055299 1.138907
C104  C     C_R   0.999999 0.499999 0.055299 1.139284
C105  C     C_R   0.999973 0.619505 0.499999 1.064245
C106  C     C_R   0.380493 0.000027 0.499996 1.064559
C107  C     C_R   0.000027 0.380494 0.499999 1.064239
C108  C     C_R   0.619507 0.999973 0.499997 1.064558
C109  C     C_R   0.499973 0.119507 0.000004 1.064550
C110  C     C_R   0.880494 0.500027 0.000000 1.064281
C111  C     C_R   0.500027 0.880493 0.000004 1.064549
C112  C     C_R   0.119506 0.499973 0.000001 1.064278
C113  C     C_R   0.458753 0.038694 0.719889 -0.078274
C114  C     C_R   0.960121 0.540081 0.719874 -0.076840
C115  C     C_R   0.541242 0.961293 0.719889 -0.078276
C116  C     C_R   0.039844 0.459833 0.719875 -0.076838
C117  C     C_R   0.459114 0.961011 0.280113 -0.078931
C118  C     C_R   0.960950 0.540907 0.280112 -0.078922
C119  C     C_R   0.540872 0.039004 0.280111 -0.078929
C120  C     C_R   0.039056 0.459092 0.280112 -0.078924
C121  C     C_R   0.959089 0.539046 0.219888 -0.078921
C122  C     C_R   0.460977 0.959147 0.219888 -0.078929
C123  C     C_R   0.040912 0.460949 0.219888 -0.078924
C124  C     C_R   0.539008 0.040868 0.219887 -0.078931
C125  C     C_R   0.958672 0.538604 0.780121 -0.076820
C126  C     C_R   0.460600 0.040567 0.780114 -0.078298
C127  C     C_R   0.041343 0.461373 0.780121 -0.076815
C128  C     C_R   0.539398 0.959422 0.780113 -0.078302
C129  C     C_R   0.419048 0.078612 0.735096 -0.070196
C130  C     C_R   0.919226 0.578775 0.735084 -0.068092
C131  C     C_R   0.580944 0.921372 0.735096 -0.070195
C132  C     C_R   0.080730 0.421131 0.735085 -0.068083
C133  C     C_R   0.419823 0.920769 0.264909 -0.071652
C134  C     C_R   0.920654 0.580228 0.264908 -0.071644
C135  C     C_R   0.580160 0.079249 0.264906 -0.071650
C136  C     C_R   0.079351 0.419770 0.264907 -0.071643
C137  C     C_R   0.919765 0.579339 0.235093 -0.071646
C138  C     C_R   0.420713 0.919878 0.235094 -0.071645
C139  C     C_R   0.080238 0.420657 0.235093 -0.071646
C140  C     C_R   0.579269 0.080140 0.235091 -0.071648
C141  C     C_R   0.918580 0.578122 0.764902 -0.068278
C142  C     C_R   0.419933 0.079507 0.764911 -0.070014
C143  C     C_R   0.081422 0.421840 0.764903 -0.068292
C144  C     C_R   0.580061 0.920478 0.764911 -0.070016
C145  C     C_R   0.541392 0.964291 0.689918 0.624111
C146  C     C_R   0.037043 0.459779 0.689892 0.629060
C147  C     C_R   0.458604 0.035698 0.689919 0.624107
C148  C     C_R   0.962924 0.540137 0.689892 0.629031
C149  C     C_R   0.541085 0.035969 0.310081 0.623033
C150  C     C_R   0.036025 0.458885 0.310082 0.623045
C151  C     C_R   0.458905 0.964043 0.310083 0.623035
C152  C     C_R   0.963982 0.541116 0.310082 0.623043
C153  C     C_R   0.041119 0.463979 0.189918 0.623042
C154  C     C_R   0.535975 0.041080 0.189917 0.623043
C155  C     C_R   0.958881 0.536014 0.189918 0.623040
C156  C     C_R   0.464012 0.958932 0.189919 0.623042
C157  C     C_R   0.041193 0.464045 0.810107 0.628812
C158  C     C_R   0.536340 0.959161 0.810082 0.624344
C159  C     C_R   0.958840 0.535955 0.810107 0.628803
C160  C     C_R   0.463662 0.040831 0.810082 0.624342
C161  C     C_R   0.062574 0.805431 0.545297 -0.234020
C162  C     C_R   0.194370 0.062404 0.545353 -0.232524
C163  C     C_R   0.937424 0.194566 0.545297 -0.234019
C164  C     C_R   0.805627 0.937597 0.545355 -0.232529
C165  C     C_R   0.062434 0.194363 0.454658 -0.232372
C166  C     C_R   0.194534 0.937561 0.454670 -0.232628
C167  C     C_R   0.937564 0.805639 0.454661 -0.232370
C168  C     C_R   0.805469 0.062441 0.454671 -0.232627
C169  C     C_R   0.562438 0.305466 0.045330 -0.232626
C170  C     C_R   0.694361 0.562439 0.045337 -0.232383
C171  C     C_R   0.437560 0.694530 0.045330 -0.232625
C172  C     C_R   0.305635 0.437563 0.045339 -0.232386
C173  C     C_R   0.562403 0.694372 0.954646 -0.232527
C174  C     C_R   0.694566 0.437422 0.954703 -0.233970
C175  C     C_R   0.437595 0.305631 0.954648 -0.232523
C176  C     C_R   0.305437 0.562580 0.954703 -0.233971
C177  C     C_R   0.068002 0.775500 0.571486 0.503599
C178  C     C_R   0.224227 0.067657 0.571562 0.499829
C179  C     C_R   0.931997 0.224494 0.571486 0.503605
C180  C     C_R   0.775767 0.932343 0.571564 0.499832
C181  C     C_R   0.067711 0.224216 0.428449 0.499694
C182  C     C_R   0.224415 0.932269 0.428465 0.499713
C183  C     C_R   0.932286 0.775789 0.428451 0.499692
C184  C     C_R   0.775590 0.067734 0.428465 0.499711
C185  C     C_R   0.567730 0.275585 0.071535 0.499715
C186  C     C_R   0.724211 0.567718 0.071547 0.499694
C187  C     C_R   0.432267 0.724409 0.071535 0.499715
C188  C     C_R   0.275783 0.432282 0.071549 0.499695
C189  C     C_R   0.567656 0.724231 0.928437 0.499849
C190  C     C_R   0.724496 0.431989 0.928514 0.503369
C191  C     C_R   0.432342 0.275774 0.928439 0.499848
C192  C     C_R   0.275510 0.568012 0.928514 0.503371
C193  C     C_R   0.042425 0.717773 0.575222 0.564874
C194  C     C_R   0.282032 0.042120 0.575274 0.569301
C195  C     C_R   0.957575 0.282220 0.575222 0.564872
C196  C     C_R   0.717962 0.957878 0.575275 0.569300
C197  C     C_R   0.042190 0.282025 0.424731 0.568971
C198  C     C_R   0.282140 0.957858 0.424739 0.568921
C199  C     C_R   0.957808 0.717980 0.424733 0.568974
C200  C     C_R   0.717867 0.042145 0.424739 0.568923
C201  C     C_R   0.542141 0.217861 0.075261 0.568925
C202  C     C_R   0.782020 0.542197 0.075265 0.568974
C203  C     C_R   0.457856 0.782133 0.075261 0.568926
C204  C     C_R   0.217973 0.457802 0.075267 0.568975
C205  C     C_R   0.542121 0.782037 0.924726 0.569343
C206  C     C_R   0.782226 0.457558 0.924777 0.565140
C207  C     C_R   0.457878 0.217969 0.924727 0.569342
C208  C     C_R   0.217781 0.542443 0.924778 0.565141
C209  C     C_R   0.017351 0.687131 0.552082 0.399921
C210  C     C_R   0.312806 0.017296 0.552096 0.404337
C211  C     C_R   0.982650 0.312864 0.552082 0.399913
C212  C     C_R   0.687190 0.982703 0.552097 0.404334
C213  C     C_R   0.017356 0.312806 0.447904 0.404136
C214  C     C_R   0.312834 0.982778 0.447902 0.404161
C215  C     C_R   0.982643 0.687198 0.447905 0.404138
C216  C     C_R   0.687171 0.017224 0.447902 0.404163
C217  C     C_R   0.517221 0.187167 0.052099 0.404164
C218  C     C_R   0.812802 0.517361 0.052094 0.404129
C219  C     C_R   0.482776 0.812829 0.052098 0.404166
C220  C     C_R   0.187193 0.482639 0.052095 0.404126
C221  C     C_R   0.517299 0.812809 0.947904 0.404326
C222  C     C_R   0.812871 0.482631 0.947917 0.400274
C223  C     C_R   0.482701 0.187195 0.947905 0.404330
C224  C     C_R   0.187134 0.517370 0.947918 0.400270
C225  C     C_R   0.013025 0.716574 0.525322 -0.162787
C226  C     C_R   0.283390 0.013063 0.525328 -0.165201
C227  C     C_R   0.986975 0.283423 0.525321 -0.162781
C228  C     C_R   0.716608 0.986936 0.525329 -0.165199
C229  C     C_R   0.013092 0.283392 0.474672 -0.165358
C230  C     C_R   0.283413 0.987030 0.474670 -0.165068
C231  C     C_R   0.986907 0.716609 0.474673 -0.165359
C232  C     C_R   0.716589 0.012971 0.474670 -0.165071
C233  C     C_R   0.512970 0.216587 0.025331 -0.165076
C234  C     C_R   0.783391 0.513094 0.025326 -0.165335
C235  C     C_R   0.487029 0.783411 0.025330 -0.165078
C236  C     C_R   0.216607 0.486906 0.025327 -0.165332
C237  C     C_R   0.513065 0.783392 0.974672 -0.165161
C238  C     C_R   0.783427 0.486968 0.974677 -0.163013
C239  C     C_R   0.486935 0.216610 0.974673 -0.165164
C240  C     C_R   0.216576 0.513033 0.974678 -0.163011
H1    H     H_    0.093179 0.533712 0.409913 0.215497
H2    H     H_    0.466247 0.093236 0.409915 0.215513
H3    H     H_    0.906824 0.466289 0.409914 0.215499
H4    H     H_    0.533753 0.906768 0.409913 0.215512
H5    H     H_    0.091392 0.538217 0.590045 0.215175
H6    H     H_    0.466784 0.906639 0.590094 0.215665
H7    H     H_    0.908600 0.461757 0.590037 0.215167
H8    H     H_    0.533215 0.093357 0.590093 0.215666
H9    H     H_    0.592997 0.034202 0.909919 0.215960
H10   H     H_    0.036677 0.592047 0.909936 0.214704
H11   H     H_    0.407006 0.965796 0.909921 0.215961
H12   H     H_    0.963339 0.407957 0.909934 0.214708
H13   H     H_    0.593219 0.966213 0.090086 0.215524
H14   H     H_    0.966295 0.406817 0.090087 0.215493
H15   H     H_    0.406777 0.033787 0.090085 0.215525
H16   H     H_    0.033704 0.593179 0.090086 0.215495
N1    N     N_R   0.499999 0.999995 0.675975 -0.321054
N2    N     N_R   0.999984 0.499959 0.675952 -0.317621
N3    N     N_R   0.499996 0.000006 0.324028 -0.320951
N4    N     N_R   0.000004 0.500001 0.324028 -0.320942
N5    N     N_R   1.000000 0.499996 0.175972 -0.320942
N6    N     N_R   0.499994 0.000005 0.175972 -0.320950
N7    N     N_R   0.000020 0.500004 0.824041 -0.317643
N8    N     N_R   0.500002 0.999997 0.824030 -0.321077
O1    O     O_R   0.908370 1.000000 0.476360 -0.611762
O2    O     O_R   0.000000 0.908370 0.476360 -0.611731
O3    O     O_R   0.091630 1.000000 0.476360 -0.611764
O4    O     O_R   0.000000 0.091630 0.476360 -0.611734
O5    O     O_R   0.908370 0.000000 0.523640 -0.611628
O6    O     O_R   0.000000 0.091630 0.523640 -0.611583
O7    O     O_R   0.091630 0.000000 0.523640 -0.611625
O8    O     O_R   0.000000 0.908370 0.523640 -0.611585
O9    O     O_R   0.408370 0.500000 0.976360 -0.611588
O10   O     O_R   0.500000 0.408370 0.976360 -0.611627
O11   O     O_R   0.591630 0.500000 0.976360 -0.611588
O12   O     O_R   0.500000 0.591630 0.976360 -0.611630
O13   O     O_R   0.408370 0.500000 0.023640 -0.611729
O14   O     O_R   0.500000 0.591630 0.023640 -0.611763
O15   O     O_R   0.591630 0.500000 0.023640 -0.611727
O16   O     O_R   0.500000 0.408370 0.023640 -0.611765
O17   O     O_R   0.948250 0.500010 0.458110 -0.614413
O18   O     O_R   0.499990 0.948250 0.458110 -0.614470
O19   O     O_R   0.051750 0.499990 0.458110 -0.614417
O20   O     O_R   0.500010 0.051750 0.458110 -0.614471
O21   O     O_R   0.948250 0.499990 0.541890 -0.613971
O22   O     O_R   0.499990 0.051750 0.541890 -0.614405
O23   O     O_R   0.051750 0.500010 0.541890 -0.613957
O24   O     O_R   0.500010 0.948250 0.541890 -0.614408
O25   O     O_R   0.448250 0.000010 0.958110 -0.614295
O26   O     O_R   0.999990 0.448250 0.958110 -0.614142
O27   O     O_R   0.551750 0.999990 0.958110 -0.614297
O28   O     O_R   0.000010 0.551750 0.958110 -0.614144
O29   O     O_R   0.448250 0.999990 0.041890 -0.614470
O30   O     O_R   0.999990 0.551750 0.041890 -0.614410
O31   O     O_R   0.551750 0.000010 0.041890 -0.614468
O32   O     O_R   0.000010 0.448250 0.041890 -0.614414
O33   O     O_R   0.948250 0.591600 0.500040 -0.605202
O34   O     O_R   0.408400 0.948250 0.500040 -0.608286
O35   O     O_R   0.051750 0.408400 0.500040 -0.605200
O36   O     O_R   0.591600 0.051750 0.500040 -0.608284
O37   O     O_R   0.948250 0.408400 0.499960 -0.611750
O38   O     O_R   0.408400 0.051750 0.499960 -0.608414
O39   O     O_R   0.051750 0.591600 0.499960 -0.611746
O40   O     O_R   0.591600 0.948250 0.499960 -0.608415
O41   O     O_R   0.448250 0.091600 0.000040 -0.608382
O42   O     O_R   0.908400 0.448250 0.000040 -0.611637
O43   O     O_R   0.551750 0.908400 0.000040 -0.608382
O44   O     O_R   0.091600 0.551750 0.000040 -0.611637
O45   O     O_R   0.448250 0.908400 0.999960 -0.608336
O46   O     O_R   0.908400 0.551750 0.999960 -0.605272
O47   O     O_R   0.551750 0.091600 0.999960 -0.608337
O48   O     O_R   0.091600 0.448250 0.999960 -0.605271
O49   O     O_2   0.582679 0.932451 0.674487 -0.477794
O50   O     O_2   0.070443 0.419783 0.674441 -0.494171
O51   O     O_2   0.417319 0.067540 0.674487 -0.477800
O52   O     O_2   0.929536 0.580146 0.674442 -0.494191
O53   O     O_2   0.582143 0.068028 0.325508 -0.478229
O54   O     O_2   0.068145 0.417809 0.325510 -0.478267
O55   O     O_2   0.417849 0.931983 0.325511 -0.478222
O56   O     O_2   0.931863 0.582193 0.325510 -0.478272
O57   O     O_2   0.082198 0.431862 0.174490 -0.478265
O58   O     O_2   0.568053 0.082122 0.174489 -0.478231
O59   O     O_2   0.917801 0.568129 0.174490 -0.478271
O60   O     O_2   0.431936 0.917888 0.174492 -0.478239
O61   O     O_2   0.081938 0.431589 0.825571 -0.493804
O62   O     O_2   0.568742 0.918300 0.825506 -0.478044
O63   O     O_2   0.918100 0.568417 0.825570 -0.493808
O64   O     O_2   0.431262 0.081694 0.825506 -0.478051
Zn1   Zn    Zn3+2 1.000000 0.000000 0.468420 1.082071
Zn2   Zn    Zn3+2 0.000000 0.000000 0.531580 1.082812
Zn3   Zn    Zn3+2 0.500000 0.500000 0.968420 1.082793
Zn4   Zn    Zn3+2 0.500000 0.500000 0.031580 1.082073
Zn5   Zn    Zn3+2 0.930910 0.500000 0.500000 1.090257
Zn6   Zn    Zn3+2 0.500000 0.930910 0.500000 1.090292
Zn7   Zn    Zn3+2 0.069090 0.500000 0.500000 1.090263
Zn8   Zn    Zn3+2 0.500000 0.069090 0.500000 1.090292
Zn9   Zn    Zn3+2 0.430910 0.000000 0.000000 1.090317
Zn10  Zn    Zn3+2 0.000000 0.430910 0.000000 1.090257
Zn11  Zn    Zn3+2 0.569090 0.000000 0.000000 1.090317
Zn12  Zn    Zn3+2 0.000000 0.569090 0.000000 1.090257
F1    F     F_    0.899561 0.801409 0.406962 -0.560955
F2    F     F_    0.198900 0.899497 0.406983 -0.560988
F3    F     F_    0.100436 0.198598 0.406959 -0.560954
F4    F     F_    0.801108 0.100506 0.406983 -0.560986
F5    F     F_    0.899116 0.199014 0.592943 -0.558492
F6    F     F_    0.198616 0.100367 0.593058 -0.561166
F7    F     F_    0.100882 0.800979 0.592942 -0.558492
F8    F     F_    0.801376 0.899632 0.593060 -0.561166
F9    F     F_    0.399632 0.301385 0.906943 -0.561178
F10   F     F_    0.699014 0.399110 0.907059 -0.558559
F11   F     F_    0.600366 0.698621 0.906940 -0.561178
F12   F     F_    0.300993 0.600893 0.907058 -0.558556
F13   F     F_    0.399495 0.698891 0.093018 -0.560986
F14   F     F_    0.698592 0.600445 0.093036 -0.560952
F15   F     F_    0.600502 0.301101 0.093018 -0.560987
F16   F     F_    0.301401 0.399556 0.093038 -0.560953
F17   F     F_    0.102855 0.538446 0.355036 -0.595840
F18   F     F_    0.461504 0.102921 0.355038 -0.595830
F19   F     F_    0.897151 0.461555 0.355038 -0.595841
F20   F     F_    0.538491 0.897088 0.355037 -0.595826
F21   F     F_    0.100882 0.543263 0.644957 -0.583303
F22   F     F_    0.462124 0.896934 0.644969 -0.594265
F23   F     F_    0.899095 0.456674 0.644947 -0.583309
F24   F     F_    0.537876 0.103057 0.644969 -0.594263
F25   F     F_    0.602643 0.039008 0.855041 -0.594113
F26   F     F_    0.041510 0.601643 0.855027 -0.584020
F27   F     F_    0.397361 0.960985 0.855044 -0.594117
F28   F     F_    0.958527 0.398363 0.855025 -0.584042
F29   F     F_    0.602897 0.961470 0.144963 -0.595821
F30   F     F_    0.961562 0.397141 0.144964 -0.595840
F31   F     F_    0.397094 0.038536 0.144961 -0.595824
F32   F     F_    0.038438 0.602852 0.144962 -0.595843
C241  C     C_1   0.108303 0.851263 0.539327 0.372203
N9    N     N_1   0.146739 0.886480 0.534999 -0.190004
C242  C     C_1   0.148528 0.108233 0.539407 0.372490
N10   N     N_1   0.113308 0.146751 0.535101 -0.189606
C243  C     C_1   0.891694 0.148734 0.539327 0.372202
N11   N     N_1   0.853258 0.113519 0.535000 -0.190004
C244  C     C_1   0.851471 0.891769 0.539409 0.372491
N12   N     N_1   0.886691 0.853251 0.535105 -0.189603
C245  C     C_1   0.108263 0.148530 0.460616 0.372437
N13   N     N_1   0.146786 0.113320 0.464929 -0.190467
C246  C     C_1   0.148731 0.891786 0.460621 0.372448
N14   N     N_1   0.113533 0.853325 0.464933 -0.190555
C247  C     C_1   0.891734 0.851472 0.460620 0.372435
N15   N     N_1   0.853211 0.886680 0.464934 -0.190471
C248  C     C_1   0.851271 0.108216 0.460621 0.372447
N16   N     N_1   0.886468 0.146678 0.464933 -0.190556
C249  C     C_1   0.608213 0.351269 0.039380 0.372449
N17   N     N_1   0.646675 0.386467 0.035067 -0.190550
C250  C     C_1   0.648529 0.608268 0.039378 0.372434
N18   N     N_1   0.613321 0.646791 0.035064 -0.190471
C251  C     C_1   0.391784 0.648728 0.039380 0.372447
N19   N     N_1   0.353323 0.613531 0.035067 -0.190552
C252  C     C_1   0.351469 0.391734 0.039381 0.372436
N20   N     N_1   0.386679 0.353211 0.035068 -0.190468
C253  C     C_1   0.608232 0.648528 0.960591 0.372489
N21   N     N_1   0.646750 0.613309 0.964896 -0.189618
C254  C     C_1   0.648734 0.391693 0.960675 0.372237
N22   N     N_1   0.613519 0.353258 0.965003 -0.190019
C255  C     C_1   0.391766 0.351473 0.960594 0.372487
N23   N     N_1   0.353247 0.386692 0.964900 -0.189621
C256  C     C_1   0.351268 0.608309 0.960675 0.372238
N24   N     N_1   0.386483 0.646745 0.965003 -0.190019
F33   F     F_    0.046710 0.689195 0.600717 -0.546118
F34   F     F_    0.310558 0.046245 0.600784 -0.543056
F35   F     F_    0.953291 0.310795 0.600718 -0.546129
F36   F     F_    0.689433 0.953753 0.600786 -0.543057
F37   F     F_    0.046341 0.310550 0.399220 -0.543304
F38   F     F_    0.310676 0.953708 0.399229 -0.543309
F39   F     F_    0.953657 0.689458 0.399222 -0.543302
F40   F     F_    0.689332 0.046295 0.399229 -0.543306
F41   F     F_    0.546290 0.189324 0.100771 -0.543314
F42   F     F_    0.810542 0.546350 0.100776 -0.543298
F43   F     F_    0.453706 0.810668 0.100771 -0.543310
F44   F     F_    0.189449 0.453649 0.100778 -0.543302
F45   F     F_    0.546245 0.810566 0.899215 -0.543196
F46   F     F_    0.810806 0.453263 0.899283 -0.546043
F47   F     F_    0.453754 0.189442 0.899216 -0.543193
F48   F     F_    0.189203 0.546738 0.899283 -0.546043
F49   F     F_    0.995354 0.629880 0.556347 -0.663948
F50   F     F_    0.370176 0.995480 0.556333 -0.666481
F51   F     F_    0.004647 0.370115 0.556347 -0.663956
F52   F     F_    0.629819 0.004520 0.556334 -0.666487
F53   F     F_    0.995557 0.370182 0.443662 -0.666771
F54   F     F_    0.370129 0.004664 0.443653 -0.666680
F55   F     F_    0.004443 0.629823 0.443663 -0.666767
F56   F     F_    0.629875 0.995339 0.443654 -0.666673
F57   F     F_    0.495335 0.129871 0.056347 -0.666688
F58   F     F_    0.870177 0.495562 0.056336 -0.666764
F59   F     F_    0.504662 0.870125 0.056347 -0.666683
F60   F     F_    0.129818 0.504438 0.056337 -0.666770
F61   F     F_    0.495484 0.870180 0.943668 -0.666705
F62   F     F_    0.870130 0.504608 0.943652 -0.663737
F63   F     F_    0.504515 0.129824 0.943669 -0.666700
F64   F     F_    0.129875 0.495393 0.943653 -0.663740
C257  C     C_1   0.377497 0.120564 0.720638 0.328991
N25   N     N_1   0.344349 0.154082 0.709306 -0.075952
C258  C     C_1   0.876076 0.619083 0.720625 0.327989
N26   N     N_1   0.841598 0.651236 0.709295 -0.083682
C259  C     C_1   0.622489 0.879414 0.720637 0.328992
N27   N     N_1   0.655632 0.845891 0.709304 -0.075952
C260  C     C_1   0.123810 0.380739 0.720630 0.327973
N28   N     N_1   0.158230 0.348515 0.709306 -0.083681
C261  C     C_1   0.378742 0.878452 0.279372 0.329404
N29   N     N_1   0.345973 0.844641 0.290710 -0.070316
C262  C     C_1   0.878279 0.621339 0.279370 0.329405
N30   N     N_1   0.844422 0.654133 0.290707 -0.070346
C263  C     C_1   0.621237 0.121570 0.279368 0.329403
N31   N     N_1   0.654004 0.155384 0.290704 -0.070322
C264  C     C_1   0.121727 0.378660 0.279370 0.329403
N32   N     N_1   0.155584 0.345867 0.290707 -0.070345
C265  C     C_1   0.878649 0.621709 0.220630 0.329405
N33   N     N_1   0.845852 0.655562 0.209293 -0.070341
C266  C     C_1   0.378371 0.878823 0.220632 0.329403
N34   N     N_1   0.344540 0.846074 0.209295 -0.070336
C267  C     C_1   0.121353 0.378286 0.220630 0.329404
N35   N     N_1   0.154149 0.344432 0.209293 -0.070341
C268  C     C_1   0.621607 0.121199 0.220627 0.329404
N36   N     N_1   0.655434 0.153952 0.209290 -0.070330
C269  C     C_1   0.876651 0.619732 0.779342 0.327987
N37   N     N_1   0.843195 0.652975 0.790655 -0.083089
C270  C     C_1   0.377148 0.120188 0.779377 0.329026
N38   N     N_1   0.342963 0.152637 0.790716 -0.076500
C271  C     C_1   0.123399 0.380285 0.779347 0.327981
N39   N     N_1   0.156894 0.347088 0.790663 -0.083067
C272  C     C_1   0.622843 0.879793 0.779376 0.329027
N40   N     N_1   0.657025 0.847341 0.790714 -0.076493

loop_
_geom_bond_atom_site_label_1
_geom_bond_atom_site_label_2
_ccdc_geom_bond_type
C134  C262  S    
C119  C149  A    
C268  N36   T    
C267  N35   T    
C77   C101  S    
O39   Zn7   S    
C137  C265  S    
C117  C133  A    
C28   C228  A    
C25   C105  S    
C90   C95   A    
C179  C195  A    
C257  N25   T    
C26   C230  A    
C173  C253  S    
C177  C193  A    
C46   C62   A    
C29   C109  S    
C93   C121  A    
C159  O63   S    
O33   Zn5   S    
C20   C40   A    
O2    Zn1   S    
C78   C102  S    
C22   C38   A    
C186  C202  A    
O45   Zn9   S    
O40   Zn6   S    
C130  C141  A    
C167  C247  S    
C211  F51   S    
C27   C229  A    
C197  F37   S    
C41   F17   S    
C170  C250  S    
C56   C72   A    
C196  F36   S    
C47   C83   A    
C32   C112  S    
C127  C157  A    
C24   C240  A    
O22   Zn8   S    
C99   O21   A    
C6    O16   A    
C10   C162  A    
C114  C130  A    
C42   C58   A    
C203  C219  A    
C7    O15   A    
C46   F22   S    
C101  O25   A    
C156  O60   S    
C168  C248  S    
C141  C269  S    
C18   C170  A    
C89   C113  A    
C65   C77   A    
C145  N1    A    
C270  N38   T    
O36   Zn8   S    
O3    Zn1   S    
C217  C233  A    
O27   Zn11  S    
C129  C142  A    
C3    C34   S    
C23   C37   A    
C178  F6    S    
C221  C237  A    
C11   C163  A    
C174  C254  S    
C49   C85   A    
C54   C70   A    
C112  O44   A    
C109  O47   A    
C175  C255  S    
C44   F20   S    
C127  C143  A    
C106  O34   A    
C87   N6    S    
C29   C233  A    
C8    O12   A    
C177  F7    S    
C46   C84   A    
C94   C122  A    
C20   C172  A    
C30   C110  S    
C21   C173  A    
C245  N13   T    
C123  C139  A    
C5    O9    A    
C161  C177  A    
C248  N16   T    
C198  C214  A    
C213  C229  A    
O42   Zn10  S    
C32   C236  A    
C182  F2    S    
C209  F49   S    
C147  O51   S    
C93   C123  A    
C242  N10   T    
C18   C234  A    
O23   Zn7   S    
C76   C100  S    
C63   H7    S    
C251  N19   T    
C44   C82   A    
C89   C96   A    
C52   C86   A    
C18   C38   A    
C181  F3    S    
C223  C239  A    
C91   C94   A    
C205  F45   S    
C27   C227  A    
C28   C108  S    
C42   F18   S    
C11   C35   A    
C222  C238  A    
C194  F34   S    
C90   C114  A    
C261  N29   T    
C14   C230  A    
C48   C64   A    
O24   Zn6   S    
C196  C212  A    
C176  C256  S    
C54   C88   A    
C139  C267  S    
C140  C268  S    
C55   C71   A    
C25   C225  A    
C21   C237  A    
C66   H10   S    
C207  C223  A    
C166  C182  A    
C181  C197  A    
C70   H14   S    
C71   C79   A    
C255  N23   T    
C151  N3    A    
C74   C98   S    
C269  N37   T    
C111  O43   A    
C205  C221  A    
O13   Zn4   S    
C96   C128  A    
O17   Zn5   S    
C26   C226  A    
C13   C35   A    
O19   Zn7   S    
C56   C88   A    
C155  O59   S    
C202  F42   S    
C195  F35   S    
C254  N22   T    
C2    O2    A    
C100  O22   A    
C3    O7    A    
C110  O46   A    
C83   N2    S    
C105  O39   A    
C121  C137  A    
C58   H2    S    
C92   C118  A    
C51   F27   S    
C107  O37   A    
C125  C141  A    
C184  C200  A    
C64   H8    S    
C14   C166  A    
C153  N5    A    
C28   C232  A    
C186  F14   S    
C43   C59   A    
C215  F55   S    
O4    Zn1   S    
C224  F64   S    
C210  C226  A    
C79   C103  S    
C48   F24   S    
O1    Zn1   S    
C30   C238  A    
C223  F63   S    
C190  C206  A    
C206  F46   S    
C184  F4    S    
C96   C126  A    
C185  F15   S    
C219  C235  A    
C84   N1    S    
C45   C83   A    
C117  C151  A    
C210  F50   S    
C203  F43   S    
C204  F44   S    
C191  C207  A    
C20   C236  A    
C53   C69   A    
C198  F38   S    
C31   C235  A    
C188  C204  A    
C155  N5    A    
C118  C152  A    
C97   O17   A    
C194  C210  A    
C149  O53   S    
C116  C132  A    
C75   C99   S    
C133  C261  S    
C53   C87   A    
C51   C67   A    
C9    C161  A    
C224  C240  A    
C71   H15   S    
C158  O62   S    
O34   Zn6   S    
C90   C116  A    
C163  C179  A    
C43   C81   A    
C91   C119  A    
C146  N2    A    
O47   Zn11  S    
C154  O58   S    
C163  C243  S    
C164  C244  S    
C192  F12   S    
C59   C73   A    
C173  C189  A    
C15   C231  A    
C180  C196  A    
C14   C34   A    
C171  C251  S    
C200  F40   S    
C208  C224  A    
C2    O8    A    
C100  O24   A    
C202  C218  A    
O11   Zn3   S    
C92   C120  A    
C72   C80   A    
C107  O35   A    
C253  N21   T    
C16   C36   A    
C116  C146  A    
C63   C75   A    
C206  C222  A    
C200  C216  A    
C53   F29   S    
C190  F10   S    
C55   C87   A    
C6    O10   A    
C180  F8    S    
C69   C79   A    
C128  C158  A    
C264  N32   T    
C266  N34   T    
C11   C227  A    
C263  N31   T    
C222  F62   S    
C160  N8    A    
C31   C111  S    
C9    C225  A    
O25   Zn9   S    
C1    C36   S    
C189  F11   S    
C135  C263  S    
C191  F9    S    
C50   F26   S    
O15   Zn4   S    
C26   C106  S    
C134  C137  A    
C89   C115  A    
C244  N12   T    
C178  C194  A    
C58   C74   A    
O10   Zn3   S    
C204  C220  A    
O6    Zn2   S    
C47   F23   S    
C97   O19   A    
C47   C63   A    
C98   O20   A    
C12   C228  A    
C23   C175  A    
C104  O30   A    
C187  C203  A    
O29   Zn9   S    
C49   F25   S    
C185  C201  A    
O44   Zn12  S    
C129  C257  S    
C149  N3    A    
C57   H1    S    
C213  F53   S    
C189  C205  A    
C67   C77   A    
C91   C117  A    
C212  F52   S    
C164  C180  A    
C68   H12   S    
C132  C143  A    
C166  C246  S    
C4    C35   S    
C219  F59   S    
C133  C138  A    
C160  O64   S    
C9    C33   A    
C62   C76   A    
C209  C225  A    
C72   H16   S    
C136  C139  A    
C65   H9    S    
C103  O29   A    
C172  C252  S    
C43   F19   S    
C68   C78   A    
C135  C140  A    
C66   C78   A    
C60   H4    S    
C3    O3    A    
C110  O42   A    
C70   C80   A    
C262  N30   T    
O32   Zn10  S    
C122  C138  A    
O16   Zn4   S    
C142  C270  S    
C126  C142  A    
C119  C135  A    
O12   Zn3   S    
C120  C136  A    
C147  N1    A    
C258  N26   T    
C183  F1    S    
C154  N6    A    
C12   C164  A    
C23   C239  A    
C13   C165  A    
C27   C107  S    
C41   C81   A    
C170  C186  A    
C151  O55   S    
C152  O56   S    
C30   C234  A    
C103  O31   A    
C113  C129  A    
C174  C190  A    
C2    C33   S    
C165  C245  S    
C130  C258  S    
C199  C215  A    
C52   F28   S    
C85   N8    S    
C214  C230  A    
O43   Zn11  S    
C86   N7    S    
C101  O27   A    
C197  C213  A    
C102  O28   A    
C247  N15   T    
C123  C153  A    
C25   C231  A    
C81   N4    S    
C121  C155  A    
O30   Zn12  S    
C82   N3    S    
C122  C156  A    
C124  C140  A    
C19   C171  A    
C19   C235  A    
C8    O14   A    
C252  N20   T    
C125  C159  A    
O48   Zn10  S    
C99   O23   A    
C104  O32   A    
C115  C145  A    
C120  C150  A    
C217  F57   S    
C138  C266  S    
C113  C147  A    
C41   C57   A    
O38   Zn8   S    
C44   C60   A    
C45   C61   A    
C92   C93   A    
C45   F21   S    
C106  O38   A    
C13   C229  A    
C212  C228  A    
C95   C127  A    
C111  O45   A    
C1    O5    A    
C136  C264  S    
C5    C40   S    
C207  F47   S    
C162  C242  S    
C208  F48   S    
C51   C85   A    
O35   Zn7   S    
C131  C144  A    
C172  C188  A    
C126  C160  A    
C22   C238  A    
C124  C154  A    
C146  O50   S    
C98   O18   A    
C109  O41   A    
C256  N24   T    
C42   C82   A    
O46   Zn12  S    
C56   F32   S    
C69   H13   S    
C250  N18   T    
C115  C131  A    
C179  F5    S    
C73   C97   S    
C62   H6    S    
O18   Zn6   S    
C49   C65   A    
C215  C231  A    
C131  C259  S    
O28   Zn12  S    
C7    O11   A    
C175  C191  A    
C17   C169  A    
C176  C192  A    
C61   H5    S    
C59   H3    S    
O41   Zn9   S    
C148  O52   S    
C221  F61   S    
C150  N4    A    
C61   C75   A    
C145  O49   S    
C152  N4    A    
C168  C184  A    
C24   C176  A    
C161  C241  S    
C8    C39   S    
C12   C36   A    
C52   C68   A    
O14   Zn4   S    
C102  O26   A    
C199  F39   S    
C80   C104  S    
C31   C237  A    
C112  O48   A    
C211  C227  A    
C192  C208  A    
C105  O33   A    
O20   Zn8   S    
C54   F30   S    
C22   C174  A    
C88   N5    S    
C108  O36   A    
C4    O6    A    
C167  C183  A    
C162  C178  A    
C114  C148  A    
C5    O13   A    
C218  C234  A    
C143  C271  S    
O31   Zn11  S    
C32   C240  A    
C214  F54   S    
C16   C232  A    
C144  C272  S    
C183  C199  A    
C48   C84   A    
C17   C233  A    
C195  C211  A    
C128  C144  A    
C218  F58   S    
C193  C209  A    
C272  N40   T    
C21   C39   A    
C271  N39   T    
C64   C76   A    
C6    C37   S    
C10   C34   A    
C17   C37   A    
O8    Zn2   S    
C50   C66   A    
C243  N11   T    
C19   C39   A    
C159  N7    A    
C95   C125  A    
C157  O61   S    
C193  F33   S    
C156  N6    A    
C15   C167  A    
C108  O40   A    
C153  O57   S    
C10   C226  A    
C157  N7    A    
C57   C73   A    
C220  C236  A    
C4    O4    A    
C148  N2    A    
C118  C134  A    
C216  F56   S    
C150  O54   S    
C158  N8    A    
C171  C187  A    
C165  C181  A    
C201  C217  A    
C169  C249  S    
C169  C185  A    
C260  N28   T    
C241  N9    T    
C220  F60   S    
C259  N27   T    
C249  N17   T    
C16   C168  A    
C132  C260  S    
C60   C74   A    
C216  C232  A    
C7    C38   S    
C15   C33   A    
C265  N33   T    
C187  F13   S    
C24   C40   A    
C50   C86   A    
C55   F31   S    
C201  F41   S    
O7    Zn2   S    
C1    O1    A    
O5    Zn2   S    
O21   Zn5   S    
O9    Zn3   S    
O37   Zn5   S    
C182  C198  A    
O26   Zn10  S    
C29   C239  A    
C246  N14   T    
C94   C124  A    
C188  F16   S    
C67   H11   S    
