data_mof_unit_41662.cif
_audit_creation_date              2012-12-10T17:03:00-0500
_audit_creation_method            fapswitch 2.2
_symmetry_space_group_name_H-M    P1
_symmetry_Int_Tables_number       1
_space_group_crystal_system       triclinic
_cell_length_a                    9.817731
_cell_length_b                    11.024188
_cell_length_c                    13.429335
_cell_angle_alpha                 94.503214
_cell_angle_beta                  81.63806
_cell_angle_gamma                 111.097867
_cell_volume                      1341.10346759

loop_
_atom_site_label
_atom_site_type_symbol
_atom_type_description
_atom_site_fract_x
_atom_site_fract_y
_atom_site_fract_z
_atom_type_partial_charge
C1    C     C_R   0.555266 0.745496 0.509174 0.880779
C2    C     C_R   0.437804 0.486806 0.970270 -0.010752
C3    C     C_R   0.473338 0.537019 0.871799 0.046620
C4    C     C_R   0.547529 0.528301 0.036944 0.085183
C5    C     C_R   0.687999 0.621351 0.005309 0.127852
C6    C     C_R   0.714625 0.679446 0.912714 -0.312099
C7    C     C_R   0.605720 0.644552 0.848930 0.267116
C8    C     C_R   0.521436 0.482748 0.135241 -0.224650
C9    C     C_R   0.766445 0.619825 0.168150 -0.198923
C10   C     C_R   0.374047 0.479744 0.799733 -0.148830
C11   C     C_2   0.580806 0.884007 0.521951 -0.376871
C12   C     C_R   0.422907 0.491451 0.690699 0.843269
C13   C     C_2   0.466037 0.924543 0.535837 -0.162353
C14   C     C_2   0.412040 0.113142 0.494278 0.004954
C15   C     C_2   0.486891 0.063189 0.547502 0.184246
C16   C     C_2   0.921069 0.490644 0.489749 -0.101926
C17   C     C_2   0.078291 0.515370 0.502868 0.002434
C18   C     C_R   0.442820 0.253938 0.495389 0.839756
C19   C     C_R   0.577804 0.512205 0.309658 0.789930
C20   C     C_R   0.797674 0.662667 0.069790 -0.176493
C21   C     C_R   0.625956 0.533829 0.202123 -0.053694
C22   C     C_R   0.231595 0.394147 0.830828 -0.211080
C23   C     C_R   0.189606 0.356457 0.930515 0.238406
C24   C     C_R   0.292868 0.399306 0.998764 -0.179340
Cu1   Cu    Cu3+1 0.362000 0.479240 0.482530 0.967161
Cu2   Cu    Cu3+1 0.638000 0.520760 0.517470 0.935485
H1    H     H_    0.848815 0.659888 0.219089 0.153615
H2    H     H_    0.354708 0.855292 0.534522 0.168099
H3    H     H_    0.692601 0.952493 0.522977 0.163000
H4    H     H_    0.133481 0.598385 0.549635 0.113738
H5    H     H_    0.868940 0.421591 0.432518 0.177314
H6    H     H_    0.896457 0.619077 0.596901 0.188851
H7    H     H_    0.817286 0.758771 0.892688 0.138586
H8    H     H_    0.905208 0.733458 0.045793 0.133608
H9    H     H_    0.418687 0.410925 0.163867 0.126435
H10   H     H_    0.154568 0.352356 0.776424 0.157989
H11   H     H_    0.254721 0.363561 0.073821 0.130572
N1    N     N_2   0.845330 0.551960 0.543750 -0.292329
N2    N     N_2   0.154690 0.448120 0.456210 -0.057256
O1    O     O_R   0.426290 0.668220 0.490680 -0.587359
O2    O     O_R   0.659360 0.703290 0.520190 -0.567664
O3    O     O_R   0.326580 0.473880 0.629020 -0.595529
O4    O     O_R   0.559660 0.508940 0.658530 -0.552335
O5    O     O_R   0.340640 0.296710 0.479810 -0.546752
O6    O     O_R   0.573710 0.331780 0.509320 -0.588940
O7    O     O_R   0.440340 0.491060 0.341470 -0.568291
O8    O     O_R   0.673420 0.526120 0.370980 -0.582761
C25   C     C_3   0.299578 0.026751 0.428514 -0.915092
H12   H     H_    0.256025 0.083961 0.385752 0.254605
H13   H     H_    0.350711 0.970883 0.372710 0.243846
H14   H     H_    0.205225 0.958350 0.475911 0.233888
N3    N     N_2   0.078684 0.325182 0.419174 -0.296377
H15   H     H_    0.977301 0.275904 0.458428 0.223232
C26   C     C_3   0.082515 0.316977 0.311048 -0.624480
H16   H     H_    0.029713 0.381243 0.286241 0.198886
H17   H     H_    0.022730 0.215182 0.286931 0.194127
H18   H     H_    0.197688 0.345875 0.274614 0.239168
C27   C     C_3   0.036511 0.265461 0.964139 -0.891347
H19   H     H_    0.967115 0.238975 0.901817 0.231483
H20   H     H_    0.041297 0.174911 0.991755 0.229331
H21   H     H_    0.983668 0.312630 0.026140 0.237199
N4    N     N_2   0.622123 0.728957 0.769495 -0.409375
H22   H     H_    0.729858 0.780998 0.742288 0.250346
C28   C     C_3   0.533730 0.810510 0.791162 -0.719374
H23   H     H_    0.549101 0.870854 0.725732 0.230467
H24   H     H_    0.567692 0.875897 0.857448 0.228550
H25   H     H_    0.415045 0.750413 0.805902 0.232320
C29   C     C_3   0.590848 0.143995 0.620924 -0.824854
H26   H     H_    0.617686 0.081589 0.669943 0.216899
H27   H     H_    0.696222 0.206297 0.579531 0.239586
H28   H     H_    0.539007 0.204342 0.671437 0.228195

loop_
_geom_bond_atom_site_label_1
_geom_bond_atom_site_label_2
_ccdc_geom_bond_type
Cu1   O3    S    
C23   C27   S    
C2    C4    A    
C23   C24   A    
C18   O6    A    
C13   H2    S    
N4    H22   S    
C8    C21   A    
C18   O5    A    
C22   H10   S    
C14   C18   S    
C9    C20   A    
C1    C11   S    
C6    H7    S    
C4    C8    A    
C20   H8    S    
C28   H23   S    
C27   H21   S    
C25   H13   S    
C24   H11   S    
Cu1   Cu2   S    
C19   O7    A    
C26   H18   S    
C7    N4    S    
C3    C10   A    
C10   C22   A    
C16   H5    S    
C17   H4    S    
C11   C13   D    
C9    C21   A    
C6    C7    A    
C10   C12   S    
Cu2   O8    S    
C29   H28   S    
C15   C29   S    
Cu1   O5    S    
C1    O2    A    
C25   H12   S    
C19   C21   S    
N3    C26   S    
Cu2   O4    S    
C2    C3    A    
C12   O4    A    
C3    C7    A    
H6    N1    S    
C13   C15   S    
Cu1   O1    S    
C2    C24   A    
C5    C6    A    
C26   H17   S    
C16   C17   S    
C11   H3    S    
C12   O3    A    
C28   H25   S    
N3    H15   S    
C9    H1    S    
C29   H27   S    
C17   N2    D    
C19   O8    A    
C16   N1    D    
C5    C20   A    
C14   C25   S    
C22   C23   A    
Cu2   N1    S    
N4    C28   S    
C1    O1    A    
C27   H19   S    
C26   H16   S    
C27   H20   S    
Cu1   O7    S    
C29   H26   S    
C25   H14   S    
Cu1   N2    S    
C14   C15   D    
Cu2   O2    S    
N2    N3    S    
C4    C5    A    
Cu2   O6    S    
C8    H9    S    
C28   H24   S    
