data_mof_unit_17356.cif
_audit_creation_date              2012-12-11T16:53:25-0500
_audit_creation_method            fapswitch 2.2
_symmetry_space_group_name_H-M    P1
_symmetry_Int_Tables_number       1
_space_group_crystal_system       triclinic
_cell_length_a                    14.843529
_cell_length_b                    14.719195
_cell_length_c                    17.061061
_cell_angle_alpha                 108.650093
_cell_angle_beta                  105.928504
_cell_angle_gamma                 108.221482
_cell_volume                      3050.60976851

loop_
_atom_site_label
_atom_site_type_symbol
_atom_type_description
_atom_site_fract_x
_atom_site_fract_y
_atom_site_fract_z
_atom_type_partial_charge
C1    C     C_R   0.087941 0.281989 0.069778 -0.117533
C2    C     C_R   0.066001 0.476031 0.249505 -0.138755
C3    C     C_R   0.220762 0.798075 0.183866 -0.116919
C4    C     C_R   0.939780 0.472693 0.735010 -0.127338
C5    C     C_R   0.744851 0.471188 0.054396 -0.116113
C6    C     C_R   0.238398 0.806036 0.269866 0.054060
C7    C     C_R   0.718446 0.549226 0.040640 0.069756
C8    C     C_R   0.976715 0.411036 0.250609 0.071466
C9    C     C_R   0.999409 0.813217 0.957685 0.106287
C10   C     C_R   0.526016 0.658138 0.046470 0.112748
C11   C     C_R   0.473592 0.600885 0.084665 0.044333
C12   C     C_R   0.034973 0.498783 0.727087 0.147983
C13   C     C_R   0.529310 0.567762 0.141613 -0.175992
C14   C     C_R   0.622361 0.566309 0.139181 -0.183674
C15   C     C_R   0.658046 0.596485 0.078819 0.041119
C16   C     C_R   0.736494 0.203879 0.817150 -0.226597
C17   C     C_R   0.616831 0.655340 0.042891 0.143299
C18   C     C_3   0.586899 0.651729 0.950102 -0.512677
C19   C     C_3   0.488533 0.655951 0.954748 -0.405818
C20   C     C_R   0.974939 0.370059 0.318513 0.102982
C21   C     C_R   0.049828 0.472913 0.642559 -0.106738
C22   C     C_R   0.152845 0.497138 0.556336 -0.325492
C23   C     C_R   0.689226 0.200772 0.733709 0.077008
C24   C     C_R   0.142247 0.533506 0.637594 0.558867
C25   C     C_R   0.967068 0.385679 0.563155 -0.269672
C26   C     C_R   0.971194 0.365325 0.479238 0.172419
C27   C     C_R   0.065987 0.419555 0.476644 0.113722
C28   C     C_R   0.301163 0.595302 0.003310 -0.163254
C29   C     C_R   0.068495 0.411472 0.394533 -0.227551
C30   C     C_R   0.881001 0.308104 0.318247 -0.179972
C31   C     C_R   0.880120 0.301873 0.398154 -0.170351
C32   C     C_R   0.596737 0.114471 0.656020 -0.067090
C33   C     C_R   0.297468 0.905924 0.352396 0.133314
C34   C     C_R   0.360783 0.561711 0.053654 0.070817
C35   C     C_R   0.456607 0.066633 0.422349 -0.042420
C36   C     C_R   0.363916 0.994538 0.348419 -0.134335
C37   C     C_R   0.310223 0.905275 0.436418 -0.207669
C38   C     C_R   0.402430 0.979938 0.512267 0.111919
C39   C     C_R   0.480858 0.053173 0.501691 -0.044046
C40   C     C_R   0.735209 0.303128 0.742625 0.564192
C41   C     C_R   0.582026 0.108385 0.569230 0.545908
C42   C     C_R   0.517004 0.047921 0.669104 -0.210507
C43   C     C_R   0.421370 0.976927 0.596030 -0.163300
C44   C     C_R   0.080040 0.118532 0.144618 0.066142
C45   C     C_R   0.216268 0.704059 0.263705 -0.117952
C46   C     C_R   0.997161 0.101622 0.069013 0.081792
C47   C     C_R   0.905980 0.004339 0.027916 -0.206227
C48   C     C_R   0.894244 0.935036 0.069339 -0.167204
C49   C     C_R   0.973277 0.961039 0.151623 0.031691
C50   C     C_R   0.068353 0.048812 0.184284 0.000110
C51   C     C_3   0.132522 0.137882 0.278244 0.431070
C52   C     C_R   0.295818 0.497081 0.078382 -0.107191
C53   C     C_3   0.145666 0.214423 0.235055 -0.657374
C54   C     C_R   0.113210 0.550337 0.814003 -0.027246
C55   C     C_R   0.915160 0.197680 0.993294 -0.108068
C56   C     C_R   0.753385 0.568729 0.977754 -0.136631
C57   C     C_R   0.001175 0.186117 0.038695 0.057315
C58   C     C_R   0.893658 0.390856 0.174846 -0.136909
C59   C     C_R   0.084077 0.801046 0.003724 -0.119204
C60   C     C_R   0.913802 0.717599 0.927602 -0.144815
H1    H     H_    0.166001 0.306771 0.117582 0.104103
H2    H     H_    0.657020 0.528201 0.174539 0.130468
H3    H     H_    0.639615 0.724428 0.950053 0.191316
H4    H     H_    0.862798 0.433111 0.680681 0.173039
H5    H     H_    0.570369 0.574682 0.895608 0.211013
H6    H     H_    0.485408 0.731695 0.958655 0.213363
H7    H     H_    0.417532 0.581723 0.902861 0.216554
H8    H     H_    0.142778 0.454377 0.395480 0.121800
H9    H     H_    0.807856 0.271225 0.259179 0.121184
H10   H     H_    0.224010 0.541112 0.552495 0.188435
H11   H     H_    0.806500 0.258880 0.398841 0.157513
H12   H     H_    0.750360 0.627404 0.953988 0.107198
H13   H     H_    0.895970 0.339528 0.565326 0.219053
H14   H     H_    0.711874 0.142426 0.838775 0.130116
H15   H     H_    0.528216 0.051487 0.735647 0.157935
H16   H     H_    0.510906 0.128715 0.414972 0.183570
H17   H     H_    0.361648 0.922303 0.605509 0.171377
H18   H     H_    0.352933 0.001536 0.285749 0.101020
H19   H     H_    0.254916 0.840527 0.440691 0.126110
H20   H     H_    0.841227 0.984741 0.967122 0.133377
H21   H     H_    0.821572 0.864245 0.040343 0.124535
H22   H     H_    0.087910 0.146806 0.320692 0.101915
H23   H     H_    0.813990 0.331964 0.148210 0.088832
H24   H     H_    0.106753 0.266905 0.250996 0.190697
H25   H     H_    0.329096 0.661229 0.987429 0.119527
H26   H     H_    0.226849 0.256370 0.243543 0.209272
H27   H     H_    0.318984 0.469001 0.128305 0.085404
H28   H     H_    0.195623 0.576477 0.834175 0.154229
H29   H     H_    0.834392 0.146031 0.972941 0.090366
H30   H     H_    0.224311 0.680907 0.318342 0.105656
H31   H     H_    0.244321 0.793240 0.832476 0.365179
H32   H     H_    0.723314 0.087139 0.424512 0.364507
H33   H     H_    0.259872 0.122545 0.279851 0.316157
H34   H     H_    0.164539 0.854679 0.025393 0.093961
H35   H     H_    0.727010 0.423408 0.725479 0.301402
H36   H     H_    0.836457 0.694129 0.879203 0.103023
H37   H     H_    0.145705 0.495366 0.288844 0.090130
H38   H     H_    0.231359 0.861306 0.163541 0.091427
H39   H     H_    0.731045 0.436865 0.099657 0.096890
H40   H     H_    0.495698 0.530622 0.178609 0.127429
N1    N     N_R   0.055640 0.348550 0.045600 -0.041712
N2    N     N_R   0.811290 0.303400 0.871650 -0.065043
N3    N     N_R   0.205180 0.552990 0.997660 -0.044869
N4    N     N_R   0.814810 0.361830 0.823710 -0.113421
N5    N     N_R   0.201660 0.494570 0.045600 -0.039904
N6    N     N_R   0.068420 0.560530 0.871650 -0.055758
N7    N     N_R   0.948050 0.295860 0.997660 -0.035157
N8    N     N_R   0.185190 0.638170 0.176290 -0.043131
N9    N     N_R   0.798340 0.505430 0.954400 -0.049368
N10   N     N_R   0.931580 0.439470 0.128350 -0.038776
N11   N     N_R   0.051950 0.704140 0.002340 -0.041774
N12   N     N_R   0.944360 0.651450 0.954400 -0.043907
N13   N     N_R   0.039170 0.492150 0.176290 -0.039130
N14   N     N_R   0.188710 0.696600 0.128350 -0.042273
N15   N     N_R   0.794820 0.447010 0.002340 -0.043326
N16   N     N_R   0.960830 0.507850 0.823710 -0.061910
Ni1   Ni    Ni4+2 0.119330 0.493420 0.109950 0.213244
Ni2   Ni    Ni4+2 0.880670 0.506580 0.890050 0.218587
Ni3   Ni    Ni4+2 0.872590 0.372590 0.000000 0.211316
Ni4   Ni    Ni4+2 0.127410 0.627410 0.000000 0.225761
O1    O     O_2   0.324722 0.657625 0.784090 -0.354453
O2    O     O_2   0.280440 0.727328 0.674635 -0.286899
O3    O     O_3   0.184109 0.729567 0.779826 -0.548619
O4    O     O_2   0.700973 0.252380 0.530206 -0.333308
O5    O     O_2   0.789317 0.171055 0.609800 -0.315455
O6    O     O_3   0.664171 0.056562 0.439166 -0.546284
O7    O     O_3   0.226212 0.135255 0.322592 -0.723821
O8    O     O_3   0.687446 0.344587 0.692034 -0.738245
S1    S     S_3+6 0.236904 0.664539 0.720757 -0.072201
S2    S     S_3+6 0.689263 0.151752 0.539695 -0.076927

loop_
_geom_bond_atom_site_label_1
_geom_bond_atom_site_label_2
_ccdc_geom_bond_type
N1    N7    A    
N12   Ni2   S    
C6    C45   A    
C27   C29   A    
N3    Ni4   S    
C28   N3    A    
C3    C6    A    
C39   C41   A    
C20   C30   A    
C18   H5    S    
C37   H19   S    
C42   H15   S    
C8    C20   S    
C53   H24   S    
C16   H14   S    
C7    C56   A    
C30   C31   A    
C2    N13   A    
C18   H3    S    
O6    S2    S    
C10   C17   A    
C23   C40   A    
C14   H2    S    
C33   C36   A    
C48   H21   S    
C19   H6    S    
C18   C19   S    
N8    N14   A    
C8    C58   A    
H35   O8    S    
C5    H39   S    
C2    H37   S    
C56   H12   S    
C59   N11   A    
C32   C41   A    
C19   H7    S    
C53   H26   S    
C59   H34   S    
C4    C12   A    
O2    S1    D    
C45   N8    A    
C31   H11   S    
C28   C34   A    
C26   C31   A    
H31   O3    S    
C13   C14   A    
O3    S1    S    
N5    Ni1   S    
C47   H20   S    
C44   C53   S    
N7    Ni3   S    
C44   C46   A    
N9    Ni2   S    
C50   C51   S    
N4    Ni2   S    
C20   C29   A    
C11   C34   S    
C35   H16   S    
C54   N6    A    
C5    C7    A    
C25   C26   A    
C12   C21   S    
C33   C37   A    
C1    H1    S    
N11   Ni4   S    
C9    C59   A    
C35   C36   A    
C35   C39   A    
H33   O7    S    
C37   C38   A    
C60   N12   A    
C1    C57   A    
C40   N4    A    
C29   H8    S    
C47   C48   A    
N10   N13   A    
C10   C19   S    
C17   C18   S    
C26   C27   A    
O4    S2    D    
N3    N5    A    
N2    N4    A    
C45   H30   S    
C51   H22   S    
N13   Ni1   S    
C60   H36   S    
C16   N2    A    
C48   C49   A    
C52   N5    A    
C16   C23   A    
N15   Ni3   S    
C22   C27   A    
C55   C57   A    
C46   C57   S    
C22   C24   A    
C42   C43   A    
C12   C54   A    
C1    N1    A    
C56   N9    A    
C30   H9    S    
C44   C50   A    
C15   C17   A    
C21   C25   A    
C46   C47   A    
N11   N12   A    
N6    Ni4   S    
C58   N10   A    
N8    Ni1   S    
C4    N16   A    
C52   H27   S    
C2    C8    A    
O1    S1    D    
C3    N14   A    
H32   O6    S    
N10   Ni3   S    
C43   H17   S    
C4    H4    S    
C34   C52   A    
C6    C33   S    
C41   S2    S    
C9    C60   A    
C51   O7    S    
C23   C32   S    
C13   H40   S    
C24   S1    S    
N1    Ni1   S    
C38   C43   A    
C55   H29   S    
C36   H18   S    
C58   H23   S    
C54   H28   S    
C11   C13   A    
C3    H38   S    
C38   C39   A    
C7    C15   S    
N16   Ni2   S    
C25   H13   S    
O5    S2    D    
N14   Ni4   S    
C10   C11   A    
N9    N15   A    
C49   C50   A    
C21   C24   A    
N6    N16   A    
C28   H25   S    
C32   C42   A    
C14   C15   A    
C55   N7    A    
C51   C53   S    
C22   H10   S    
C5    N15   A    
N2    Ni3   S    
C40   O8    S    
