data_mof_unit_19611.cif
_audit_creation_date              2012-12-10T16:52:04-0500
_audit_creation_method            fapswitch 2.2
_symmetry_space_group_name_H-M    P1
_symmetry_Int_Tables_number       1
_space_group_crystal_system       triclinic
_cell_length_a                    7.781454
_cell_length_b                    8.678259
_cell_length_c                    14.932155
_cell_angle_alpha                 91.46976
_cell_angle_beta                  85.756706
_cell_angle_gamma                 93.38941
_cell_volume                      1003.60822333

loop_
_atom_site_label
_atom_site_type_symbol
_atom_type_description
_atom_site_fract_x
_atom_site_fract_y
_atom_site_fract_z
_atom_type_partial_charge
C1    C     C_R   0.545074 0.793908 0.495492 0.889829
C2    C     C_R   0.570102 0.630202 0.811597 0.414044
C3    C     C_R   0.498065 0.503202 0.232015 -0.308254
C4    C     C_R   0.504882 0.497822 0.767591 -0.290922
C5    C     C_R   0.567842 0.634004 0.186537 0.421536
C6    C     C_R   0.436771 0.367403 0.813715 0.410960
C7    C     C_R   0.562028 0.638039 0.092851 -0.097331
C8    C     C_R   0.452319 0.361557 0.906501 -0.093589
C9    C     C_R   0.509131 0.500619 0.046324 -0.097355
C10   C     C_R   0.509863 0.498094 0.952597 -0.096737
C11   C     C_R   0.456285 0.364891 0.093557 -0.045282
C12   C     C_R   0.454763 0.205976 0.503610 0.907652
C13   C     C_R   0.566490 0.632619 0.905039 -0.033486
C14   C     C_R   0.611500 0.774045 0.045047 0.535632
C15   C     C_R   0.410159 0.224171 0.954087 0.546492
C16   C     C_3   0.203619 0.220782 0.237744 -0.240958
C17   C     C_3   0.516321 0.849930 0.740149 -0.244938
C18   C     C_3   0.820178 0.750025 0.229723 -0.245196
C19   C     C_3   0.181714 0.252634 0.774307 -0.250466
C20   C     C_3   0.789157 0.995750 0.059486 -0.329068
C21   C     C_3   0.224418 0.006946 0.946177 -0.386573
C22   C     C_3   0.834367 0.015265 0.424965 -0.231060
C23   C     C_R   0.614591 0.768754 0.951260 -0.276237
C24   C     C_3   0.161969 0.987633 0.572129 -0.214960
C25   C     C_R   0.419817 0.226937 0.046941 -0.281126
C26   C     C_2   0.570056 0.956526 0.496901 0.206620
C27   C     C_2   0.429364 0.043283 0.501726 0.209127
C28   C     C_R   0.501497 0.497664 0.672547 0.984950
C29   C     C_R   0.498822 0.501616 0.327328 1.017065
C30   C     C_R   0.441758 0.369011 0.187131 0.416147
H1    H     H_    0.648147 0.873313 0.914523 0.215632
H2    H     H_    0.876252 0.712217 0.162447 0.133539
H3    H     H_    0.859252 0.672368 0.281460 0.179338
H4    H     H_    0.129451 0.278213 0.844234 0.147556
H5    H     H_    0.121827 0.139133 0.754245 0.173455
H6    H     H_    0.140799 0.340321 0.728761 0.185014
H7    H     H_    0.766509 0.064672 0.000287 0.169176
H8    H     H_    0.829571 0.078381 0.112916 0.190292
H9    H     H_    0.896984 0.918358 0.043711 0.129944
H10   H     H_    0.123384 0.086894 0.970535 0.140705
H11   H     H_    0.256168 0.932019 0.001117 0.181953
H12   H     H_    0.398363 0.120082 0.082663 0.233388
H13   H     H_    0.168345 0.930771 0.893771 0.191791
H14   H     H_    0.764916 0.061815 0.369795 0.156582
H15   H     H_    0.875019 0.897347 0.407316 0.186643
H16   H     H_    0.953966 0.088986 0.431231 0.220864
H17   H     H_    0.044810 0.910258 0.566507 0.239166
H18   H     H_    0.117093 0.105177 0.586719 0.191929
H19   H     H_    0.230353 0.947457 0.629285 0.120264
H20   H     H_    0.936308 0.344004 0.370087 0.313371
H21   H     H_    0.062171 0.654970 0.631052 0.327452
H22   H     H_    0.139733 0.332590 0.241363 0.163166
H23   H     H_    0.156697 0.154069 0.297894 0.207743
H24   H     H_    0.162184 0.153003 0.178343 0.124545
H25   H     H_    0.415125 0.865338 0.795502 0.195887
H26   H     H_    0.454942 0.803042 0.680047 0.137029
H27   H     H_    0.576923 0.965562 0.723495 0.227063
H28   H     H_    0.878781 0.867047 0.243299 0.166571
N1    N     N_2   0.950330 0.457950 0.475660 0.176012
N2    N     N_2   0.049670 0.542050 0.524340 0.173110
O1    O     O_R   0.389250 0.738570 0.505970 -0.614603
O2    O     O_3   0.645815 0.754098 0.763226 -0.601797
O3    O     O_3   0.638459 0.757701 0.234808 -0.562705
O4    O     O_3   0.363168 0.243959 0.766437 -0.593082
O5    O     O_3   0.635677 0.913787 0.091475 -0.548971
O6    O     O_3   0.375471 0.085894 0.908154 -0.576913
O7    O     O_3   0.736263 0.018260 0.508388 -0.613418
O8    O     O_3   0.263247 0.981411 0.489661 -0.612147
O9    O     O_3   0.030937 0.387548 0.405516 -0.688767
O10   O     O_3   0.968448 0.611622 0.594936 -0.646615
O11   O     O_R   0.610750 0.261430 0.494030 -0.606563
O12   O     O_R   0.678390 0.711620 0.490370 -0.583408
O13   O     O_R   0.321610 0.288380 0.509630 -0.589215
O14   O     O_R   0.355420 0.513510 0.639950 -0.682718
O15   O     O_R   0.644580 0.486490 0.360050 -0.669816
O16   O     O_R   0.644560 0.486560 0.624350 -0.547880
O17   O     O_R   0.355440 0.513440 0.375650 -0.565526
O18   O     O_3   0.385533 0.239257 0.235903 -0.589566
Zn1   Zn    Zn3+2 0.306940 0.517990 0.510420 1.042280
Zn2   Zn    Zn3+2 0.693060 0.482010 0.489580 1.055732

loop_
_geom_bond_atom_site_label_1
_geom_bond_atom_site_label_2
_ccdc_geom_bond_type
N2    Zn1   S    
C21   O6    S    
C28   O14   A    
C13   C23   A    
C26   C27   D    
C26   O7    S    
H20   O9    S    
C19   H6    S    
C18   O3    S    
C15   C25   A    
C11   C25   A    
C5    O3    S    
C6    O4    S    
C3    C29   S    
C2    C13   A    
C16   H23   S    
C27   O8    S    
C21   H13   S    
C18   H28   S    
C7    C14   A    
C22   H14   S    
C11   C30   A    
H21   O10   S    
O15   Zn2   S    
C17   H25   S    
N1    N2    D    
C12   O13   A    
O11   Zn2   S    
C4    C28   S    
O17   Zn1   S    
C1    O12   A    
C12   C27   S    
C24   H18   S    
O16   Zn2   S    
C20   O5    S    
C4    C6    A    
C5    C7    A    
C20   H9    S    
C6    C8    A    
C15   O6    S    
C19   H4    S    
C23   H1    S    
C14   C23   A    
C25   H12   S    
C3    C30   A    
C2    C4    A    
C17   O2    S    
C20   H8    S    
N2    O10   S    
C19   O4    S    
O13   Zn1   S    
C9    C11   A    
C17   H26   S    
N1    O9    S    
C21   H11   S    
C22   H16   S    
C12   O11   A    
C8    C15   A    
O14   Zn1   S    
C1    C26   S    
C18   H2    S    
C28   O16   A    
C9    C10   A    
C24   H19   S    
C7    C9    A    
C24   H17   S    
C16   H22   S    
C3    C5    A    
C10   C13   A    
C1    O1    A    
N1    Zn2   S    
C29   O15   A    
O12   Zn2   S    
C19   H5    S    
C20   H7    S    
C21   H10   S    
O1    Zn1   S    
C14   O5    S    
C16   O18   S    
C18   H3    S    
C16   H24   S    
C22   O7    S    
C24   O8    S    
C30   O18   S    
C22   H15   S    
C29   O17   A    
C8    C10   A    
C2    O2    S    
C17   H27   S    
