data_mof_unit_63002.cif
_audit_creation_date              2012-12-10T19:26:59-0500
_audit_creation_method            fapswitch 2.2
_symmetry_space_group_name_H-M    P1
_symmetry_Int_Tables_number       1
_space_group_crystal_system       triclinic
_cell_length_a                    30.565451
_cell_length_b                    30.459666
_cell_length_c                    27.71124
_cell_angle_alpha                 90.180032
_cell_angle_beta                  90.102142
_cell_angle_gamma                 90.043864
_cell_volume                      25799.3605346

loop_
_atom_site_label
_atom_site_type_symbol
_atom_type_description
_atom_site_fract_x
_atom_site_fract_y
_atom_site_fract_z
_atom_type_partial_charge
C1    C     C_R   0.117757 0.381097 0.248878 -0.025226
C2    C     C_R   0.882434 0.380879 0.248900 -0.037324
C3    C     C_1   0.999966 0.499924 0.525487 0.038738
C4    C     C_1   0.000032 0.499982 0.974506 0.032893
C5    C     C_1   0.999958 0.499985 0.025494 0.030291
C6    C     C_1   0.499972 0.000059 0.974518 0.036113
C7    C     C_1   0.499966 0.999924 0.025487 0.038738
C8    C     C_R   0.135273 0.364549 0.292338 0.214538
C9    C     C_R   0.868213 0.638371 0.792452 0.210544
C10   C     C_R   0.358449 0.866497 0.285329 0.209393
C11   C     C_R   0.663357 0.107132 0.750786 0.194807
C12   C     C_R   0.865047 0.635987 0.292280 0.215195
C13   C     C_R   0.382318 0.119030 0.748843 -0.026833
C14   C     C_R   0.132130 0.361946 0.792309 0.205990
C15   C     C_R   0.662953 0.104013 0.241987 0.215518
C16   C     C_R   0.337558 0.891793 0.749684 0.207210
C17   C     C_R   0.108969 0.662138 0.753862 0.205789
C18   C     C_R   0.895308 0.336403 0.246731 0.210148
C19   C     C_R   0.367123 0.135187 0.704139 0.222054
C20   C     C_R   0.637733 0.869690 0.204831 0.214372
C21   C     C_R   0.866282 0.369894 0.697715 0.219281
C22   C     C_R   0.107731 0.662599 0.264259 0.212920
C23   C     C_R   0.632794 0.864611 0.704205 0.224426
C24   C     C_R   0.618523 0.882061 0.249051 -0.031459
C25   C     C_R   0.362158 0.130142 0.204991 0.208604
C26   C     C_R   0.635274 0.864549 0.792338 0.214538
C27   C     C_R   0.368213 0.138371 0.292452 0.210544
C28   C     C_R   0.858449 0.366497 0.785329 0.209393
C29   C     C_R   0.163357 0.607132 0.250786 0.194807
C30   C     C_R   0.365047 0.135987 0.792280 0.215194
C31   C     C_R   0.632130 0.861946 0.292309 0.205990
C32   C     C_R   0.162953 0.604013 0.741987 0.215518
C33   C     C_R   0.837558 0.391793 0.249684 0.207210
C34   C     C_R   0.608969 0.162138 0.253862 0.205789
C35   C     C_R   0.879502 0.383807 0.744296 -0.034309
C36   C     C_R   0.395308 0.836403 0.746731 0.210148
C37   C     C_R   0.867123 0.635187 0.204139 0.222054
C38   C     C_R   0.137733 0.369690 0.704831 0.214373
C39   C     C_R   0.366281 0.869894 0.197715 0.219281
C40   C     C_R   0.607731 0.162599 0.764259 0.212920
C41   C     C_R   0.132794 0.364611 0.204205 0.224426
C42   C     C_R   0.862158 0.630142 0.704991 0.208604
C43   C     C_R   0.167706 0.331977 0.291029 0.271074
C44   C     C_R   0.835885 0.671038 0.791465 0.233985
C45   C     C_R   0.324905 0.835272 0.279788 0.266410
C46   C     C_R   0.118626 0.618755 0.252358 -0.043350
C47   C     C_R   0.695631 0.140043 0.754327 0.258151
C48   C     C_R   0.832674 0.668610 0.290916 0.270414
C49   C     C_R   0.164516 0.329344 0.791252 0.234480
C50   C     C_R   0.696350 0.135540 0.240608 0.215057
C51   C     C_R   0.305867 0.858469 0.748225 0.233496
C52   C     C_R   0.142485 0.693606 0.752718 0.267620
C53   C     C_R   0.863548 0.303196 0.245700 0.233954
C54   C     C_R   0.334461 0.167447 0.702942 0.214487
C55   C     C_R   0.670181 0.837206 0.203874 0.233930
C56   C     C_R   0.833383 0.338144 0.692399 0.211595
C57   C     C_R   0.617757 0.881097 0.748878 -0.025226
C58   C     C_R   0.140898 0.693887 0.269743 0.280399
C59   C     C_R   0.665523 0.832407 0.703058 0.214607
C60   C     C_R   0.329767 0.162685 0.204103 0.232614
C61   C     C_R   0.667706 0.831978 0.791029 0.271074
C62   C     C_R   0.335884 0.171038 0.291465 0.233985
C63   C     C_R   0.824905 0.335272 0.779788 0.266410
C64   C     C_R   0.195631 0.640043 0.254327 0.258151
C65   C     C_R   0.332675 0.168610 0.790916 0.270415
C66   C     C_R   0.664516 0.829344 0.291253 0.234480
C67   C     C_R   0.196350 0.635540 0.740609 0.215057
C68   C     C_R   0.381541 0.117954 0.249173 -0.032190
C69   C     C_R   0.805867 0.358469 0.248225 0.233495
C70   C     C_R   0.642485 0.193606 0.252718 0.267620
C71   C     C_R   0.363548 0.803196 0.745700 0.233954
C72   C     C_R   0.834461 0.667447 0.202942 0.214486
C73   C     C_R   0.170181 0.337206 0.703874 0.233929
C74   C     C_R   0.333383 0.838144 0.192399 0.211595
C75   C     C_R   0.640898 0.193887 0.769743 0.280400
C76   C     C_R   0.165523 0.332407 0.203057 0.214608
C77   C     C_R   0.829767 0.662686 0.704103 0.232614
C78   C     C_R   0.183058 0.316161 0.246436 0.005832
C79   C     C_R   0.282906 0.217786 0.245939 0.019056
C80   C     C_R   0.816720 0.683258 0.747287 -0.023914
C81   C     C_R   0.312509 0.820902 0.233389 0.020568
C82   C     C_R   0.683280 0.184910 0.752557 -0.011903
C83   C     C_R   0.817149 0.684072 0.246295 0.005582
C84   C     C_R   0.183465 0.316898 0.747030 -0.022590
C85   C     C_R   0.686133 0.180327 0.245995 0.007133
C86   C     C_R   0.318862 0.814200 0.746318 -0.020864
C87   C     C_R   0.186133 0.680327 0.745995 0.007133
C88   C     C_R   0.818862 0.314200 0.246318 -0.020864
C89   C     C_R   0.317149 0.184072 0.746295 0.005583
C90   C     C_R   0.717625 0.782397 0.745144 0.028470
C91   C     C_R   0.683465 0.816898 0.247030 -0.022590
C92   C     C_R   0.812509 0.320902 0.733389 0.020568
C93   C     C_R   0.183280 0.684910 0.252557 -0.011903
C94   C     C_R   0.683058 0.816161 0.746436 0.005832
C95   C     C_R   0.316720 0.183258 0.247287 -0.023914
C96   C     C_3   0.282234 0.360874 0.223183 -0.038378
C97   C     C_3   0.713709 0.645847 0.779288 -0.058647
C98   C     C_3   0.342871 0.716288 0.167092 -0.003379
C99   C     C_3   0.640567 0.313346 0.749859 0.029305
C100  C     C_3   0.717891 0.639127 0.223224 -0.037077
C101  C     C_R   0.213866 0.721499 0.235812 0.008288
C102  C     C_3   0.286569 0.354627 0.778736 -0.051135
C103  C     C_3   0.717403 0.203642 0.131744 -0.041819
C104  C     C_3   0.276592 0.790227 0.859044 -0.060064
C105  C     C_3   0.276421 0.671244 0.841374 -0.009523
C106  C     C_3   0.804899 0.286831 0.138188 -0.058508
C107  C     C_3   0.344209 0.293230 0.684946 0.005205
C108  C     C_3   0.636899 0.728403 0.220636 -0.064809
C109  C     C_3   0.720364 0.361747 0.687127 -0.079537
C110  C     C_3   0.241661 0.668782 0.150548 -0.102036
C111  C     C_3   0.655735 0.706538 0.685387 0.008186
C112  C     C_R   0.881541 0.617954 0.749173 -0.032190
C113  C     C_R   0.777687 0.287463 0.727989 0.038542
C114  C     C_3   0.363225 0.271553 0.220821 -0.053703
C115  C     C_3   0.782234 0.860874 0.723183 -0.038378
C116  C     C_3   0.213709 0.145847 0.279288 -0.058647
C117  C     C_3   0.842871 0.216288 0.667092 -0.003379
C118  C     C_3   0.140567 0.813346 0.249859 0.029305
C119  C     C_3   0.217891 0.139127 0.723225 -0.037080
C120  C     C_3   0.786569 0.854627 0.278737 -0.051135
C121  C     C_3   0.217403 0.703642 0.631744 -0.041818
C122  C     C_3   0.776592 0.290227 0.359044 -0.060064
C123  C     C_3   0.776421 0.171244 0.341374 -0.009523
C124  C     C_R   0.717281 0.782385 0.245621 0.018696
C125  C     C_3   0.304899 0.786831 0.638188 -0.058509
C126  C     C_3   0.844209 0.793230 0.184946 0.005206
C127  C     C_3   0.136899 0.228403 0.720637 -0.064810
C128  C     C_3   0.220364 0.861747 0.187127 -0.079537
C129  C     C_3   0.741661 0.168782 0.650548 -0.102036
C130  C     C_3   0.155735 0.206538 0.185387 0.008188
C131  C     C_3   0.863225 0.771553 0.720821 -0.053703
C132  C     C_R   0.282579 0.217813 0.744944 0.028814
C133  C     C_R   0.785701 0.279010 0.245180 0.020050
C134  C     C_R   0.221335 0.713440 0.745135 0.029570
C135  C     C_R   0.285701 0.779010 0.745180 0.020049
C136  C     C_R   0.721335 0.213440 0.245135 0.029570
C137  C     C_R   0.217281 0.282385 0.745621 0.018696
C138  C     C_R   0.782579 0.717813 0.244944 0.028814
C139  C     C_R   0.713866 0.221499 0.735812 0.008288
C140  C     C_R   0.379502 0.883807 0.244296 -0.034309
C141  C     C_R   0.277687 0.787463 0.227989 0.038542
C142  C     C_R   0.782906 0.717786 0.745939 0.019056
C143  C     C_R   0.217625 0.282397 0.245144 0.028470
C144  C     C_R   0.261584 0.294497 0.252787 0.288925
C145  C     C_R   0.738838 0.705654 0.739362 0.265550
C146  C     C_R   0.288868 0.743962 0.217151 0.295277
C147  C     C_R   0.700558 0.266457 0.734649 0.273226
C148  C     C_R   0.738658 0.705743 0.252627 0.288863
C149  C     C_R   0.261314 0.294495 0.738979 0.265272
C150  C     C_R   0.728262 0.238668 0.203332 0.289497
C151  C     C_R   0.618626 0.118755 0.752358 -0.043350
C152  C     C_R   0.278157 0.754320 0.787211 0.266825
C153  C     C_R   0.247320 0.719831 0.786472 0.270689
C154  C     C_R   0.761019 0.270930 0.202942 0.291597
C155  C     C_R   0.293925 0.261806 0.736204 0.269463
C156  C     C_R   0.705810 0.737866 0.252074 0.291764
C157  C     C_R   0.733373 0.299655 0.731032 0.251225
C158  C     C_R   0.255748 0.711826 0.216071 0.274636
C159  C     C_R   0.706230 0.738338 0.736529 0.269967
C160  C     C_R   0.294417 0.262349 0.252299 0.290984
C161  C     C_R   0.761584 0.794497 0.752787 0.288925
C162  C     C_R   0.882318 0.619030 0.248843 -0.026833
C163  C     C_R   0.238838 0.205654 0.239362 0.265550
C164  C     C_R   0.788868 0.243962 0.717152 0.295276
C165  C     C_R   0.200558 0.766457 0.234649 0.273226
C166  C     C_R   0.238658 0.205743 0.752627 0.288864
C167  C     C_R   0.761314 0.794495 0.238979 0.265271
C168  C     C_R   0.228262 0.738668 0.703332 0.289497
C169  C     C_R   0.778157 0.254320 0.287211 0.266825
C170  C     C_R   0.747320 0.219831 0.286472 0.270689
C171  C     C_R   0.261019 0.770930 0.702942 0.291597
C172  C     C_R   0.793925 0.761806 0.236204 0.269463
C173  C     C_R   0.118523 0.382061 0.749051 -0.031459
C174  C     C_R   0.205810 0.237866 0.752074 0.291764
C175  C     C_R   0.233373 0.799655 0.231032 0.251225
C176  C     C_R   0.755748 0.211826 0.716071 0.274636
C177  C     C_R   0.206230 0.238338 0.236529 0.269967
C178  C     C_R   0.794417 0.762349 0.752299 0.290984
C179  C     C_R   0.499986 0.999942 0.120805 0.541859
C180  C     C_R   0.499996 0.000055 0.879196 0.529390
C181  C     C_R   0.999968 0.500000 0.120846 0.526808
C182  C     C_R   0.000030 0.499991 0.879154 0.534367
C183  C     C_R   0.999986 0.499942 0.620805 0.541859
C184  C     C_R   0.619161 0.117240 0.248661 -0.032986
C185  C     C_R   0.999996 0.500055 0.379196 0.529390
C186  C     C_R   0.499968 1.000000 0.620846 0.526808
C187  C     C_R   0.500030 0.999991 0.379154 0.534367
C188  C     C_R   0.415502 0.915924 0.249303 0.579478
C189  C     C_R   0.584156 0.084566 0.750083 0.573798
C190  C     C_R   0.915846 0.584331 0.249924 0.588518
C191  C     C_R   0.084191 0.415801 0.749899 0.593077
C192  C     C_R   0.584230 0.084117 0.249930 0.584990
C193  C     C_R   0.415831 0.915729 0.749936 0.579736
C194  C     C_R   0.084140 0.415720 0.249912 0.593230
C195  C     C_R   0.382434 0.880879 0.748900 -0.037324
C196  C     C_R   0.915842 0.584170 0.749933 0.590989
C197  C     C_R   0.415846 0.084331 0.749924 0.588518
C198  C     C_R   0.584191 0.915801 0.249899 0.593077
C199  C     C_R   0.915503 0.415924 0.749303 0.579478
C200  C     C_R   0.084156 0.584566 0.250083 0.573798
C201  C     C_R   0.584140 0.915720 0.749912 0.593230
C202  C     C_R   0.415842 0.084170 0.249933 0.590989
C203  C     C_R   0.084230 0.584117 0.749930 0.584990
C204  C     C_R   0.915831 0.415729 0.249936 0.579736
C205  C     C_1   0.500071 0.999984 0.430977 0.082310
C206  C     C_R   0.119161 0.617240 0.748661 -0.032986
C207  C     C_1   0.499923 0.999991 0.569022 0.076245
C208  C     C_1   0.999983 0.500129 0.431001 0.081194
C209  C     C_1   0.999971 0.499860 0.569003 0.088519
C210  C     C_1   0.000070 0.499984 0.930977 0.082310
C211  C     C_1   0.999923 0.499991 0.069022 0.076245
C212  C     C_1   0.499983 0.000129 0.931001 0.081194
C213  C     C_1   0.499971 0.999860 0.069003 0.088519
C214  C     C_1   0.500032 0.999982 0.474506 0.032893
C215  C     C_1   0.499958 0.999985 0.525494 0.030291
C216  C     C_1   0.999972 0.500059 0.474518 0.036113
Cl1   Cl    Cl    0.118286 0.385773 0.348782 -0.395908
Cl2   Cl    Cl    0.951237 0.321762 0.242717 -0.417102
Cl3   Cl    Cl    0.390020 0.116573 0.649117 -0.416347
Cl4   Cl    Cl    0.622468 0.895900 0.150442 -0.404774
Cl5   Cl    Cl    0.888938 0.393723 0.645111 -0.433124
Cl6   Cl    Cl    0.053095 0.679903 0.273402 -0.422006
Cl7   Cl    Cl    0.609604 0.882737 0.649175 -0.410600
Cl8   Cl    Cl    0.377158 0.103648 0.150554 -0.416022
Cl9   Cl    Cl    0.618286 0.885773 0.848782 -0.395908
Cl10  Cl    Cl    0.393188 0.124492 0.347987 -0.406617
Cl11  Cl    Cl    0.875142 0.382168 0.844054 -0.412163
Cl12  Cl    Cl    0.893188 0.624493 0.847987 -0.406617
Cl13  Cl    Cl    0.179675 0.551408 0.249204 -0.425530
Cl14  Cl    Cl    0.382256 0.115218 0.848770 -0.393332
Cl15  Cl    Cl    0.607456 0.876127 0.347916 -0.417617
Cl16  Cl    Cl    0.176165 0.547998 0.733042 -0.424360
Cl17  Cl    Cl    0.820542 0.447145 0.254712 -0.418890
Cl18  Cl    Cl    0.554395 0.179155 0.263913 -0.418841
Cl19  Cl    Cl    0.451237 0.821762 0.742717 -0.417102
Cl20  Cl    Cl    0.890020 0.616573 0.149117 -0.416347
Cl21  Cl    Cl    0.122468 0.395900 0.650442 -0.404775
Cl22  Cl    Cl    0.388937 0.893723 0.145111 -0.433124
Cl23  Cl    Cl    0.375142 0.882168 0.344054 -0.412163
Cl24  Cl    Cl    0.553095 0.179903 0.773402 -0.422006
Cl25  Cl    Cl    0.109604 0.382737 0.149175 -0.410600
Cl26  Cl    Cl    0.877158 0.603648 0.650554 -0.416022
Cl27  Cl    Cl    0.189114 0.310735 0.345509 -0.353216
Cl28  Cl    Cl    0.819142 0.696483 0.845842 -0.382056
Cl29  Cl    Cl    0.298984 0.813184 0.331315 -0.389707
Cl30  Cl    Cl    0.747682 0.124688 0.776879 -0.340972
Cl31  Cl    Cl    0.811543 0.690347 0.345357 -0.354204
Cl32  Cl    Cl    0.181603 0.304265 0.845599 -0.385342
Cl33  Cl    Cl    0.751037 0.118864 0.230656 -0.509994
Cl34  Cl    Cl    0.679675 0.051408 0.749204 -0.425530
Cl35  Cl    Cl    0.249665 0.872244 0.749900 -0.398155
Cl36  Cl    Cl    0.129866 0.749813 0.760784 -0.373291
Cl37  Cl    Cl    0.879802 0.247539 0.241804 -0.452402
Cl38  Cl    Cl    0.314485 0.186352 0.646757 -0.488602
Cl39  Cl    Cl    0.693447 0.821034 0.148164 -0.426918
Cl40  Cl    Cl    0.817246 0.321262 0.633819 -0.562332
Cl41  Cl    Cl    0.134137 0.732749 0.316537 -0.445871
Cl42  Cl    Cl    0.685291 0.813090 0.646901 -0.489584
Cl43  Cl    Cl    0.306271 0.178595 0.148438 -0.430344
Cl44  Cl    Cl    0.689114 0.810735 0.845509 -0.353216
Cl45  Cl    Cl    0.882255 0.615218 0.348770 -0.393332
Cl46  Cl    Cl    0.319142 0.196483 0.345842 -0.382056
Cl47  Cl    Cl    0.798984 0.313184 0.831315 -0.389707
Cl48  Cl    Cl    0.247682 0.624688 0.276879 -0.340972
Cl49  Cl    Cl    0.311543 0.190348 0.845357 -0.354204
Cl50  Cl    Cl    0.681603 0.804265 0.345599 -0.385342
Cl51  Cl    Cl    0.251037 0.618864 0.730656 -0.509994
Cl52  Cl    Cl    0.749665 0.372244 0.249900 -0.398155
Cl53  Cl    Cl    0.629866 0.249813 0.260784 -0.373291
Cl54  Cl    Cl    0.379802 0.747539 0.741804 -0.452402
Cl55  Cl    Cl    0.814485 0.686352 0.146757 -0.488602
Cl56  Cl    Cl    0.107456 0.376127 0.847916 -0.417617
Cl57  Cl    Cl    0.193446 0.321034 0.648164 -0.426918
Cl58  Cl    Cl    0.317246 0.821262 0.133819 -0.562331
Cl59  Cl    Cl    0.634137 0.232749 0.816537 -0.445871
Cl60  Cl    Cl    0.185291 0.313090 0.146901 -0.489584
Cl61  Cl    Cl    0.806271 0.678595 0.648438 -0.430344
Cl62  Cl    Cl    0.676165 0.047998 0.233042 -0.424360
Cl63  Cl    Cl    0.320542 0.947145 0.754712 -0.418890
Cl64  Cl    Cl    0.054395 0.679155 0.763913 -0.418841
H1    H     H_    0.253642 0.362996 0.198537 0.152447
H2    H     H_    0.641105 0.341607 0.724814 0.141691
H3    H     H_    0.658079 0.320894 0.784188 0.205151
H4    H     H_    0.605689 0.308031 0.759192 0.190057
H5    H     H_    0.746360 0.636846 0.198518 0.154519
H6    H     H_    0.689312 0.653302 0.203999 0.131753
H7    H     H_    0.709026 0.605182 0.233796 0.191285
H8    H     H_    0.316800 0.337640 0.791000 0.175639
H9    H     H_    0.260612 0.351977 0.806655 0.168540
H10   H     H_    0.294560 0.389944 0.774664 0.177112
H11   H     H_    0.719094 0.170485 0.148167 0.153329
H12   H     H_    0.310701 0.346521 0.203927 0.131793
H13   H     H_    0.750123 0.213541 0.118179 0.135524
H14   H     H_    0.695193 0.201388 0.100139 0.185297
H15   H     H_    0.246246 0.773225 0.870888 0.174205
H16   H     H_    0.268333 0.821899 0.841374 0.168932
H17   H     H_    0.296016 0.797930 0.891841 0.170301
H18   H     H_    0.294662 0.689777 0.869472 0.175508
H19   H     H_    0.298667 0.662836 0.810856 0.185486
H20   H     H_    0.265747 0.639850 0.857781 0.167983
H21   H     H_    0.816747 0.252635 0.144245 0.126882
H22   H     H_    0.830749 0.310586 0.148743 0.150183
H23   H     H_    0.291188 0.394891 0.233656 0.189870
H24   H     H_    0.799451 0.290576 0.098833 0.181641
H25   H     H_    0.343703 0.329415 0.689631 0.180910
H26   H     H_    0.320136 0.283245 0.656668 0.188958
H27   H     H_    0.377155 0.284240 0.671434 0.176652
H28   H     H_    0.655349 0.724998 0.186105 0.127375
H29   H     H_    0.618588 0.759829 0.220799 0.148012
H30   H     H_    0.612399 0.701540 0.221557 0.173871
H31   H     H_    0.707695 0.338283 0.659422 0.148597
H32   H     H_    0.752683 0.374765 0.676274 0.188938
H33   H     H_    0.697620 0.390094 0.687976 0.155379
H34   H     H_    0.683536 0.662946 0.791537 0.178914
H35   H     H_    0.248344 0.697387 0.126744 0.106431
H36   H     H_    0.205872 0.665547 0.156540 0.127520
H37   H     H_    0.252693 0.638854 0.131208 0.181458
H38   H     H_    0.656229 0.670389 0.690164 0.178387
H39   H     H_    0.679712 0.716280 0.657070 0.187351
H40   H     H_    0.622747 0.715450 0.671869 0.182506
H41   H     H_    0.344655 0.274691 0.186288 0.125543
H42   H     H_    0.381541 0.240131 0.221053 0.157716
H43   H     H_    0.387725 0.298426 0.221672 0.181689
H44   H     H_    0.753641 0.862996 0.698537 0.152447
H45   H     H_    0.739780 0.648701 0.807176 0.168678
H46   H     H_    0.810701 0.846521 0.703927 0.131793
H47   H     H_    0.791188 0.894890 0.733656 0.189870
H48   H     H_    0.183536 0.162946 0.291537 0.178914
H49   H     H_    0.239780 0.148701 0.307175 0.168679
H50   H     H_    0.205681 0.110504 0.275311 0.167324
H51   H     H_    0.820643 0.228182 0.638079 0.141568
H52   H     H_    0.843013 0.179864 0.667768 0.188147
H53   H     H_    0.876416 0.227066 0.657523 0.173601
H54   H     H_    0.141105 0.841607 0.224814 0.141691
H55   H     H_    0.158079 0.820894 0.284189 0.205151
H56   H     H_    0.705681 0.610504 0.775311 0.167324
H57   H     H_    0.105689 0.808031 0.259192 0.190057
H58   H     H_    0.246357 0.136849 0.698516 0.154517
H59   H     H_    0.189309 0.153300 0.704003 0.131758
H60   H     H_    0.209029 0.105181 0.733797 0.191285
H61   H     H_    0.816800 0.837640 0.291000 0.175639
H62   H     H_    0.760611 0.851977 0.306655 0.168540
H63   H     H_    0.794560 0.889944 0.274664 0.177112
H64   H     H_    0.219094 0.670485 0.648167 0.153329
H65   H     H_    0.250123 0.713541 0.618179 0.135524
H66   H     H_    0.195193 0.701388 0.600139 0.185297
H67   H     H_    0.320643 0.728182 0.138079 0.141568
H68   H     H_    0.746246 0.273225 0.370888 0.174205
H69   H     H_    0.768333 0.321899 0.341374 0.168932
H70   H     H_    0.796016 0.297930 0.391841 0.170301
H71   H     H_    0.794662 0.189777 0.369472 0.175508
H72   H     H_    0.798667 0.162836 0.310856 0.185486
H73   H     H_    0.765747 0.139850 0.357781 0.167983
H74   H     H_    0.316747 0.752635 0.644245 0.126882
H75   H     H_    0.330748 0.810586 0.648743 0.150182
H76   H     H_    0.299450 0.790576 0.598833 0.181641
H77   H     H_    0.843703 0.829415 0.189631 0.180910
H78   H     H_    0.343013 0.679864 0.167768 0.188147
H79   H     H_    0.820136 0.783245 0.156669 0.188958
H80   H     H_    0.877155 0.784240 0.171434 0.176652
H81   H     H_    0.155349 0.224997 0.686106 0.127375
H82   H     H_    0.118589 0.259829 0.720799 0.148012
H83   H     H_    0.112399 0.201540 0.721559 0.173870
H84   H     H_    0.207695 0.838283 0.159422 0.148597
H85   H     H_    0.252683 0.874765 0.176274 0.188938
H86   H     H_    0.197620 0.890094 0.187976 0.155379
H87   H     H_    0.748344 0.197387 0.626744 0.106431
H88   H     H_    0.705872 0.165547 0.656540 0.127520
H89   H     H_    0.376416 0.727066 0.157523 0.173601
H90   H     H_    0.752693 0.138854 0.631208 0.181458
H91   H     H_    0.156229 0.170389 0.190164 0.178387
H92   H     H_    0.179712 0.216280 0.157070 0.187351
H93   H     H_    0.122747 0.215450 0.171869 0.182506
H94   H     H_    0.844655 0.774692 0.686288 0.125542
H95   H     H_    0.881541 0.740131 0.721053 0.157716
H96   H     H_    0.887725 0.798426 0.721672 0.181689
O1    O     O_3   0.500000 0.000000 0.250000 -0.505465
O2    O     O_R   0.500000 0.036340 0.856210 -0.509081
O3    O     O_R   0.963660 0.500000 0.143790 -0.511510
O4    O     O_R   0.036340 0.500000 0.856210 -0.519669
O5    O     O_R   0.000000 0.536340 0.643790 -0.516638
O6    O     O_R   1.000000 0.463660 0.356210 -0.513729
O7    O     O_R   0.536340 0.000000 0.643790 -0.516921
O8    O     O_R   0.463660 0.000000 0.356210 -0.500167
O9    O     O_R   0.000000 0.463660 0.643790 -0.494264
O10   O     O_R   1.000000 0.536340 0.356210 -0.509081
O11   O     O_R   0.463660 0.000000 0.643790 -0.511510
O12   O     O_3   0.500000 0.000000 0.750000 -0.508037
O13   O     O_R   0.536340 0.000000 0.356210 -0.519669
O14   O     O_R   0.448830 0.912520 0.222210 -0.494439
O15   O     O_R   0.551170 0.087480 0.777790 -0.483294
O16   O     O_R   0.912520 0.551170 0.222210 -0.482660
O17   O     O_R   0.087480 0.448830 0.777790 -0.479428
O18   O     O_R   0.551170 0.087480 0.222210 -0.496708
O19   O     O_R   0.448830 0.912520 0.777790 -0.492138
O20   O     O_R   0.087480 0.448830 0.222210 -0.482337
O21   O     O_R   0.912520 0.551170 0.777790 -0.498597
O22   O     O_R   0.448830 0.087480 0.777790 -0.480609
O23   O     O_3   1.000000 0.500000 0.250000 -0.508037
O24   O     O_R   0.551170 0.912520 0.222210 -0.502681
O25   O     O_R   0.912520 0.448830 0.777790 -0.492847
O26   O     O_R   0.087480 0.551170 0.222210 -0.498445
O27   O     O_R   0.551170 0.912520 0.777790 -0.478949
O28   O     O_R   0.448830 0.087480 0.222210 -0.483884
O29   O     O_R   0.087480 0.551170 0.777790 -0.496703
O30   O     O_R   0.912520 0.448830 0.222210 -0.494271
O31   O     O_R   0.948830 0.412520 0.722210 -0.494439
O32   O     O_R   0.051170 0.587480 0.277790 -0.483294
O33   O     O_R   0.412520 0.051170 0.722210 -0.482660
O34   O     O_3   1.000000 0.500000 0.750000 -0.505465
O35   O     O_R   0.587480 0.948830 0.277790 -0.479428
O36   O     O_R   0.051170 0.587480 0.722210 -0.496708
O37   O     O_R   0.948830 0.412520 0.277790 -0.492138
O38   O     O_R   0.587480 0.948830 0.722210 -0.482337
O39   O     O_R   0.412520 0.051170 0.277790 -0.498597
O40   O     O_R   0.948830 0.587480 0.277790 -0.480610
O41   O     O_R   0.051170 0.412520 0.722210 -0.502681
O42   O     O_R   0.412520 0.948830 0.277790 -0.492847
O43   O     O_R   0.587480 0.051170 0.722210 -0.498445
O44   O     O_R   0.051170 0.412520 0.277790 -0.478949
O45   O     O_R   0.500000 0.036340 0.143790 -0.516638
O46   O     O_R   0.948830 0.587480 0.722210 -0.483884
O47   O     O_R   0.587480 0.051170 0.277790 -0.496703
O48   O     O_R   0.412520 0.948830 0.722210 -0.494271
O49   O     O_3   0.272086 0.337236 0.265360 -0.484271
O50   O     O_3   0.728064 0.661758 0.734289 -0.546612
O51   O     O_3   0.332832 0.732891 0.213408 -0.508003
O52   O     O_3   0.656249 0.275138 0.726515 -0.553442
O53   O     O_3   0.728229 0.663098 0.265322 -0.485920
O54   O     O_3   0.272043 0.338358 0.733791 -0.541184
O55   O     O_3   0.700215 0.234789 0.164292 -0.487577
O56   O     O_R   0.500000 0.963660 0.856210 -0.513729
O57   O     O_3   0.302011 0.763327 0.828553 -0.545510
O58   O     O_3   0.238772 0.694876 0.827219 -0.552733
O59   O     O_3   0.765438 0.296950 0.162309 -0.484254
O60   O     O_3   0.337724 0.272380 0.729866 -0.549488
O61   O     O_3   0.663249 0.725418 0.262481 -0.483425
O62   O     O_3   0.722710 0.343760 0.733987 -0.567908
O63   O     O_3   0.264741 0.671781 0.194652 -0.511330
O64   O     O_3   0.662403 0.727733 0.730250 -0.547175
O65   O     O_3   0.337021 0.274855 0.262666 -0.482396
O66   O     O_3   0.772086 0.837236 0.765359 -0.484271
O67   O     O_R   0.036340 0.500000 0.143790 -0.516921
O68   O     O_3   0.228064 0.161758 0.234289 -0.546612
O69   O     O_3   0.832832 0.232891 0.713408 -0.508003
O70   O     O_3   0.156249 0.775138 0.226516 -0.553442
O71   O     O_3   0.228229 0.163098 0.765323 -0.485920
O72   O     O_3   0.772043 0.838358 0.233792 -0.541184
O73   O     O_3   0.200214 0.734789 0.664292 -0.487577
O74   O     O_3   0.802011 0.263327 0.328553 -0.545510
O75   O     O_3   0.738772 0.194876 0.327219 -0.552733
O76   O     O_3   0.265438 0.796950 0.662309 -0.484254
O77   O     O_3   0.837724 0.772380 0.229866 -0.549488
O78   O     O_R   0.963660 0.500000 0.856210 -0.500167
O79   O     O_3   0.163249 0.225418 0.762481 -0.483426
O80   O     O_3   0.222710 0.843760 0.233987 -0.567908
O81   O     O_3   0.764741 0.171781 0.694652 -0.511329
O82   O     O_3   0.162403 0.227733 0.230250 -0.547175
O83   O     O_3   0.837021 0.774855 0.762666 -0.482396
O84   O     O_R   0.500000 0.963660 0.143790 -0.494264
Zn1   Zn    Zn3+2 0.448040 0.000000 0.289870 1.061851
Zn2   Zn    Zn3+2 0.051960 0.500000 0.210130 1.053549
Zn3   Zn    Zn3+2 0.500000 0.051960 0.789870 1.069854
Zn4   Zn    Zn3+2 0.500000 0.948040 0.210130 1.064713
Zn5   Zn    Zn3+2 0.051960 0.500000 0.789870 1.060106
Zn6   Zn    Zn3+2 0.948040 0.500000 0.210130 1.059958
Zn7   Zn    Zn3+2 0.500000 0.948040 0.789870 1.066039
Zn8   Zn    Zn3+2 0.500000 0.051960 0.210130 1.063096
Zn9   Zn    Zn3+2 0.551960 0.000000 0.710130 1.053549
Zn10  Zn    Zn3+2 1.000000 0.551960 0.289870 1.069854
Zn11  Zn    Zn3+2 1.000000 0.448040 0.710130 1.064713
Zn12  Zn    Zn3+2 0.551960 0.000000 0.289870 1.060106
Zn13  Zn    Zn3+2 0.448040 0.000000 0.710130 1.059959
Zn14  Zn    Zn3+2 1.000000 0.448040 0.289870 1.066039
Zn15  Zn    Zn3+2 1.000000 0.551960 0.710130 1.063096
Zn16  Zn    Zn3+2 0.948040 0.500000 0.789870 1.061851

loop_
_geom_bond_atom_site_label_1
_geom_bond_atom_site_label_2
_ccdc_geom_bond_type
C128  O80   S    
C180  O56   A    
C104  O57   S    
O26   Zn2   S    
C137  C149  A    
C103  O55   S    
C118  H55   S    
C98   H67   S    
C36   Cl19  S    
C65   C89   A    
C100  H7    S    
C21   Cl5   S    
C17   C206  A    
C106  H21   S    
O29   Zn5   S    
C88   C133  S    
O34   Zn5   S    
C96   O49   S    
C143  C144  A    
C185  O10   A    
C132  C155  A    
C122  H70   S    
C39   C74   A    
C27   C68   A    
C59   C94   A    
C197  O33   A    
C31   Cl15  S    
C173  C191  S    
C25   C60   A    
C144  C160  A    
C148  O53   S    
C36   C71   A    
C33   C69   A    
C29   C64   A    
C24   C198  S    
C129  H88   S    
C62   C95   A    
C118  O70   S    
C10   C140  A    
O47   Zn12  S    
C118  H57   S    
O27   Zn7   S    
C17   C52   A    
C117  H53   S    
C105  H19   S    
C166  C174  A    
C68   C202  S    
O1    Zn12  S    
C13   C30   A    
C93   C101  S    
C79   C160  A    
C61   C94   A    
C4    C5    S    
C127  H82   S    
C90   C161  A    
C78   C143  S    
C42   Cl26  S    
C63   Cl47  S    
C43   C78   A    
C22   C58   A    
C117  H52   S    
C191  O17   A    
C123  H72   S    
C198  O24   A    
C182  O78   A    
C15   C184  A    
C109  H31   S    
C69   C88   A    
C108  O61   S    
O23   Zn10  S    
C1    C41   A    
C119  O71   S    
C101  C158  A    
C80   C142  S    
C120  O72   S    
O8    Zn1   S    
C74   C81   A    
C32   C206  A    
C97   H45   S    
C162  C190  S    
C103  H14   S    
O44   Zn14  S    
C152  O57   S    
C39   C140  A    
C75   Cl59  S    
O13   Zn12  S    
C58   C93   A    
C15   Cl62  S    
C45   C81   A    
C96   H12   S    
O34   Zn11  S    
C128  H84   S    
C126  H80   S    
C111  H39   S    
C6    C7    S    
C21   C35   A    
C159  O64   S    
C168  O73   S    
C149  C155  A    
C103  H13   S    
C16   C195  A    
C41   C76   A    
O43   Zn9   S    
C123  O75   S    
C119  H60   S    
C131  H95   S    
C16   Cl63  S    
C201  O27   A    
O67   Zn2   S    
C202  O28   A    
C55   Cl39  S    
C9    Cl12  S    
C116  H48   S    
C26   C57   A    
C17   Cl64  S    
C28   C63   A    
C108  H28   S    
C102  H9    S    
O14   Zn4   S    
C98   H89   S    
C61   Cl44  S    
C113  C157  A    
C121  H65   S    
C203  O36   A    
C83   C138  S    
C37   C162  A    
C32   Cl16  S    
C1    C8    A    
C110  H37   S    
C16   C51   A    
C35   C199  S    
C172  O77   S    
C104  H15   S    
C23   C59   A    
C13   C197  S    
C126  O77   S    
C76   C78   A    
C14   C173  A    
C97   H56   S    
C145  C159  A    
C134  C153  A    
O4    Zn5   S    
C26   Cl9   S    
C164  O69   S    
C100  H6    S    
C182  C210  S    
O12   Zn13  S    
C102  H8    S    
C90   C159  A    
C180  C212  S    
C106  H24   S    
C8    Cl1   S    
C128  H85   S    
C125  H75   S    
C187  O13   A    
C168  C171  A    
O84   Zn4   S    
C28   C35   A    
C138  C148  A    
C171  O76   S    
C156  O61   S    
C59   Cl42  S    
O10   Zn10  S    
C169  O74   S    
O36   Zn15  S    
C50   C85   A    
C9    C112  A    
C102  O54   S    
C197  O22   A    
C196  O21   A    
O31   Zn11  S    
C54   Cl38  S    
C87   C134  S    
C139  C176  A    
C176  O81   S    
C111  O64   S    
C107  H26   S    
C133  C154  A    
C49   Cl32  S    
C100  O53   S    
C191  O41   A    
C119  H58   S    
O19   Zn7   S    
C189  O43   A    
O32   Zn10  S    
C183  O5    A    
C41   Cl25  S    
C109  O62   S    
C116  H50   S    
C60   C95   A    
C27   C62   A    
C107  O60   S    
C71   C86   A    
C116  O68   S    
C127  H83   S    
C108  H30   S    
C105  O58   S    
C187  C205  S    
C10   C45   A    
C181  O67   A    
C167  O72   S    
C52   Cl36  S    
C32   C67   A    
O16   Zn6   S    
O5    Zn15  S    
C19   C54   A    
C11   C151  A    
C96   H23   S    
C136  C170  A    
C84   C137  S    
C56   Cl40  S    
O42   Zn1   S    
C97   H34   S    
C134  C168  A    
C110  H35   S    
C114  H43   S    
C18   Cl2   S    
C33   Cl17  S    
C44   Cl28  S    
C23   C57   A    
O78   Zn16  S    
C23   Cl7   S    
C116  H49   S    
C75   C82   A    
C146  C158  A    
C130  H91   S    
C96   H1    S    
C130  O82   S    
C48   C83   A    
O11   Zn13  S    
C106  H22   S    
C29   Cl13  S    
C40   Cl24  S    
C98   H78   S    
O23   Zn14  S    
C142  C178  A    
C144  O49   S    
C143  C177  A    
C30   C65   A    
C85   C136  S    
C12   C162  A    
O6    Zn14  S    
C86   C135  S    
C152  C153  A    
C42   C77   A    
C105  H18   S    
C57   C201  S    
C182  O4    A    
O1    Zn4   S    
O34   Zn15  S    
C70   C85   A    
C180  O2    A    
C194  O44   A    
C34   Cl18  S    
C3    C209  T    
C11   C47   A    
C185  C208  S    
C8    C43   A    
C12   C48   A    
C65   Cl49  S    
C165  O70   S    
C194  O20   A    
O38   Zn9   S    
C22   Cl6   S    
C151  C189  S    
C122  H68   S    
C37   Cl20  S    
C98   O51   S    
O30   Zn6   S    
C26   C61   A    
C110  O63   S    
O28   Zn8   S    
C115  H46   S    
C14   Cl56  S    
C127  H81   S    
O23   Zn2   S    
C157  O62   S    
C106  O59   S    
C155  O60   S    
C51   C86   A    
C25   Cl8   S    
C133  C169  A    
C153  O58   S    
C112  C196  S    
C55   C91   A    
C18   C53   A    
C199  O25   A    
C120  H61   S    
C117  H51   S    
C123  H71   S    
C201  O38   A    
C147  C157  A    
C163  C177  A    
C72   Cl55  S    
C184  C192  S    
C90   C94   S    
C114  H41   S    
C135  C171  A    
C92   C113  S    
C34   C70   A    
O33   Zn13  S    
C186  O11   A    
C99   H4    S    
C142  C145  A    
C25   C68   A    
C53   Cl37  S    
C125  O76   S    
C28   Cl11  S    
C118  H54   S    
O39   Zn1   S    
C5    C211  T    
C203  C206  S    
C190  O40   A    
C175  O80   S    
C11   Cl34  S    
C13   C19   A    
C138  C172  A    
C140  C188  S    
C188  O14   A    
C44   C80   A    
C179  O84   A    
C189  O15   A    
C45   Cl29  S    
C177  O82   S    
C70   Cl53  S    
C107  H27   S    
C3    C216  S    
C129  H87   S    
C122  H69   S    
C79   C95   S    
C82   C139  S    
C123  H73   S    
C124  C167  A    
C119  H59   S    
O40   Zn10  S    
C179  C213  S    
C207  C215  T    
O45   Zn8   S    
C101  C165  A    
C174  O79   S    
C141  C146  A    
C2    C33   A    
C22   C46   A    
C170  O75   S    
C165  C175  A    
C121  H64   S    
C49   C84   A    
O15   Zn3   S    
C166  O71   S    
C181  O3    A    
C77   C80   A    
C109  H33   S    
O2    Zn3   S    
C196  O46   A    
C21   C56   A    
C115  H44   S    
C64   Cl48  S    
C167  C172  A    
C104  H16   S    
C158  O63   S    
C40   C75   A    
C29   C46   A    
C43   Cl27  S    
C1    C194  S    
C24   C31   A    
C137  C174  A    
C192  O18   A    
C154  O59   S    
C120  H63   S    
O25   Zn16  S    
C202  O39   A    
C122  O74   S    
C71   Cl54  S    
C109  H32   S    
O18   Zn8   S    
O37   Zn14  S    
C74   Cl58  S    
C164  C176  A    
C12   Cl45  S    
O35   Zn12  S    
C72   C83   A    
C129  H90   S    
C128  H86   S    
C125  H74   S    
C99   H2    S    
C37   C72   A    
C115  O66   S    
C148  C156  A    
C161  C178  A    
C146  O51   S    
O46   Zn15  S    
C47   Cl30  S    
C199  O31   A    
C135  C152  A    
C163  O68   S    
C200  O32   A    
C31   C66   A    
C188  O42   A    
C161  O66   S    
C2    C18   A    
C169  C170  A    
O1    Zn1   S    
C62   Cl46  S    
C69   Cl52  S    
C126  H79   S    
C111  H40   S    
C107  H25   S    
C139  C147  A    
C89   C132  S    
C117  O69   S    
C186  C207  S    
C160  O65   S    
C60   Cl43  S    
C121  O73   S    
C132  C166  A    
C64   C93   A    
C48   Cl31  S    
O21   Zn16  S    
C204  O37   A    
C47   C82   A    
C14   C49   A    
C6    C212  T    
C131  H96   S    
C198  O35   A    
O3    Zn6   S    
C4    C210  T    
C147  O52   S    
C76   Cl60  S    
C15   C50   A    
C77   Cl61  S    
C145  O50   S    
C42   C112  A    
C103  H11   S    
C20   C24   A    
C73   Cl57  S    
C104  H17   S    
C193  C195  S    
C127  O79   S    
C63   C92   A    
C34   C184  A    
O48   Zn13  S    
C53   C88   A    
C51   Cl35  S    
C121  H66   S    
C73   C84   A    
C66   Cl50  S    
C204  O30   A    
C102  H10   S    
C81   C141  S    
C208  C216  T    
C20   Cl4   S    
C110  H36   S    
O12   Zn7   S    
C115  H47   S    
C20   C55   A    
O23   Zn6   S    
C179  O45   A    
C58   Cl41  S    
C2    C204  S    
C54   C89   A    
C214  C215  S    
O7    Zn9   S    
C38   C173  A    
C38   Cl21  S    
C130  H92   S    
C100  H5    S    
C40   C151  A    
O17   Zn5   S    
O9    Zn11  S    
C125  H76   S    
C67   Cl51  S    
C46   C200  S    
C56   C92   A    
C186  O7    A    
O22   Zn3   S    
C7    C213  T    
C50   Cl33  S    
C203  O29   A    
C200  O26   A    
C130  H93   S    
C91   C124  S    
C124  C156  A    
C19   Cl3   S    
O34   Zn16  S    
C193  O19   A    
C105  H20   S    
C126  H77   S    
C114  O65   S    
C111  H38   S    
C149  O54   S    
C185  O6    A    
C9    C44   A    
C187  O8    A    
O1    Zn8   S    
C52   C87   A    
C79   C163  A    
O20   Zn2   S    
C205  C214  T    
C136  C150  A    
C27   Cl10  S    
C66   C91   A    
C99   O52   S    
C131  H94   S    
C183  C209  S    
C131  O83   S    
C67   C87   A    
O56   Zn7   S    
C181  C211  S    
C129  O81   S    
C30   Cl14  S    
C150  O55   S    
C36   C195  A    
C178  O83   S    
C113  C164  A    
C193  O48   A    
C108  H29   S    
C192  O47   A    
O41   Zn11  S    
C120  H62   S    
C10   Cl23  S    
O12   Zn3   S    
C150  C154  A    
C190  O16   A    
C141  C175  A    
O12   Zn9   S    
C114  H42   S    
C183  O9    A    
C39   Cl22  S    
C97   O50   S    
O24   Zn4   S    
C38   C73   A    
C99   H3    S    
