data_mof_unit_38141.cif
_audit_creation_date              2012-12-11T14:52:35-0500
_audit_creation_method            fapswitch 2.2
_symmetry_space_group_name_H-M    P1
_symmetry_Int_Tables_number       1
_space_group_crystal_system       triclinic
_cell_length_a                    19.229293
_cell_length_b                    11.170554
_cell_length_c                    18.876047
_cell_angle_alpha                 90.214562
_cell_angle_beta                  90.994676
_cell_angle_gamma                 90.800608
_cell_volume                      4053.57093877

loop_
_atom_site_label
_atom_site_type_symbol
_atom_type_description
_atom_site_fract_x
_atom_site_fract_y
_atom_site_fract_z
_atom_type_partial_charge
C1    C     C_R   0.274299 0.039877 0.855400 0.569774
C2    C     C_R   0.697534 0.532401 0.038172 0.339292
C3    C     C_3   0.010351 0.330661 0.070725 0.019706
C4    C     C_3   0.160734 0.769031 0.409327 -0.240321
C5    C     C_3   0.199611 0.831418 0.348820 -0.404846
C6    C     C_3   0.850091 0.759359 0.582209 -0.226593
C7    C     C_3   0.812160 0.833532 0.637913 -0.351021
C8    C     C_3   0.660741 0.269034 0.409318 -0.240057
C9    C     C_3   0.699610 0.331407 0.348798 -0.405672
C10   C     C_3   0.350081 0.259380 0.582222 -0.226312
C11   C     C_3   0.312153 0.333547 0.637932 -0.350856
C12   C     C_3   0.503568 0.581318 0.953787 -0.230990
C13   C     C_R   0.768430 0.993965 0.950299 0.201865
C14   C     C_3   0.433813 0.518227 0.943073 -0.397680
C15   C     C_3   0.389517 0.694117 0.074278 -0.257773
C16   C     C_3   0.415131 0.597673 0.125149 -0.400928
C17   C     C_3   0.005441 0.082359 0.953736 -0.233804
C18   C     C_3   0.935978 0.018111 0.943440 -0.399340
C19   C     C_3   0.890766 0.198954 0.072563 -0.263455
C20   C     C_3   0.915030 0.104199 0.125221 -0.407866
C21   C     C_3   0.539052 0.613773 0.578728 -0.232450
C22   C     C_3   0.596963 0.648057 0.632905 -0.406867
C23   C     C_3   0.470349 0.605310 0.429667 -0.230236
C24   C     C_R   0.198603 0.027817 0.039257 0.333765
C25   C     C_3   0.408819 0.628741 0.378953 -0.433227
C26   C     C_3   0.039050 0.113771 0.578730 -0.232362
C27   C     C_3   0.096960 0.148051 0.632909 -0.407772
C28   C     C_3   0.970345 0.105315 0.429666 -0.229745
C29   C     C_3   0.908816 0.128754 0.378951 -0.433594
C30   C     C_R   0.261438 0.459874 0.019284 0.145576
C31   C     C_R   0.699978 0.536235 0.963374 0.257775
C32   C     C_R   0.764815 0.970854 0.023406 0.122185
C33   C     C_R   0.201160 0.031626 0.964447 0.260989
C34   C     C_R   0.232027 0.543571 0.066439 -0.013492
C35   C     C_R   0.760558 0.576522 0.929582 -0.004134
C36   C     C_R   0.739369 0.059449 0.070159 -0.036563
C37   C     C_R   0.724096 0.032163 0.143707 0.591323
C38   C     C_R   0.261633 0.072938 0.930647 -0.002474
C39   C     C_R   0.207987 0.652610 0.040249 0.191061
C40   C     C_R   0.815982 0.626064 0.971462 0.320121
C41   C     C_R   0.715443 0.167177 0.043069 0.143951
C42   C     C_R   0.317566 0.120618 0.972763 0.329572
C43   C     C_R   0.211970 0.677033 0.968911 0.189893
C44   C     C_R   0.814902 0.614209 0.045179 0.255323
C45   C     C_R   0.717352 0.187694 0.970896 0.167069
C46   C     C_R   0.315829 0.109766 0.046601 0.263182
C47   C     C_R   0.246735 0.598956 0.923205 0.027898
C48   C     C_R   0.773910 0.540968 0.854936 0.573679
C49   C     C_R   0.752682 0.581743 0.078714 0.010916
C50   C     C_R   0.749420 0.105698 0.925360 0.018533
C51   C     C_R   0.253300 0.078632 0.079753 0.006751
C52   C     C_R   0.511065 0.723502 0.539095 -0.018994
C53   C     C_R   0.498113 0.720434 0.465273 0.024354
C54   C     C_R   0.011066 0.223501 0.539096 -0.018787
C55   C     C_R   0.998113 0.220435 0.465275 0.024400
C56   C     C_R   0.503366 0.829022 0.426574 -0.035669
C57   C     C_R   0.500415 0.832177 0.575669 -0.047614
C58   C     C_R   0.003369 0.329023 0.426576 -0.035588
C59   C     C_R   0.215293 0.511037 0.139279 0.581867
C60   C     C_R   0.000419 0.332176 0.575671 -0.047822
C61   C     C_R   0.500718 0.939581 0.463456 0.257761
C62   C     C_R   0.500130 0.941200 0.537498 0.265328
C63   C     C_R   0.000726 0.439583 0.463459 0.257566
C64   C     C_R   0.000138 0.441200 0.537501 0.265687
C65   C     C_R   0.466415 0.820330 0.856744 0.583170
C66   C     C_R   0.530596 0.821436 0.145120 0.545966
C67   C     C_R   0.967789 0.320767 0.856119 0.557965
C68   C     C_R   0.031390 0.321481 0.144705 0.545560
C69   C     C_R   0.219418 0.718233 0.522483 -0.144519
C70   C     C_3   0.498834 0.710758 0.979180 -0.016175
C71   C     C_R   0.799221 0.674051 0.470765 -0.138999
C72   C     C_R   0.719424 0.218243 0.522478 -0.144410
C73   C     C_R   0.299206 0.174094 0.470774 -0.139148
C74   C     C_R   0.209095 0.690157 0.451806 0.009852
C75   C     C_R   0.800784 0.672368 0.543614 0.003751
C76   C     C_R   0.709103 0.190168 0.451800 0.010337
C77   C     C_R   0.300772 0.172396 0.543623 0.003339
C78   C     C_R   0.243905 0.589538 0.424037 -0.004303
C79   C     C_R   0.756142 0.589305 0.577177 -0.001201
C80   C     C_R   0.743910 0.089544 0.424034 -0.003432
C81   C     C_3   0.448539 0.757816 0.035645 -0.053941
C82   C     C_R   0.256136 0.089317 0.577182 -0.001378
C83   C     C_R   0.291188 0.527004 0.465930 -0.109946
C84   C     C_R   0.702506 0.532897 0.539270 -0.118752
C85   C     C_R   0.791190 0.027007 0.465928 -0.109668
C86   C     C_R   0.202503 0.032905 0.539273 -0.118501
C87   C     C_R   0.310397 0.572190 0.531041 0.189446
C88   C     C_R   0.691370 0.558921 0.469450 0.203938
C89   C     C_R   0.810397 0.072191 0.531040 0.189446
C90   C     C_R   0.191365 0.058935 0.469454 0.203861
C91   C     C_R   0.269248 0.659568 0.562562 0.009855
C92   C     C_3   0.000419 0.212168 0.978429 -0.013432
C93   C     C_R   0.744543 0.617464 0.432702 0.024251
C94   C     C_R   0.769250 0.159572 0.562559 0.009903
C95   C     C_R   0.244534 0.117493 0.432709 0.023949
C96   C     C_R   0.260313 0.639117 0.851380 0.612558
C97   C     C_R   0.739958 0.633705 0.149466 0.585550
C98   C     C_R   0.760861 0.140752 0.852112 0.629146
C99   C     C_R   0.240073 0.133068 0.149772 0.577838
C100  C     C_R   0.272585 0.045146 0.646408 0.522722
C101  C     C_R   0.726217 0.041930 0.355164 0.542094
C102  C     C_R   0.772586 0.545142 0.646406 0.523436
C103  C     C_3   0.950395 0.260954 0.034542 -0.055614
C104  C     C_R   0.226216 0.541929 0.355165 0.543951
C105  C     C_R   0.469762 0.823998 0.646950 0.518346
C106  C     C_R   0.530831 0.822959 0.353633 0.539512
C107  C     C_R   0.969764 0.323998 0.646951 0.517706
C108  C     C_R   0.030832 0.322959 0.353634 0.538337
C109  C     C_R   0.274146 0.687117 0.637255 0.553169
C110  C     C_R   0.737546 0.646511 0.359036 0.544288
C111  C     C_R   0.774146 0.187118 0.637255 0.552857
C112  C     C_R   0.237542 0.146526 0.359040 0.545255
C113  C     C_3   0.493173 0.938938 0.024087 0.249597
C114  C     C_R   0.266867 0.486922 0.946750 0.236876
C115  C     C_3   0.543371 0.892341 0.968571 0.199395
C116  C     C_3   0.997274 0.440456 0.023555 0.249241
C117  C     C_3   0.047330 0.392406 0.968172 0.184325
C118  C     C_3   0.433775 0.866625 0.987936 0.245766
C119  C     C_3   0.558516 0.783733 0.014903 0.210169
C120  C     C_3   0.937243 0.370411 0.986978 0.213923
C121  C     C_3   0.060664 0.283123 0.014578 0.250333
C122  C     C_3   0.484637 0.821823 0.932045 0.025245
C123  C     C_3   0.508054 0.829980 0.071473 -0.024938
C124  C     C_3   0.987792 0.323562 0.931097 -0.015634
Cr1   Cr    Cr6+3 0.229630 0.835900 0.747350 1.035433
Cr2   Cr    Cr6+3 0.614200 0.677120 0.250660 1.040623
Cr3   Cr    Cr6+3 0.885800 0.177120 0.749340 1.007167
Cr4   Cr    Cr6+3 0.114200 0.177120 0.250660 1.035706
Cr5   Cr    Cr6+3 0.770370 0.835900 0.252650 1.012644
Cr6   Cr    Cr6+3 0.729630 0.335900 0.747350 1.045962
Cr7   Cr    Cr6+3 0.270370 0.335900 0.252650 1.004838
Cr8   Cr    Cr6+3 0.387410 0.989850 0.750850 1.081754
Cr9   Cr    Cr6+3 0.612590 0.989850 0.249150 1.033686
Cr10  Cr    Cr6+3 0.887410 0.489850 0.750850 1.057803
Cr11  Cr    Cr6+3 0.112590 0.489850 0.249150 1.058658
Cr12  Cr    Cr6+3 0.385800 0.677120 0.749340 1.006657
H1    H     H_    0.188342 0.785889 0.546786 0.134248
H2    H     H_    0.648800 0.810260 0.056425 0.336971
H3    H     H_    0.025988 0.544690 0.616027 0.327449
H4    H     H_    0.847118 0.339817 0.945672 0.316769
H5    H     H_    0.149937 0.302928 0.059351 0.340237
H6    H     H_    0.239665 0.893757 0.370981 0.132104
H7    H     H_    0.227127 0.768219 0.314231 0.178339
H8    H     H_    0.162513 0.880339 0.314289 0.147895
H9    H     H_    0.113412 0.720662 0.389954 0.214376
H10   H     H_    0.138033 0.834816 0.445058 0.150923
H11   H     H_    0.769864 0.885368 0.612400 0.176191
H12   H     H_    0.788274 0.778000 0.679598 0.155888
H13   H     H_    0.838190 0.727926 0.444422 0.149789
H14   H     H_    0.849805 0.895169 0.664977 0.202076
H15   H     H_    0.895319 0.713194 0.606202 0.213514
H16   H     H_    0.874194 0.821352 0.543869 0.183181
H17   H     H_    0.739672 0.393740 0.370948 0.132672
H18   H     H_    0.727112 0.268201 0.314200 0.176662
H19   H     H_    0.662508 0.380335 0.314274 0.146554
H20   H     H_    0.613416 0.220665 0.389953 0.214445
H21   H     H_    0.638044 0.334824 0.445047 0.150930
H22   H     H_    0.269856 0.385387 0.612424 0.175458
H23   H     H_    0.288271 0.278007 0.679616 0.155662
H24   H     H_    0.688347 0.285898 0.546780 0.134190
H25   H     H_    0.349799 0.395182 0.664996 0.202860
H26   H     H_    0.395310 0.213211 0.606211 0.213849
H27   H     H_    0.374184 0.321375 0.543884 0.183241
H28   H     H_    0.394692 0.606654 0.578087 0.352410
H29   H     H_    0.624896 0.504539 0.397062 0.339729
H30   H     H_    0.894697 0.106649 0.578071 0.352456
H31   H     H_    0.124896 0.004542 0.397065 0.339870
H32   H     H_    0.539680 0.075998 0.065222 0.314627
H33   H     H_    0.618659 0.004829 0.970415 0.308799
H34   H     H_    0.002308 0.608937 0.005217 0.334467
H35   H     H_    0.338170 0.227982 0.444432 0.149763
H36   H     H_    0.074991 0.520706 0.907224 0.325873
H37   H     H_    0.415999 0.478015 0.993299 0.149620
H38   H     H_    0.395103 0.582563 0.923805 0.194790
H39   H     H_    0.438455 0.444850 0.903652 0.194595
H40   H     H_    0.530083 0.581458 0.902473 0.205383
H41   H     H_    0.532933 0.530751 0.993469 0.209874
H42   H     H_    0.375148 0.527116 0.130223 0.145566
H43   H     H_    0.463112 0.554868 0.106113 0.189278
H44   H     H_    0.424199 0.636158 0.178823 0.163826
H45   H     H_    0.359213 0.760970 0.104113 0.182971
H46   H     H_    0.317981 0.449635 0.445916 0.142388
H47   H     H_    0.354354 0.653776 0.033854 0.124078
H48   H     H_    0.917800 0.980513 0.994209 0.145454
H49   H     H_    0.897286 0.080865 0.922349 0.203911
H50   H     H_    0.941302 0.942637 0.905545 0.186103
H51   H     H_    0.031883 0.082137 0.902371 0.202132
H52   H     H_    0.035186 0.032818 0.993712 0.209107
H53   H     H_    0.874439 0.035186 0.131412 0.140807
H54   H     H_    0.962644 0.058946 0.107192 0.190350
H55   H     H_    0.923791 0.144911 0.178358 0.164444
H56   H     H_    0.859558 0.266731 0.100634 0.186631
H57   H     H_    0.666201 0.473603 0.564857 0.130600
H58   H     H_    0.857427 0.157414 0.031266 0.131470
H59   H     H_    0.286262 0.325350 0.917217 0.382104
H60   H     H_    0.614059 0.434001 0.041409 0.335538
H61   H     H_    0.778075 0.829736 0.921657 0.380095
H62   H     H_    0.114761 0.929942 0.042012 0.338863
H63   H     H_    0.320384 0.368210 0.079306 0.360246
H64   H     H_    0.641503 0.549667 0.879623 0.325815
H65   H     H_    0.826029 0.874711 0.078030 0.359402
H66   H     H_    0.142213 0.046145 0.881198 0.325734
H67   H     H_    0.132470 0.736425 0.079238 0.340828
H68   H     H_    0.817981 0.949634 0.445916 0.142468
H69   H     H_    0.900328 0.726320 0.973971 0.359502
H70   H     H_    0.639941 0.248214 0.083700 0.329221
H71   H     H_    0.404880 0.213841 0.975645 0.385942
H72   H     H_    0.134049 0.780537 0.961790 0.336411
H73   H     H_    0.875712 0.586901 0.125813 0.346099
H74   H     H_    0.638329 0.287562 0.963376 0.345792
H75   H     H_    0.375796 0.084794 0.128091 0.340190
H76   H     H_    0.637658 0.703307 0.607311 0.155549
H77   H     H_    0.578806 0.700493 0.678495 0.173013
H78   H     H_    0.618823 0.566067 0.656632 0.142392
H79   H     H_    0.166203 0.973600 0.564858 0.130591
H80   H     H_    0.498858 0.561081 0.606154 0.177962
H81   H     H_    0.558340 0.547211 0.541642 0.197714
H82   H     H_    0.370678 0.687462 0.404689 0.148710
H83   H     H_    0.423779 0.673039 0.329176 0.158966
H84   H     H_    0.385182 0.542078 0.362346 0.150340
H85   H     H_    0.510064 0.557620 0.399815 0.208147
H86   H     H_    0.453543 0.539665 0.469564 0.175002
H87   H     H_    0.137654 0.203308 0.607319 0.155448
H88   H     H_    0.078802 0.200481 0.678502 0.171247
H89   H     H_    0.118822 0.066060 0.656633 0.142321
H90   H     H_    0.344479 0.830884 0.945965 0.309321
H91   H     H_    0.998855 0.061079 0.606155 0.177497
H92   H     H_    0.058338 0.047208 0.541644 0.197664
H93   H     H_    0.870677 0.187478 0.404688 0.148560
H94   H     H_    0.923778 0.173052 0.329175 0.158664
H95   H     H_    0.885177 0.042094 0.362343 0.149876
H96   H     H_    0.010060 0.057622 0.399814 0.208481
H97   H     H_    0.953538 0.039671 0.469562 0.174880
H98   H     H_    0.470900 0.035870 0.384111 0.318276
H99   H     H_    0.525978 0.044698 0.616020 0.329689
H100  H     H_    0.970907 0.535876 0.384117 0.318519
O1    O     O_R   0.214270 0.709000 0.827470 -0.449317
O2    O     O_R   0.543270 0.717630 0.330160 -0.523589
O3    O     O_R   0.956730 0.217630 0.669840 -0.550095
O4    O     O_R   0.043270 0.217630 0.330160 -0.522774
O5    O     O_R   0.320620 0.625640 0.672920 -0.490187
O6    O     O_R   0.679380 0.625640 0.327080 -0.511967
O7    O     O_R   0.820620 0.125640 0.672920 -0.490635
O8    O     O_R   0.179380 0.125640 0.327080 -0.510317
O9    O     O_3   0.334280 0.834290 0.749180 -0.307509
O10   O     O_3   0.665720 0.834290 0.250820 -0.274836
O11   O     O_3   0.834280 0.334290 0.749180 -0.303869
O12   O     O_R   0.785730 0.709000 0.172530 -0.500209
O13   O     O_3   0.165720 0.334290 0.250820 -0.288159
O14   O     O_R   0.236160 0.958490 0.823130 -0.479677
O15   O     O_R   0.763840 0.958490 0.176870 -0.512976
O16   O     O_R   0.736160 0.458490 0.823130 -0.478034
O17   O     O_R   0.263840 0.458490 0.176870 -0.528401
O18   O     O_R   0.332080 0.075470 0.831280 -0.438203
O19   O     O_R   0.667920 0.075470 0.168720 -0.499431
O20   O     O_R   0.832080 0.575470 0.831280 -0.437580
O21   O     O_R   0.167920 0.575470 0.168720 -0.460556
O22   O     O_R   0.446300 0.918110 0.826620 -0.443954
O23   O     O_R   0.714270 0.209000 0.827470 -0.438079
O24   O     O_R   0.553700 0.918110 0.173380 -0.519541
O25   O     O_R   0.946300 0.418110 0.826620 -0.474860
O26   O     O_R   0.053700 0.418110 0.173380 -0.489045
O27   O     O_R   0.457110 0.716200 0.831760 -0.556088
O28   O     O_R   0.542890 0.716200 0.168240 -0.496156
O29   O     O_R   0.957110 0.216200 0.831760 -0.544041
O30   O     O_R   0.042890 0.216200 0.168240 -0.510808
O31   O     O_R   0.320980 0.624310 0.823030 -0.499480
O32   O     O_R   0.679020 0.624310 0.176970 -0.430644
O33   O     O_R   0.820980 0.124310 0.823030 -0.500018
O34   O     O_R   0.285730 0.209000 0.172530 -0.508367
O35   O     O_R   0.179020 0.124310 0.176970 -0.433440
O36   O     O_R   0.213890 0.710430 0.665540 -0.522013
O37   O     O_R   0.786110 0.710430 0.334460 -0.541914
O38   O     O_R   0.713890 0.210430 0.665540 -0.519272
O39   O     O_R   0.286110 0.210430 0.334460 -0.541239
O40   O     O_R   0.235810 0.959820 0.673020 -0.548144
O41   O     O_R   0.764190 0.959820 0.326980 -0.529514
O42   O     O_R   0.735810 0.459820 0.673020 -0.548416
O43   O     O_R   0.264190 0.459820 0.326980 -0.526527
O44   O     O_R   0.331700 0.076900 0.669350 -0.520641
O45   O     O_R   0.445950 0.919440 0.676520 -0.490099
O46   O     O_R   0.668300 0.076900 0.330650 -0.510050
O47   O     O_R   0.831700 0.576900 0.669350 -0.520139
O48   O     O_R   0.168300 0.576900 0.330650 -0.510400
O49   O     O_3   0.366202 0.899928 0.971501 -0.681391
O50   O     O_3   0.625694 0.744748 0.029010 -0.654431
O51   O     O_3   0.870506 0.408075 0.970450 -0.676756
O52   O     O_3   0.127017 0.240834 0.029175 -0.648958
O53   O     O_3   0.370811 0.533316 0.561174 -0.761234
O54   O     O_3   0.624862 0.543529 0.443544 -0.752983
O55   O     O_3   0.870808 0.033312 0.561177 -0.761382
O56   O     O_R   0.554050 0.919440 0.323480 -0.489717
O57   O     O_3   0.124859 0.043529 0.443547 -0.753007
O58   O     O_3   0.492384 0.058254 0.045908 -0.628327
O59   O     O_3   0.593124 0.959846 0.932785 -0.658451
O60   O     O_3   0.997385 0.558524 0.047944 -0.638975
O61   O     O_3   0.099462 0.457621 0.934253 -0.695345
O62   O     O_3   0.291041 0.406529 0.897685 -0.681007
O63   O     O_3   0.639550 0.490687 0.072811 -0.635561
O64   O     O_3   0.788868 0.909244 0.902011 -0.673103
O65   O     O_3   0.140882 0.985000 0.073941 -0.636568
O66   O     O_3   0.284330 0.351549 0.042556 -0.722700
O67   O     O_R   0.945950 0.419440 0.676520 -0.491161
O68   O     O_3   0.641691 0.503756 0.924458 -0.703736
O69   O     O_3   0.784301 0.860928 0.047587 -0.706269
O70   O     O_3   0.142902 0.998948 0.925543 -0.705306
O71   O     O_3   0.183870 0.739689 0.084771 -0.648533
O72   O     O_3   0.873748 0.675948 0.939415 -0.640290
O73   O     O_3   0.691377 0.254362 0.087474 -0.657617
O74   O     O_3   0.376358 0.167204 0.940855 -0.613516
O75   O     O_3   0.182040 0.779044 0.943490 -0.620250
O76   O     O_3   0.875027 0.639512 0.083554 -0.645470
O77   O     O_3   0.685914 0.286999 0.944032 -0.613632
O78   O     O_R   0.054050 0.419440 0.323480 -0.492015
O79   O     O_3   0.375136 0.137192 0.085722 -0.633773
O80   O     O_3   0.497552 0.048128 0.429020 -0.653183
O81   O     O_3   0.499609 0.051395 0.570665 -0.653148
O82   O     O_3   0.997563 0.548131 0.429024 -0.653328
O83   O     O_3   0.999624 0.551394 0.570670 -0.653519
O84   O     O_R   0.456730 0.717630 0.669840 -0.550493

loop_
_geom_bond_atom_site_label_1
_geom_bond_atom_site_label_2
_ccdc_geom_bond_type
H31   O57   S    
C120  O51   S    
C87   C91   A    
Cr2   O10   S    
C96   O1    A    
C44   O76   S    
C19   C20   S    
H66   O70   S    
H90   O49   S    
C11   H23   S    
C6    C75   S    
C41   O73   S    
C101  O46   A    
Cr12  O31   S    
C88   O54   S    
C29   H94   S    
C67   O29   A    
Cr8   O9    S    
C5    H7    S    
C117  O61   S    
C94   C111  S    
H72   O75   S    
C89   C94   A    
Cr1   O9    S    
C30   O66   S    
C103  C120  S    
C22   H76   S    
C105  O45   A    
C79   C102  S    
H5    O52   S    
C16   H43   S    
Cr8   O18   S    
Cr9   O10   S    
C72   C94   A    
C24   C51   A    
Cr8   O45   S    
C10   H26   S    
C21   C22   S    
C42   O74   S    
C51   C99   S    
C25   H82   S    
C8    H21   S    
H3    O83   S    
C32   O69   S    
C90   C95   A    
C64   O83   S    
C86   C90   A    
C20   H53   S    
Cr8   O22   S    
C37   O15   A    
C78   C104  S    
C48   O16   A    
C14   H39   S    
C110  O6    A    
C23   H86   S    
C26   H91   S    
C21   H80   S    
C69   C74   A    
C65   C122  S    
C56   C106  S    
C60   C107  S    
C107  O67   A    
C119  O50   S    
C6    H15   S    
Cr4   O8    S    
C73   C95   A    
Cr2   O2    S    
C1    O18   A    
C3    C103  S    
H36   O61   S    
C111  O7    A    
Cr3   O29   S    
C102  O47   A    
Cr11  O48   S    
C84   C88   A    
C4    C5    S    
Cr6   O11   S    
Cr7   O17   S    
C6    C7    S    
C71   C93   A    
C119  C123  S    
C99   O34   A    
C27   H87   S    
C33   C38   A    
H71   O74   S    
C60   C64   A    
C35   C40   A    
H100  O82   S    
C45   C50   A    
H4    O51   S    
C49   C97   S    
C112  O8    A    
C41   C45   A    
C25   H84   S    
C75   C79   A    
C3    C121  S    
H29   O54   S    
C113  C115  S    
C47   C114  A    
Cr5   O15   S    
C59   O17   A    
C63   O82   S    
C13   C32   A    
C112  O39   A    
C2    O63   S    
Cr9   O19   S    
C20   H55   S    
C68   O26   A    
Cr12  O5    S    
C81   C123  S    
C32   C36   A    
C36   C37   S    
C14   H37   S    
C66   O24   A    
C3    C116  S    
C79   C84   A    
C17   H52   S    
C8    C76   S    
C118  C122  S    
C118  O49   S    
Cr11  O78   S    
C85   H68   S    
C61   O80   S    
Cr2   O6    S    
H67   O71   S    
C70   C119  S    
C12   H40   S    
C9    H17   S    
C21   H81   S    
Cr12  O27   S    
Cr2   O32   S    
C26   C54   S    
C67   O25   A    
C16   H42   S    
C23   C53   S    
C7    H11   S    
C98   O33   A    
Cr8   O44   S    
C50   C98   S    
C30   C34   A    
C115  O59   S    
C34   C39   A    
Cr3   O7    S    
C27   H89   S    
C46   C51   A    
C116  C120  S    
C121  O52   S    
C106  O56   A    
C46   O79   S    
C7    H14   S    
C70   C122  S    
C17   C18   S    
Cr4   O13   S    
C45   O77   S    
H30   O55   S    
Cr10  O25   S    
C115  C119  S    
C74   C78   A    
Cr10  O67   S    
C52   C53   A    
C53   C56   A    
C12   C70   S    
C54   C55   A    
C73   C77   A    
C68   O30   A    
C76   C80   A    
C62   O81   S    
C93   C110  S    
C18   H49   S    
H63   O66   S    
C29   H93   S    
C5    H6    S    
Cr7   O34   S    
C43   C47   A    
Cr12  O84   S    
C4    H9    S    
C99   O35   A    
C61   C62   A    
C10   C11   S    
C13   C50   A    
C40   C44   A    
C9    H19   S    
C19   H58   S    
Cr3   O33   S    
C22   H77   S    
Cr4   O30   S    
C66   C123  S    
H73   O76   S    
C33   O70   S    
C40   O72   S    
Cr1   O40   S    
C16   H44   S    
C98   O23   A    
C83   C87   A    
Cr3   O3    S    
C10   H27   S    
Cr5   O37   S    
C3    C68   S    
H99   O81   S    
C26   C27   S    
C100  O40   A    
C101  O41   A    
C28   C29   S    
C117  C124  S    
C95   C112  S    
C92   C124  S    
C20   H54   S    
H60   O63   S    
Cr9   O46   S    
C11   H25   S    
C42   C46   A    
C111  O38   A    
C77   C82   A    
C78   C83   A    
C89   O55   S    
C23   H85   S    
C26   H92   S    
C15   H47   S    
C47   C96   S    
Cr6   O38   S    
Cr7   O43   S    
H70   O73   S    
C6    H16   S    
C36   C41   A    
C65   O27   A    
Cr11  O13   S    
C66   O28   A    
C35   C48   S    
C104  O43   A    
Cr5   O10   S    
C90   O57   S    
H62   O65   S    
Cr11  O21   S    
Cr1   O36   S    
C29   H95   S    
C85   C89   A    
C5    H8    S    
C82   C86   A    
C107  O3    A    
C81   C118  S    
C80   C85   A    
C110  O37   A    
C113  C123  S    
C109  O5    A    
Cr2   O28   S    
C105  O84   A    
C1    C38   S    
C10   C77   S    
C34   C59   S    
C31   C35   A    
C25   H83   S    
Cr3   O11   S    
Cr10  O11   S    
Cr1   O1    S    
C30   C114  A    
C116  O60   S    
Cr6   O16   S    
Cr4   O4    S    
H32   O58   S    
C24   C33   A    
H65   O69   S    
C65   O22   A    
Cr10  O20   S    
C14   H38   S    
C104  O48   A    
H75   O79   S    
C71   H13   S    
C17   H51   S    
C15   H45   S    
C87   O53   S    
C58   C108  S    
H64   O68   S    
H69   O72   S    
C52   C57   A    
C106  O2    A    
C55   C58   A    
C114  O62   S    
C56   C61   A    
C59   O21   A    
C11   H22   S    
Cr5   O12   S    
C44   C49   A    
C57   C105  S    
C72   C76   A    
C67   C124  S    
C97   O12   A    
Cr6   O23   S    
C57   C62   A    
C15   C81   S    
C54   C60   A    
C27   H88   S    
H61   O64   S    
C43   O75   S    
Cr1   O14   S    
C38   C42   A    
C109  O36   A    
C31   O68   S    
H28   O53   S    
C15   C16   S    
C116  C117  S    
C108  O78   A    
C70   C81   S    
C117  C121  S    
C86   H79   S    
C92   C103  S    
C19   C103  S    
C108  O4    A    
C8    C9    S    
C37   O19   A    
Cr5   O41   S    
C18   H48   S    
C73   H35   S    
C4    C74   S    
C19   H56   S    
C96   O31   A    
C12   H41   S    
C115  C122  S    
C100  O44   A    
C17   C92   S    
C102  O42   A    
H33   O59   S    
C28   C55   S    
H34   O60   S    
Cr9   O24   S    
H59   O62   S    
C69   H1    S    
Cr9   O56   S    
C1    O14   A    
C39   C43   A    
C18   H50   S    
C13   O64   S    
C63   C64   A    
C83   H46   S    
C2    C31   A    
Cr6   O42   S    
C39   O71   S    
Cr7   O39   S    
C2    C49   A    
C97   O32   A    
C84   H57   S    
C4    H10   S    
Cr11  O26   S    
C12   C14   S    
C9    H18   S    
C22   H78   S    
Cr4   O35   S    
C48   O20   A    
C24   O65   S    
C7    H12   S    
C113  O58   S    
C28   H96   S    
C88   C93   A    
C82   C100  S    
C58   C63   A    
H2    O50   S    
Cr10  O47   S    
C72   H24   S    
C80   C101  S    
C91   C109  S    
H98   O80   S    
C69   C91   A    
C92   C121  S    
C71   C75   A    
Cr12  O9    S    
C23   C25   S    
C8    H20   S    
C28   H97   S    
H74   O77   S    
C113  C118  S    
Cr7   O13   S    
C21   C52   S    
C120  C124  S    
