data_mof_unit_40959.cif
_audit_creation_date              2012-12-10T19:09:05-0500
_audit_creation_method            fapswitch 2.2
_symmetry_space_group_name_H-M    P1
_symmetry_Int_Tables_number       1
_space_group_crystal_system       triclinic
_cell_length_a                    17.713509
_cell_length_b                    10.951919
_cell_length_c                    9.547616
_cell_angle_alpha                 91.732033
_cell_angle_beta                  90.758752
_cell_angle_gamma                 91.569624
_cell_volume                      1850.48363969

loop_
_atom_site_label
_atom_site_type_symbol
_atom_type_description
_atom_site_fract_x
_atom_site_fract_y
_atom_site_fract_z
_atom_type_partial_charge
C1    C     C_R   0.498215 0.262506 0.497280 0.805633
C2    C     C_R   0.884455 0.480319 0.505051 0.110126
C3    C     C_1   0.965299 0.480460 0.504273 -0.042187
C4    C     C_1   0.033008 0.482149 0.503401 -0.055359
C5    C     C_R   0.155177 0.457733 0.625624 0.161447
C6    C     C_R   0.234459 0.463483 0.621899 -0.167130
C7    C     C_R   0.272514 0.494935 0.499590 -0.088700
C8    C     C_R   0.231140 0.521559 0.378987 -0.206153
C9    C     C_R   0.152378 0.517068 0.379900 -0.005127
C10   C     C_R   0.114239 0.485304 0.502860 0.030245
C11   C     C_R   0.504906 0.069375 0.615569 0.075562
C12   C     C_R   0.355546 0.499122 0.499448 0.814667
C13   C     C_R   0.496778 0.129238 0.490948 -0.145853
C14   C     C_R   0.485818 0.058413 0.365619 -0.093622
C15   C     C_R   0.476398 0.930789 0.372558 -0.077256
C16   C     C_R   0.491203 0.871195 0.500722 -0.166292
C17   C     C_R   0.508316 0.943424 0.622437 0.018566
C18   C     C_3   0.469293 0.950782 0.763245 -0.056795
C19   C     C_3   0.460443 0.086631 0.744883 -0.475928
C20   C     C_R   0.563226 0.535335 0.076335 0.223725
C21   C     C_R   0.441760 0.447039 0.069271 0.065159
C22   C     C_R   0.441480 0.449439 0.920995 -0.082350
C23   C     C_R   0.496181 0.737528 0.501377 0.806781
C24   C     C_R   0.564158 0.532093 0.928726 0.193139
C25   C     C_3   0.605936 0.651445 0.926123 -0.247067
C26   C     C_3   0.603211 0.656583 0.085692 -0.488294
C27   C     C_R   0.644263 0.498116 0.500693 0.798785
C28   C     C_R   0.842836 0.423330 0.611323 0.193692
C29   C     C_R   0.763856 0.429827 0.608760 -0.182362
C30   C     C_R   0.726791 0.491431 0.502205 -0.056674
C31   C     C_R   0.768893 0.544976 0.396042 -0.192757
C32   C     C_R   0.847249 0.539967 0.397909 -0.180375
Cu1   Cu    Cu3+1 0.500000 0.499980 0.640670 0.954723
Cu2   Cu    Cu3+1 0.500000 0.500020 0.359330 0.976901
H1    H     H_    0.401611 0.113839 0.721284 0.184461
H2    H     H_    0.490811 0.148290 0.822962 0.218263
H3    H     H_    0.394211 0.409197 0.861365 0.133721
H4    H     H_    0.572841 0.718950 0.870657 0.188142
H5    H     H_    0.659076 0.651914 0.138950 0.180454
H6    H     H_    0.731219 0.386801 0.689896 0.146967
H7    H     H_    0.566834 0.728943 0.128766 0.233750
H8    H     H_    0.741348 0.592693 0.313087 0.145202
H9    H     H_    0.878997 0.583438 0.315917 0.156768
H10   H     H_    0.267425 0.442893 0.713731 0.159591
H11   H     H_    0.260121 0.547021 0.284443 0.168312
N1    N     N_R   0.500470 0.500930 0.147930 -0.200671
N2    N     N_R   0.500480 0.500890 0.852020 -0.197867
O1    O     O_R   0.500000 0.319640 0.618810 -0.581452
O2    O     O_R   0.500010 0.319680 0.381230 -0.576128
O3    O     O_R   0.391250 0.499990 0.618840 -0.590718
O4    O     O_R   0.391260 0.500020 0.381250 -0.576883
O5    O     O_R   0.499990 0.680320 0.618770 -0.581801
O6    O     O_R   0.500000 0.680360 0.381190 -0.577433
O7    O     O_R   0.608740 0.499980 0.618750 -0.580504
O8    O     O_R   0.608750 0.500010 0.381160 -0.581606
C33   C     C_3   0.881014 0.355499 0.727132 -0.438516
C34   C     C_3   0.906913 0.442804 0.846892 -0.774207
H12   H     H_    0.942284 0.519118 0.807146 0.253310
H13   H     H_    0.857253 0.480853 0.900803 0.267504
H14   H     H_    0.940679 0.392727 0.924135 0.243229
H15   H     H_    0.841652 0.285282 0.769313 0.204718
H16   H     H_    0.930116 0.305671 0.685535 0.201031
C35   C     C_1   0.444227 0.864499 0.250503 0.294983
N3    N     N_1   0.418101 0.812080 0.153669 -0.275784
C36   C     C_1   0.397507 0.880244 0.769994 0.285363
N4    N     N_1   0.341180 0.824581 0.775194 -0.271052
C37   C     C_1   0.519754 0.933432 0.884043 0.263431
N5    N     N_1   0.559757 0.925521 0.979910 -0.306216
C38   C     C_1   0.380340 0.381162 0.132365 0.297289
N6    N     N_1   0.330736 0.326671 0.180771 -0.300646
C39   C     C_1   0.683142 0.641842 0.873490 0.297123
N7    N     N_1   0.744174 0.636084 0.832757 -0.296127
C40   C     C_3   0.112825 0.423829 0.757721 -0.393683
C41   C     C_3   0.161459 0.388737 0.883172 -0.808089
H17   H     H_    0.196368 0.309109 0.855235 0.246257
H18   H     H_    0.198196 0.467333 0.920199 0.256748
H19   H     H_    0.124195 0.362640 0.970610 0.259101
H20   H     H_    0.078476 0.502558 0.791207 0.221052
H21   H     H_    0.073631 0.345211 0.731630 0.208175
C42   C     C_1   0.111658 0.546275 0.253543 0.241332
N8    N     N_1   0.078980 0.569756 0.152542 -0.294560
C43   C     C_1   0.481782 0.113548 0.229568 0.331570
N9    N     N_1   0.479131 0.156228 0.120322 -0.302771

loop_
_geom_bond_atom_site_label_1
_geom_bond_atom_site_label_2
_ccdc_geom_bond_type
C31   H8    S    
C40   C41   S    
C28   C33   S    
C27   O7    A    
C7    C8    A    
Cu1   O5    S    
C11   C19   S    
Cu2   O4    S    
C41   H18   S    
C28   C29   A    
C19   H2    S    
C5    C6    A    
C27   O8    A    
C26   H5    S    
C34   H13   S    
C15   C16   A    
C33   C34   S    
C2    C32   A    
C18   C19   S    
C8    H11   S    
C20   C24   A    
C8    C9    A    
C41   H19   S    
C40   H20   S    
C23   O6    A    
Cu2   N1    S    
C9    C10   A    
C22   N2    A    
Cu2   O8    S    
C6    H10   S    
C13   C14   A    
C27   C30   S    
Cu1   Cu2   S    
C34   H12   S    
C7    C12   S    
C41   H17   S    
C37   N5    T    
C24   C25   S    
C18   C37   S    
C16   C17   A    
C34   H14   S    
C25   C26   S    
C22   H3    S    
C21   C38   S    
C18   C36   S    
C9    C42   S    
C29   C30   A    
C25   H4    S    
C31   C32   A    
C17   C18   S    
C40   H21   S    
C25   C39   S    
C43   N9    T    
C16   C23   S    
Cu1   N2    S    
C33   H16   S    
C1    C13   S    
C14   C43   S    
C4    C10   S    
C3    C4    T    
C12   O4    A    
C21   N1    A    
Cu1   O7    S    
C11   C17   A    
Cu2   O2    S    
C14   C15   A    
C24   N2    A    
C42   N8    T    
C12   O3    A    
C1    O1    A    
C6    C7    A    
C2    C3    S    
Cu1   O3    S    
C5    C10   A    
C19   H1    S    
C11   C13   A    
C23   O5    A    
C30   C31   A    
C20   C26   S    
C29   H6    S    
C32   H9    S    
C5    C40   S    
C38   N6    T    
C35   N3    T    
C39   N7    T    
Cu2   O6    S    
C36   N4    T    
Cu1   O1    S    
C15   C35   S    
C33   H15   S    
C2    C28   A    
C21   C22   A    
C1    O2    A    
C20   N1    A    
C26   H7    S    
