data_mof_unit_50623.cif
_audit_creation_date              2013-03-05T15:42:34-0500
_audit_creation_method            fapswitch 2.2
_symmetry_space_group_name_H-M    P1
_symmetry_Int_Tables_number       1
_space_group_crystal_system       triclinic
_cell_length_a                    29.405453
_cell_length_b                    17.564372
_cell_length_c                    18.977948
_cell_angle_alpha                 89.569565
_cell_angle_beta                  139.581044
_cell_angle_gamma                 90.609808
_cell_volume                      6354.90559753

loop_
_atom_site_label
_atom_site_type_symbol
_atom_site_description
_atom_site_fract_x
_atom_site_fract_y
_atom_site_fract_z
_atom_type_partial_charge
C1    C     C_R   0.685720 0.903184 0.802404 -0.098781
C2    C     C_R   0.684655 0.098853 0.804474 -0.008149
C3    C     C_R   0.186122 0.400713 0.800820 -0.120053
C4    C     C_R   0.167326 0.576631 0.813625 0.001018
H1    H     H_    0.733417 0.936039 0.856523 0.146852
H2    H     H_    0.733877 0.069112 0.860980 0.188935
H3    H     H_    0.235039 0.430818 0.852648 0.150333
H4    H     H_    0.214464 0.544151 0.875746 0.185212
N1    N     N_R   0.625250 0.928170 0.708660 -0.054430
N2    N     N_R   0.625250 0.071830 0.708660 -0.068623
N3    N     N_R   0.125250 0.428170 0.708660 -0.052653
N4    N     N_R   0.125250 0.571830 0.708660 -0.068754
C5    C     C_R   0.329184 0.103616 0.411521 -0.143603
C6    C     C_R   0.360416 0.927529 0.486926 -0.118786
C7    C     C_R   0.828110 0.601931 0.407103 -0.165886
C8    C     C_R   0.860417 0.427429 0.486997 -0.113850
H5    H     H_    0.278327 0.076176 0.352384 0.094608
H6    H     H_    0.321026 0.966123 0.458695 0.102552
H7    H     H_    0.777595 0.573519 0.350316 0.109505
H8    H     H_    0.821112 0.466028 0.459039 0.095765
N5    N     N_R   0.386350 0.070500 0.452620 -0.044601
N6    N     N_R   0.386350 0.929500 0.452620 -0.051079
N7    N     N_R   0.886350 0.570500 0.452620 -0.042138
N8    N     N_R   0.886350 0.429500 0.452620 -0.045374
C9    C     C_R   0.441794 0.834837 0.575461 -0.123944
C10   C     C_R   0.411930 0.194639 0.501586 -0.109840
C11   C     C_R   0.941725 0.334726 0.575354 -0.119293
C12   C     C_R   0.909403 0.694457 0.497294 -0.122145
H9    H     H_    0.476661 0.788551 0.629146 0.095569
H10   H     H_    0.437682 0.249276 0.525809 0.101513
H11   H     H_    0.976558 0.288417 0.628978 0.096979
H12   H     H_    0.934227 0.750034 0.525288 0.113121
N9    N     N_R   0.437960 0.869720 0.507940 -0.048495
N10   N     N_R   0.437960 0.130280 0.507940 -0.039910
N11   N     N_R   0.937960 0.369720 0.507940 -0.047297
N12   N     N_R   0.937960 0.630280 0.507940 -0.040579
C13   C     C_R   0.602236 0.189694 0.715098 -0.144696
C14   C     C_R   0.605713 0.809242 0.714914 -0.103185
C15   C     C_R   0.084562 0.666956 0.724984 -0.141254
C16   C     C_R   0.105067 0.308663 0.714307 -0.140152
H13   H     H_    0.575539 0.243546 0.687368 0.125226
H14   H     H_    0.581701 0.753452 0.691189 0.106969
H15   H     H_    0.053424 0.714948 0.704043 0.117593
H16   H     H_    0.080525 0.253103 0.689468 0.102733
N13   N     N_R   0.573630 0.128950 0.653340 -0.044960
N14   N     N_R   0.573630 0.871050 0.653340 -0.052428
N15   N     N_R   0.073630 0.628950 0.653340 -0.045716
N16   N     N_R   0.073630 0.371050 0.653340 -0.050022
C17   C     C_R   0.675282 0.828961 0.809090 0.137078
C18   C     C_R   0.671753 0.172404 0.810722 0.032654
C19   C     C_R   0.175151 0.326549 0.807685 0.139582
C20   C     C_R   0.144857 0.637317 0.827465 0.025916
C21   C     C_R   0.343535 0.180602 0.440159 0.060779
C22   C     C_R   0.394595 0.870358 0.565145 0.062194
C23   C     C_R   0.841226 0.677711 0.434322 0.055422
C24   C     C_R   0.894545 0.370172 0.565126 0.060269
C25   C     C_R   0.663455 0.101160 0.572802 -0.185297
C26   C     C_R   0.653137 0.911538 0.545854 -0.128099
C27   C     C_R   0.162798 0.600317 0.570727 -0.168435
C28   C     C_R   0.156061 0.405706 0.553265 -0.163722
H17   H     H_    0.712774 0.072703 0.622876 0.128986
H18   H     H_    0.701614 0.941123 0.590919 0.135709
H19   H     H_    0.211849 0.571514 0.619890 0.125265
H20   H     H_    0.201897 0.438590 0.592976 0.124189
N17   N     N_R   0.609990 0.071870 0.547380 -0.070885
N18   N     N_R   0.609990 0.928130 0.547380 -0.071529
N19   N     N_R   0.109990 0.571870 0.547380 -0.066614
N20   N     N_R   0.109990 0.428130 0.547380 -0.060483
C29   C     C_R   0.310950 0.893759 0.198763 -0.039493
C30   C     C_R   0.327591 0.084125 0.185938 -0.079562
C31   C     C_R   0.825867 0.415508 0.186214 -0.082057
C32   C     C_R   0.820935 0.594421 0.187191 -0.074551
H21   H     H_    0.261054 0.921676 0.146058 0.085082
H22   H     H_    0.279112 0.052568 0.123517 0.146101
H23   H     H_    0.776923 0.445313 0.126157 0.107797
H24   H     H_    0.769432 0.568774 0.125967 0.128298
N21   N     N_R   0.371090 0.922150 0.291340 -0.051123
N22   N     N_R   0.371090 0.077850 0.291340 -0.062020
N23   N     N_R   0.871090 0.422150 0.291340 -0.053448
N24   N     N_R   0.871090 0.577850 0.291340 -0.055076
C33   C     C_R   0.569073 0.820273 0.453406 0.599430
C34   C     C_R   0.584776 0.193883 0.495407 0.555316
C35   C     C_R   0.078189 0.310621 0.477290 0.500739
C36   C     C_R   0.084282 0.693429 0.493527 0.559348
N25   N     N_R   0.558380 0.869490 0.492060 -0.078796
N26   N     N_R   0.558380 0.130510 0.492060 -0.080140
N27   N     N_R   0.058380 0.369490 0.492060 -0.111939
N28   N     N_R   0.058380 0.630510 0.492060 -0.079107
C37   C     C_R   0.414007 0.167266 0.279122 -0.113978
C38   C     C_R   0.395436 0.811182 0.288193 -0.073639
C39   C     C_R   0.910184 0.674247 0.281172 -0.109229
C40   C     C_R   0.911737 0.333639 0.276291 -0.165783
H25   H     H_    0.446634 0.215500 0.303929 0.184392
H26   H     H_    0.420938 0.756820 0.317717 0.172738
H27   H     H_    0.942842 0.722950 0.307724 0.183500
H28   H     H_    0.941203 0.284092 0.296543 0.163238
N29   N     N_R   0.422710 0.124520 0.346660 -0.048308
N30   N     N_R   0.422710 0.875480 0.346660 -0.047304
N31   N     N_R   0.922710 0.624520 0.346660 -0.046529
N32   N     N_R   0.922710 0.375480 0.346660 -0.057899
Ni1   Ni    Ni4+2 0.616550 1.000000 0.626870 0.237650
Ni2   Ni    Ni4+2 0.116550 0.500000 0.626870 0.241238
Ni3   Ni    Ni4+2 0.379790 1.000000 0.373130 0.209522
Ni4   Ni    Ni4+2 0.879790 0.500000 0.373130 0.216740
Ni5   Ni    Ni4+2 0.498170 0.870760 0.500000 0.269372
Ni6   Ni    Ni4+2 0.498170 0.129240 0.500000 0.259414
Ni7   Ni    Ni4+2 0.998170 0.370760 0.500000 0.224183
Ni8   Ni    Ni4+2 0.998170 0.629240 0.500000 0.267912
C41   C     C_R   0.648166 0.176854 0.538091 -0.042487
C42   C     C_R   0.628416 0.844572 0.487652 -0.057367
C43   C     C_R   0.147187 0.675727 0.534890 -0.046016
C44   C     C_R   0.135024 0.333523 0.503368 0.057748
C45   C     C_R   0.324928 0.821893 0.194049 0.026146
C46   C     C_R   0.352781 0.143593 0.174820 0.092724
C47   C     C_R   0.850147 0.358435 0.173023 0.175038
C48   C     C_R   0.845624 0.655748 0.178475 0.084128
C49   C     C_3   0.688785 0.302269 0.875750 -0.588799
C50   C     C_3   0.691124 0.775184 0.942414 -0.556005
C51   C     C_3   0.152425 0.751732 0.911729 -0.558248
C52   C     C_3   0.196669 0.267700 0.945447 -0.546694
H29   H     H_    0.676752 0.327886 0.809078 0.216403
H30   H     H_    0.636911 0.751271 0.875863 0.187242
H31   H     H_    0.132914 0.789369 0.845657 0.215587
H32   H     H_    0.141676 0.245832 0.880253 0.186945
H33   H     H_    0.638799 0.298348 0.847095 0.194524
H34   H     H_    0.687167 0.831877 0.963363 0.216366
H35   H     H_    0.106291 0.731899 0.888619 0.195928
H36   H     H_    0.195909 0.323427 0.972210 0.230338
C53   C     C_3   0.200098 0.800169 0.013908 -0.359153
C54   C     C_3   0.241629 0.211744 0.039705 -0.385021
C55   C     C_3   0.737937 0.354843 0.973388 -0.298330
C56   C     C_3   0.734998 0.722645 0.039776 -0.381289
H37   H     H_    0.181422 0.797677 0.047452 0.173592
H38   H     H_    0.256090 0.237371 0.108341 0.189775
H39   H     H_    0.708021 0.375946 0.984110 0.171437
H40   H     H_    0.747161 0.751188 0.104963 0.183045
H41   H     H_    0.751505 0.404610 0.956086 0.275687
H42   H     H_    0.703287 0.671039 0.015019 0.202539
H43   H     H_    0.195591 0.860304 0.990875 0.223224
H44   H     H_    0.209695 0.160015 0.013707 0.201305
H45   H     H_    0.779252 0.268340 0.884173 0.115601
H46   H     H_    0.680809 0.672691 0.828925 0.119266
H47   H     H_    0.226086 0.750587 0.877185 0.116748
H48   H     H_    0.178990 0.168258 0.823764 0.110263
C57   C     C_3   0.792078 0.234741 0.947695 0.254576
C58   C     C_3   0.732445 0.702483 0.885111 0.289819
C59   C     C_3   0.252367 0.716150 0.950144 0.257939
C60   C     C_3   0.230394 0.197534 0.875576 0.292216
C61   C     C_3   0.223619 0.637792 0.030021 0.286843
C62   C     C_3   0.300842 0.316582 0.999897 0.205148
C63   C     C_3   0.733548 0.188640 0.996223 0.262964
C64   C     C_3   0.798233 0.824356 0.004671 0.209578
C65   C     C_3   0.721886 0.221942 0.906576 0.103207
C66   C     C_3   0.724775 0.783594 0.907720 0.061211
C67   C     C_3   0.193128 0.682679 0.929022 0.092787
C68   C     C_3   0.226106 0.278049 0.904348 0.068278
H49   H     H_    0.681385 0.186788 0.961381 0.087076
H50   H     H_    0.788877 0.880120 0.019651 0.119465
H51   H     H_    0.178916 0.626369 0.013852 0.086985
H52   H     H_    0.293857 0.372040 0.018990 0.131423
C69   C     C_3   0.276598 0.770790 0.099824 0.120716
C70   C     C_3   0.308719 0.191385 0.076447 0.084013
C71   C     C_3   0.804536 0.310960 0.075390 0.058491
C72   C     C_3   0.803689 0.701985 0.081713 0.092285
C73   C     C_3   0.302180 0.766531 0.052163 0.096766
C74   C     C_3   0.289631 0.152062 0.982577 0.078667
C75   C     C_3   0.844006 0.279603 0.056344 0.097660
C76   C     C_3   0.788752 0.659093 0.993797 0.097593
C77   C     C_3   0.277028 0.689266 0.132781 -0.566004
C78   C     C_3   0.347077 0.267500 0.102820 -0.505910
C79   C     C_3   0.780508 0.242693 0.094018 -0.576926
C80   C     C_3   0.842687 0.777521 0.108552 -0.517574
H53   H     H_    0.262651 0.691498 0.172616 0.178013
H54   H     H_    0.358372 0.300161 0.165015 0.196484
H55   H     H_    0.750741 0.263877 0.105245 0.178691
H56   H     H_    0.852217 0.811474 0.168293 0.192344
H57   H     H_    0.330722 0.665327 0.193771 0.217810
H58   H     H_    0.398464 0.255892 0.137983 0.242103
H59   H     H_    0.826424 0.211755 0.170050 0.218678
H60   H     H_    0.894950 0.765504 0.146809 0.242860
H61   H     H_    0.355003 0.739526 0.115089 0.140186
H62   H     H_    0.337342 0.154721 0.005036 0.169979
H63   H     H_    0.883687 0.238839 0.123094 0.190749
H64   H     H_    0.838543 0.660053 0.021711 0.170421
C81   C     C_R   0.666737 0.801564 0.483203 -0.053310
C82   C     C_R   0.692287 0.230800 0.550540 -0.044545
C83   C     C_R   0.157407 0.299582 0.462214 -0.038103
C84   C     C_R   0.191079 0.729112 0.546388 -0.039912
C85   C     C_R   0.295838 0.236848 0.412956 0.108390
C86   C     C_R   0.375843 0.846412 0.615011 0.114718
C87   C     C_R   0.797913 0.721800 0.427525 0.115941
C88   C     C_R   0.876078 0.346347 0.615520 0.114213
C89   C     C_R   0.288060 0.347294 0.478465 -0.173945
C90   C     C_R   0.374782 0.746331 0.702478 -0.180647
C91   C     C_R   0.744081 0.838127 0.399851 -0.178719
C92   C     C_R   0.875460 0.246737 0.704062 -0.175115
C93   C     C_R   0.321352 0.308650 0.463858 -0.154072
C94   C     C_R   0.408826 0.784626 0.687424 -0.161864
C95   C     C_R   0.783723 0.798492 0.397801 -0.179571
C96   C     C_R   0.909048 0.284487 0.687847 -0.158130
C97   C     C_R   0.229993 0.212182 0.358120 -0.211356
C98   C     C_R   0.314402 0.875724 0.571600 -0.202439
C99   C     C_R   0.774526 0.684594 0.460228 -0.219267
C100  C     C_R   0.815152 0.376232 0.573323 -0.204470
C101  C     C_R   0.200072 0.246766 0.380537 0.124217
C102  C     C_R   0.275765 0.831655 0.572519 0.120574
C103  C     C_R   0.737284 0.723263 0.465263 0.125037
C104  C     C_R   0.776920 0.332822 0.575666 0.124989
C105  C     C_R   0.721499 0.800662 0.434771 0.185276
C106  C     C_R   0.806779 0.267121 0.641065 0.181684
C107  C     C_R   0.231059 0.312733 0.445319 0.180036
C108  C     C_R   0.305723 0.766090 0.638168 0.182084
C109  C     C_R   0.685005 0.839147 0.442489 -0.272594
C110  C     C_R   0.765111 0.219391 0.633570 -0.264361
C111  C     C_R   0.208779 0.339286 0.483707 -0.255583
C112  C     C_R   0.263944 0.718023 0.629981 -0.262271
C113  C     C_R   0.685014 0.724949 0.518157 0.356183
C114  C     C_R   0.661987 0.293222 0.478219 0.332193
C115  C     C_R   0.125073 0.234133 0.393323 0.405262
C116  C     C_R   0.160646 0.791134 0.473497 0.327142
C117  C     C_R   0.718651 0.685638 0.505267 -0.307992
C118  C     C_R   0.705641 0.347586 0.498971 -0.282392
C119  C     C_R   0.145613 0.210086 0.351325 -0.299340
C120  C     C_R   0.204250 0.845746 0.494516 -0.282512
H65   H     H_    0.671092 0.898370 0.417660 0.156139
H66   H     H_    0.788672 0.170779 0.687281 0.144833
H67   H     H_    0.234415 0.389512 0.534253 0.138966
H68   H     H_    0.287577 0.669643 0.684084 0.142934
H69   H     H_    0.732535 0.897672 0.376901 0.139372
H70   H     H_    0.899614 0.196814 0.755692 0.133614
H71   H     H_    0.311252 0.399502 0.525507 0.131138
H72   H     H_    0.398974 0.696491 0.754268 0.132924
H73   H     H_    0.121996 0.158978 0.301728 0.173073
H74   H     H_    0.181067 0.893821 0.439817 0.184357
H75   H     H_    0.733092 0.626668 0.530924 0.180147
H76   H     H_    0.682463 0.395806 0.444491 0.180445
H77   H     H_    0.370364 0.331656 0.502057 0.124208
H78   H     H_    0.458141 0.762816 0.726457 0.119891
H79   H     H_    0.803102 0.826894 0.373612 0.136776
H80   H     H_    0.958003 0.262217 0.726001 0.120522
H81   H     H_    0.207226 0.159609 0.312307 0.119522
H82   H     H_    0.289822 0.925930 0.521230 0.119849
H83   H     H_    0.788201 0.625612 0.486843 0.127003
H84   H     H_    0.790613 0.426467 0.522987 0.113626
N33   N     N_R   0.309690 0.842012 0.028034 0.240903
O1    O     O_R   0.254741 0.881893 0.946829 -0.341852
O2    O     O_R   0.371602 0.867105 0.083159 -0.346799
N34   N     N_R   0.270420 0.071598 0.967568 0.232786
O3    O     O_R   0.211683 0.050603 0.927796 -0.421661
O4    O     O_R   0.310356 0.020542 0.986401 -0.285752
N35   N     N_R   0.880977 0.339551 0.059948 0.240702
O5    O     O_R   0.846844 0.388649 0.981451 -0.352279
O6    O     O_R   0.949205 0.341394 0.139908 -0.355407
N36   N     N_R   0.768833 0.578973 0.980112 0.216852
O7    O     O_R   0.707696 0.559322 0.933028 -0.471273
O8    O     O_R   0.813090 0.526451 0.014834 -0.363179
N37   N     N_R   0.254403 0.563880 0.048741 0.238107
O9    O     O_R   0.316501 0.559261 0.093924 -0.326427
O10   O     O_R   0.222267 0.501444 0.029951 -0.439892
N38   N     N_R   0.336734 0.332241 0.974798 0.261391
O11   O     O_R   0.360135 0.277127 0.963748 -0.316117
O12   O     O_R   0.359184 0.400979 0.987806 -0.356538
N39   N     N_R   0.761526 0.110788 0.030068 0.245176
O13   O     O_R   0.826915 0.097577 0.092253 -0.306020
O14   O     O_R   0.722466 0.054922 0.007179 -0.420519
N40   N     N_R   0.837242 0.839395 0.984846 0.265691
O15   O     O_R   0.865186 0.784124 0.982526 -0.303086
O16   O     O_R   0.857918 0.908591 0.994951 -0.347580
O17   O     O_3   0.822680 0.166314 0.962308 -0.713740
H85   H     H_    0.859705 0.179955 0.971214 0.344665
O18   O     O_3   0.750460 0.705795 0.834871 -0.639528
H86   H     H_    0.748582 0.652680 0.815097 0.369543
O19   O     O_3   0.291209 0.659129 0.962520 -0.720575
H87   H     H_    0.316711 0.683901 0.952856 0.332763
O20   O     O_3   0.241668 0.202550 0.815845 -0.681003
H88   H     H_    0.234035 0.150656 0.787788 0.352565
N41   N     N_R   0.672211 0.687465 0.569601 0.249911
O21   O     O_R   0.674894 0.725510 0.631139 -0.353344
O22   O     O_R   0.664906 0.613776 0.564230 -0.363710
N42   N     N_R   0.587809 0.298175 0.377778 0.242156
O23   O     O_R   0.553447 0.239003 0.314385 -0.399231
O24   O     O_R   0.557278 0.364200 0.340777 -0.339398
N43   N     N_R   0.073662 0.188235 0.367417 0.265745
O25   O     O_R   0.092825 0.123789 0.417976 -0.307647
O26   O     O_R   0.007995 0.197836 0.274312 -0.368209
N44   N     N_R   0.086434 0.795795 0.372957 0.241664
O27   O     O_R   0.051916 0.736055 0.310892 -0.387405
O28   O     O_R   0.055849 0.861769 0.334763 -0.328941
O29   O     O_3   0.532800 0.753055 0.402704 -0.757729
H89   H     H_    0.544804 0.732141 0.370114 0.322233
O30   O     O_3   0.562428 0.264444 0.490501 -0.758576
H90   H     H_    0.602174 0.300745 0.532851 0.321616
O31   O     O_3   0.063418 0.236892 0.479866 -0.692581
H91   H     H_    0.029307 0.238706 0.479044 0.308381
O32   O     O_3   0.062412 0.764376 0.488600 -0.756314
H92   H     H_    0.102025 0.800617 0.529434 0.326085

loop_
_geom_bond_atom_site_label_1
_geom_bond_atom_site_label_2
_geom_bond_distance
_ccdc_geom_bond_type
C42   C81   1.418269 S    
H46   C58   1.114678 S    
O30   H90   0.989973 S    
C54   H44   1.110802 S    
N18   N25   1.422383 A    
C118  H76   1.084897 S    
C78   H58   1.113241 S    
C91   C105  1.402624 A    
N28   Ni8   1.887651 S    
C89   C107  1.397235 A    
C101  C107  1.406220 A    
O18   H86   0.993400 S    
N14   Ni5   1.886817 S    
C91   H69   1.083686 S    
N39   O14   1.301352 A    
N36   O8    1.299810 A    
C119  H73   1.085445 S    
C93   H77   1.080319 S    
C25   C41   1.397244 A    
C100  C104  1.380051 A    
C30   H22   1.079089 S    
C27   C43   1.397016 A    
C4    N4    1.324220 A    
C59   C67   1.568186 S    
H45   C57   1.116036 S    
C92   C106  1.403121 A    
N1    N14   1.403480 A    
N33   O1    1.301083 A    
N3    N16   1.403480 A    
C54   H38   1.114226 S    
C87   C99   1.385430 A    
N4    N15   1.415252 A    
N34   O4    1.299811 A    
C9    H9    1.079319 S    
C11   H11   1.079136 S    
N10   Ni6   1.888032 S    
C12   H12   1.081735 S    
C64   N40   1.475225 S    
C101  C119  1.385081 A    
C105  C109  1.373393 A    
C23   C87   1.416966 S    
C58   C66   1.558204 S    
C8    H8    1.074469 S    
C76   N36   1.465339 S    
C88   C100  1.398454 A    
C5    N5    1.337916 A    
C53   H37   1.113617 S    
C72   C76   1.562127 S    
C92   H70   1.083573 S    
C49   C65   1.558869 S    
N21   Ni3   1.940193 S    
C13   N13   1.310773 A    
C15   N15   1.319528 A    
C78   H54   1.114357 S    
C85   C93   1.407552 A    
C16   N16   1.329636 A    
C26   C42   1.382289 A    
C36   N28   1.323809 A    
C25   H17   1.079794 S    
C51   H31   1.112962 S    
C27   H19   1.079910 S    
C28   H20   1.077746 S    
C28   N20   1.335370 A    
C74   N34   1.463457 S    
C61   C67   1.573208 S    
N44   O28   1.301559 A    
C13   C18   1.385864 A    
C77   H53   1.113196 S    
C62   C78   1.537209 S    
C79   H55   1.114515 S    
C63   C65   1.566913 S    
C47   C71   1.463823 S    
N11   Ni7   1.887646 S    
C34   O30   1.378020 S    
C90   C108  1.403086 A    
C102  C108  1.408317 A    
N27   Ni7   1.888123 S    
C33   C42   1.382402 A    
N7    N12   1.436832 A    
C35   C44   1.388929 A    
N37   O10   1.301369 A    
C69   C73   1.558138 S    
N12   Ni8   1.888032 S    
C29   N21   1.313907 A    
C74   H62   1.113795 S    
N17   Ni1   1.854716 S    
C31   N23   1.312573 A    
C36   O32   1.377994 S    
N31   Ni8   1.888560 S    
C82   C114  1.419822 A    
C29   C45   1.356105 A    
C43   C84   1.463267 S    
C112  H68   1.082721 S    
C61   C77   1.555583 S    
C64   C80   1.531877 S    
N16   Ni7   1.886817 S    
C104  C118  1.392715 A    
C98   H82   1.078295 S    
C40   H28   1.076935 S    
C63   C79   1.532643 S    
C39   C48   1.367741 A    
C116  N44   1.439076 S    
N37   O9    1.301602 A    
C50   H30   1.113960 S    
C59   C73   1.535296 S    
C27   N19   1.340339 A    
C102  C120  1.393008 A    
C69   C77   1.554549 S    
C54   C70   1.556509 S    
C88   C96   1.406519 A    
N41   O21   1.298855 A    
N18   Ni1   1.867307 S    
C79   H59   1.112529 S    
N26   Ni6   1.887651 S    
N2    N13   1.415252 A    
C77   H57   1.110668 S    
C91   C95   1.389874 A    
C34   C41   1.388998 A    
C3    N3    1.316966 A    
N42   O23   1.301548 A    
C86   C98   1.398206 A    
C45   C69   1.466445 S    
N6    Ni3   1.838543 S    
C7    C23   1.372316 A    
C8    C24   1.396558 A    
O31   H91   0.992086 S    
C53   H43   1.109992 S    
C56   H40   1.114215 S    
N22   N29   1.279913 A    
O29   H89   0.990288 S    
C53   C69   1.553182 S    
C61   N37   1.469496 S    
C59   O19   1.405389 S    
N40   O16   1.301475 A    
C10   H10   1.080189 S    
N24   N31   1.279913 A    
C72   C80   1.556637 S    
C33   O29   1.372961 S    
C22   C86   1.469781 S    
N38   O11   1.300582 A    
C95   H79   1.083126 S    
C103  C117  1.389762 A    
C63   N39   1.471527 S    
C16   C19   1.385641 A    
C5    H5    1.079583 S    
C6    N6    1.327293 A    
C32   N24   1.314693 A    
C73   N33   1.467906 S    
C90   C94   1.398008 A    
C32   H24   1.077283 S    
C51   C53   1.519710 S    
C81   C109  1.392179 A    
C50   C66   1.556258 S    
C111  H67   1.078976 S    
C13   H13   1.080369 S    
C49   C55   1.514802 S    
C14   N14   1.325981 A    
C109  H65   1.086101 S    
C39   H27   1.077089 S    
C16   H16   1.081318 S    
N15   Ni8   1.886826 S    
N43   O25   1.301336 A    
C103  C105  1.411047 A    
N20   N27   1.422383 A    
C97   C101  1.381786 A    
C39   N31   1.317813 A    
C21   C85   1.459100 S    
C33   N25   1.323196 A    
C80   H56   1.114616 S    
C9    N9    1.341575 A    
C51   H35   1.113706 S    
C26   H18   1.080767 S    
C35   N27   1.323946 A    
C24   C88   1.471242 S    
C60   C74   1.554031 S    
O20   H88   0.992824 S    
C44   C83   1.482110 S    
C84   C112  1.405030 A    
N17   N26   1.434302 A    
C14   C17   1.387910 A    
C20   C67   1.482462 S    
C7    H7    1.082463 S    
N19   N28   1.434302 A    
C62   H52   1.115875 S    
N24   Ni4   1.927552 S    
C1    H1    1.073922 S    
C63   H49   1.116226 S    
C58   O18   1.400249 S    
N20   Ni2   1.867307 S    
C3    H3    1.073998 S    
C46   C70   1.478262 S    
N43   O26   1.298649 A    
C18   C65   1.467187 S    
C56   H42   1.110478 S    
C52   C68   1.553459 S    
C120  H74   1.084862 S    
C94   H78   1.081809 S    
C70   C74   1.566333 S    
C29   H21   1.080277 S    
C71   C79   1.554952 S    
C4    H4    1.074789 S    
C80   H60   1.113183 S    
C113  N41   1.439822 S    
O17   H85   0.993072 S    
C117  H75   1.084990 S    
C113  C117  1.378570 A    
C100  H84   1.078458 S    
C38   H26   1.074917 S    
C5    C21   1.397003 A    
C84   C116  1.419268 A    
C64   H50   1.115734 S    
C36   C43   1.390023 A    
C17   C66   1.452944 S    
C1    N1    1.306733 A    
C9    C22   1.398816 A    
N35   O5    1.301062 A    
C92   C96   1.398455 A    
C3    C19   1.367628 A    
C11   C24   1.398771 A    
N5    N10   1.436832 A    
C34   N26   1.324057 A    
C56   C72   1.551969 S    
N36   O7    1.301928 A    
C55   H41   1.104001 S    
N23   N32   1.290460 A    
N7    Ni4   1.851001 S    
C70   C78   1.558325 S    
C55   C71   1.553699 S    
C87   C95   1.396063 A    
N9    Ni5   1.887646 S    
N29   Ni6   1.888560 S    
N33   O2    1.301119 A    
C89   H71   1.083953 S    
O32   H92   0.989815 S    
N34   O3    1.301734 A    
C86   C94   1.406236 A    
C57   C75   1.552051 S    
C58   C76   1.542691 S    
C37   C46   1.379327 A    
N2    Ni1   1.866671 S    
C25   N17   1.341892 A    
C52   H36   1.114344 S    
C41   C82   1.465391 S    
C32   C48   1.370499 A    
C11   N11   1.341961 A    
N3    Ni2   1.854551 S    
C40   C47   1.382056 A    
C115  C119  1.386358 A    
C12   N12   1.332288 A    
C60   C68   1.560197 S    
C107  C111  1.384161 A    
C115  N43   1.423145 S    
C30   N22   1.324135 A    
C6    H6    1.074497 S    
H48   C60   1.115358 S    
C96   H80   1.081744 S    
C75   N35   1.469275 S    
C114  N42   1.438571 S    
C83   C115  1.428757 A    
C30   C46   1.379282 A    
H47   C59   1.117283 S    
N30   Ni5   1.888714 S    
C81   C113  1.413813 A    
C4    C20   1.387488 A    
C52   C54   1.521177 S    
N42   O24   1.301530 A    
C14   H14   1.081366 S    
C55   H39   1.110530 S    
N44   O27   1.301584 A    
N35   O6    1.301003 A    
C99   H83   1.087119 S    
C97   H81   1.081398 S    
C57   O17   1.403280 S    
C38   C45   1.374436 A    
C49   H29   1.114344 S    
C62   N38   1.474371 S    
C26   N18   1.326445 A    
C75   H63   1.110124 S    
C108  C112  1.391216 A    
C76   H64   1.114976 S    
C2    C18   1.381374 A    
C57   C65   1.568429 S    
C7    N7    1.320723 A    
C15   C20   1.396797 A    
C8    N8    1.328560 A    
C62   C68   1.579501 S    
C37   H25   1.077417 S    
C2    H2    1.078017 S    
N25   Ni5   1.888123 S    
C12   C23   1.370594 A    
C10   N10   1.324427 A    
C114  C118  1.387260 A    
C83   C111  1.406524 A    
C19   C68   1.467800 S    
N8    N11   1.448862 A    
C90   H72   1.083577 S    
C50   C56   1.516623 S    
N38   O12   1.301466 A    
C15   H15   1.078987 S    
C85   C97   1.392994 A    
C106  C110  1.392440 A    
C99   C103  1.358639 A    
C37   N29   1.327488 A    
N8    Ni4   1.838543 S    
C71   C75   1.560921 S    
N4    Ni2   1.866671 S    
C28   C44   1.412870 A    
O19   H87   0.993258 S    
C60   O20   1.404531 S    
C31   C47   1.366922 A    
N21   N30   1.290460 A    
C61   H51   1.115139 S    
N1    Ni1   1.854551 S    
C6    C22   1.396223 A    
C64   C66   1.580860 S    
N41   O22   1.301706 A    
N23   Ni4   1.940193 S    
C2    N2    1.319830 A    
C10   C21   1.374231 A    
C116  C120  1.387085 A    
N13   Ni6   1.886826 S    
C40   N32   1.334634 A    
N6    N9    1.448862 A    
N32   Ni7   1.888714 S    
C51   C67   1.561473 S    
N22   Ni3   1.927552 S    
C48   C72   1.450261 S    
C73   H61   1.116494 S    
N39   O13   1.301527 A    
C31   H23   1.074177 S    
C35   O31   1.373873 S    
C49   H33   1.114563 S    
C89   C93   1.387845 A    
C82   C110  1.405434 A    
C110  H66   1.082726 S    
N40   O15   1.300882 A    
N5    Ni3   1.851001 S    
C104  C106  1.408482 A    
C98   C102  1.378961 A    
C50   H34   1.114466 S    
C1    C17   1.363143 A    
C38   N30   1.339538 A    
C52   H32   1.113911 S    
N19   Ni2   1.854716 S    
