data_mof_unit_28213.cif
_audit_creation_date              2012-10-26T19:04:25-0400
_audit_creation_method            fapswitch 2.2
_symmetry_space_group_name_H-M    P1
_symmetry_Int_Tables_number       1
_space_group_crystal_system       triclinic
_cell_length_a                    14.627356
_cell_length_b                    16.17101
_cell_length_c                    9.64676
_cell_angle_alpha                 89.761586
_cell_angle_beta                  90.132386
_cell_angle_gamma                 90.173411
_cell_volume                      2281.79989198

loop_
_atom_site_label
_atom_site_type_symbol
_atom_type_description
_atom_site_fract_x
_atom_site_fract_y
_atom_site_fract_z
_atom_type_partial_charge
C1    C     C_R   0.384222 0.878741 0.499762 0.563259
C2    C     C_R   0.687442 0.245083 0.386162 0.273038
C3    C     C_R   0.194027 0.260120 0.385631 0.279482
C4    C     C_R   0.187442 0.745083 0.386162 0.273038
C5    C     C_R   0.673778 0.803036 0.508681 0.045634
C6    C     C_R   0.671391 0.198564 0.508437 0.061009
C7    C     C_R   0.173778 0.303036 0.508681 0.045634
C8    C     C_R   0.171391 0.698564 0.508437 0.061009
C9    C     C_R   0.670356 0.990185 0.148115 0.434988
C10   C     C_R   0.170356 0.490185 0.148115 0.434988
C11   C     C_R   0.750613 0.973449 0.083149 0.535860
C12   C     C_R   0.385362 0.122042 0.499626 0.564164
C13   C     C_R   0.250613 0.473449 0.083149 0.535860
C14   C     C_R   0.755163 0.971966 0.944241 0.344279
C15   C     C_R   0.255163 0.471966 0.944241 0.344279
C16   C     C_R   0.677577 0.989925 0.861759 0.278456
C17   C     C_R   0.177576 0.489925 0.861759 0.278456
C18   C     C_R   0.585548 0.995024 0.926085 0.085399
C19   C     C_R   0.085548 0.495024 0.926085 0.085399
C20   C     C_R   0.583895 0.995457 0.076787 0.001065
C21   C     C_R   0.083895 0.495457 0.076787 0.001065
C22   C     C_R   0.421668 0.002730 0.073737 0.408755
C23   C     C_R   0.884222 0.378741 0.499762 0.563259
C24   C     C_R   0.921668 0.502730 0.073737 0.408755
C25   C     C_R   0.612121 0.124146 0.501465 0.620220
C26   C     C_R   0.613221 0.876499 0.501802 0.628811
C27   C     C_R   0.112121 0.624146 0.501465 0.620221
C28   C     C_R   0.113221 0.376499 0.501802 0.628811
C29   C     C_R   0.421105 0.003291 0.925330 0.372825
C30   C     C_R   0.921105 0.503291 0.925330 0.372825
C31   C     C_R   0.368520 0.243551 0.730455 0.381754
C32   C     C_R   0.372488 0.750556 0.719822 0.363539
C33   C     C_R   0.868520 0.743551 0.730455 0.381754
C34   C     C_R   0.885362 0.622042 0.499626 0.564164
C35   C     C_R   0.872488 0.250556 0.719822 0.363539
C36   C     C_R   0.339361 0.266288 0.862549 0.326295
C37   C     C_R   0.349355 0.723727 0.852756 0.273370
C38   C     C_R   0.839361 0.766289 0.862549 0.326295
C39   C     C_R   0.849355 0.223726 0.852756 0.273370
C40   C     C_R   0.747538 0.783869 0.883349 0.380386
C41   C     C_R   0.758974 0.199270 0.878528 0.303659
C42   C     C_R   0.247538 0.283869 0.883349 0.380386
C43   C     C_R   0.258974 0.699270 0.878528 0.303658
C44   C     C_R   0.689214 0.793986 0.770388 0.395321
C45   C     C_R   0.266732 0.204677 0.382577 -0.105549
C46   C     C_R   0.695464 0.196991 0.770223 0.390080
C47   C     C_R   0.189214 0.293986 0.770388 0.395321
C48   C     C_R   0.195464 0.696991 0.770223 0.390080
C49   C     C_R   0.721008 0.780093 0.633137 -0.126806
C50   C     C_R   0.721675 0.218027 0.632112 -0.131500
C51   C     C_R   0.221008 0.280093 0.633137 -0.126806
C52   C     C_R   0.221675 0.718027 0.632112 -0.131500
C53   C     C_R   0.305126 0.238481 0.620229 -0.103420
C54   C     C_R   0.305264 0.759693 0.616503 -0.127377
C55   C     C_R   0.805126 0.738481 0.620229 -0.103420
C56   C     C_R   0.260323 0.801891 0.385040 -0.151714
C57   C     C_R   0.805264 0.259693 0.616503 -0.127377
C58   C     C_R   0.322131 0.192618 0.498974 -0.014788
C59   C     C_R   0.318915 0.809581 0.498659 -0.017632
C60   C     C_R   0.822131 0.692619 0.498974 -0.014788
C61   C     C_R   0.818915 0.309581 0.498659 -0.017631
C62   C     C_3   0.778701 0.013330 0.666840 -0.042292
C63   C     C_3   0.278701 0.513330 0.666840 -0.042292
C64   C     C_3   0.279728 0.952681 0.866051 -0.070241
C65   C     C_3   0.779728 0.452681 0.866051 -0.070241
C66   C     C_3   0.408422 0.200399 0.042099 -0.004770
C67   C     C_R   0.766732 0.704677 0.382577 -0.105549
C68   C     C_3   0.391741 0.770517 0.069275 -0.029042
C69   C     C_3   0.908422 0.700399 0.042099 -0.004770
C70   C     C_3   0.891742 0.270518 0.069275 -0.029042
C71   C     C_3   0.578762 0.703646 0.259660 -0.057129
C72   C     C_3   0.615621 0.304943 0.193938 -0.033153
C73   C     C_3   0.078763 0.203646 0.259659 -0.057128
C74   C     C_3   0.115621 0.804943 0.193938 -0.033153
C75   C     C_R   0.760324 0.301891 0.385040 -0.151714
C76   C     C_R   0.694027 0.760120 0.385631 0.279483
Cu1   Cu    Cu3+1 0.499990 1.000000 0.640660 1.215327
Cu2   Cu    Cu3+1 0.999990 0.500000 0.640660 1.215327
Cu3   Cu    Cu3+1 0.500010 1.000000 0.359340 1.128289
Cu4   Cu    Cu3+1 0.000010 0.500000 0.359340 1.128289
F1    F     F_    0.838486 0.951961 0.892803 -0.606900
F2    F     F_    0.233023 0.674518 0.007149 -0.617541
F3    F     F_    0.600898 0.809204 0.800642 -0.517873
F4    F     F_    0.607509 0.183606 0.806804 -0.531717
F5    F     F_    0.100898 0.309204 0.800642 -0.517873
F6    F     F_    0.107509 0.683605 0.806804 -0.531717
F7    F     F_    0.341944 0.009814 0.143932 -0.663102
F8    F     F_    0.841944 0.509814 0.143932 -0.663102
F9    F     F_    0.687728 0.002590 0.281700 -0.573252
F10   F     F_    0.187728 0.502590 0.281700 -0.573252
F11   F     F_    0.828313 0.961404 0.158397 -0.517835
F12   F     F_    0.338486 0.451961 0.892803 -0.606900
F13   F     F_    0.328313 0.461404 0.158397 -0.517835
F14   F     F_    0.458748 0.232179 0.707380 -0.548245
F15   F     F_    0.461231 0.763753 0.688550 -0.545742
F16   F     F_    0.958748 0.732179 0.707380 -0.548245
F17   F     F_    0.961231 0.263753 0.688550 -0.545742
F18   F     F_    0.715804 0.796033 0.013416 -0.579434
F19   F     F_    0.733023 0.174518 0.007149 -0.617540
F20   F     F_    0.215804 0.296033 0.013416 -0.579434
H1    H     H_    0.277966 0.169508 0.288896 0.178189
H2    H     H_    0.272308 0.538596 0.560360 0.144269
H3    H     H_    0.245165 0.952331 0.968250 0.170298
H4    H     H_    0.313661 0.892686 0.847082 0.098116
H5    H     H_    0.225825 0.959652 0.785821 0.153646
H6    H     H_    0.745165 0.452331 0.968250 0.170298
H7    H     H_    0.813661 0.392686 0.847083 0.098115
H8    H     H_    0.725825 0.459651 0.785821 0.153646
H9    H     H_    0.464174 0.163684 0.995222 0.182150
H10   H     H_    0.343565 0.163992 0.045587 0.155182
H11   H     H_    0.427283 0.213150 0.151307 0.155468
H12   H     H_    0.272671 0.840071 0.294876 0.136915
H13   H     H_    0.336004 0.815659 0.048936 0.080494
H14   H     H_    0.451930 0.807421 0.102273 0.155252
H15   H     H_    0.371559 0.729451 0.156508 0.176210
H16   H     H_    0.964174 0.663684 0.995222 0.182150
H17   H     H_    0.843565 0.663992 0.045587 0.155183
H18   H     H_    0.927283 0.713150 0.151307 0.155468
H19   H     H_    0.836004 0.315658 0.048936 0.080494
H20   H     H_    0.951930 0.307422 0.102270 0.155252
H21   H     H_    0.871560 0.229452 0.156508 0.176209
H22   H     H_    0.518590 0.715984 0.326586 0.116358
H23   H     H_    0.777966 0.669508 0.288896 0.178189
H24   H     H_    0.609022 0.642557 0.287330 0.118263
H25   H     H_    0.555443 0.698057 0.150871 0.215612
H26   H     H_    0.673673 0.319445 0.124018 0.141440
H27   H     H_    0.599554 0.358146 0.262606 0.123473
H28   H     H_    0.555798 0.295267 0.125989 0.207881
H29   H     H_    0.018590 0.215984 0.326586 0.116358
H30   H     H_    0.109023 0.142558 0.287328 0.118263
H31   H     H_    0.055444 0.198057 0.150870 0.215612
H32   H     H_    0.173673 0.819446 0.124019 0.141439
H33   H     H_    0.099553 0.858145 0.262606 0.123474
H34   H     H_    0.772671 0.340072 0.294876 0.136915
H35   H     H_    0.055798 0.795267 0.125989 0.207881
H36   H     H_    0.814951 0.953517 0.655301 0.185683
H37   H     H_    0.818348 0.059466 0.727216 0.151507
H38   H     H_    0.772308 0.038596 0.560360 0.144269
H39   H     H_    0.314951 0.453517 0.655301 0.185684
H40   H     H_    0.318348 0.559466 0.727216 0.151507
N1    N     N_R   0.501200 1.000000 0.147910 -0.255290
N2    N     N_R   0.001200 0.500000 0.147910 -0.255290
N3    N     N_R   0.501270 1.000000 0.852040 -0.198850
N4    N     N_R   0.001270 0.500000 0.852040 -0.198850
O1    O     O_R   0.409820 0.909830 0.618810 -0.458569
O2    O     O_R   0.590170 0.909830 0.618760 -0.392714
O3    O     O_R   0.090170 0.590170 0.618760 -0.393770
O4    O     O_R   0.090170 0.409830 0.618760 -0.392714
O5    O     O_R   0.590190 0.090180 0.381190 -0.402299
O6    O     O_R   0.590190 0.909820 0.381190 -0.423907
O7    O     O_R   0.090190 0.590180 0.381190 -0.402299
O8    O     O_R   0.090190 0.409820 0.381190 -0.423907
O9    O     O_3   0.689831 0.000331 0.720755 -0.534268
O10   O     O_3   0.189831 0.500331 0.720755 -0.534268
O11   O     O_3   0.341025 0.019674 0.853684 -0.548073
O12   O     O_R   0.409820 0.090170 0.618810 -0.427629
O13   O     O_3   0.841025 0.519674 0.853684 -0.548073
O14   O     O_3   0.400641 0.275972 0.970186 -0.463514
O15   O     O_3   0.416665 0.721672 0.953999 -0.472351
O16   O     O_3   0.900641 0.775972 0.970186 -0.463514
O17   O     O_3   0.916665 0.221671 0.953998 -0.472351
O18   O     O_3   0.641351 0.770129 0.267891 -0.487146
O19   O     O_3   0.632459 0.231526 0.269867 -0.515004
O20   O     O_3   0.141351 0.270129 0.267891 -0.487146
O21   O     O_3   0.132459 0.731526 0.269867 -0.515004
O22   O     O_R   0.909820 0.409830 0.618810 -0.458569
O23   O     O_R   0.909820 0.590170 0.618810 -0.427629
O24   O     O_R   0.409840 0.909830 0.381240 -0.511108
O25   O     O_R   0.409840 0.090170 0.381240 -0.500127
O26   O     O_R   0.909840 0.409830 0.381240 -0.511108
O27   O     O_R   0.909840 0.590170 0.381240 -0.500127
O28   O     O_R   0.590170 0.090170 0.618760 -0.393770

loop_
_geom_bond_atom_site_label_1
_geom_bond_atom_site_label_2
_ccdc_geom_bond_type
C44   C49   A    
C33   C55   A    
C30   O13   S    
C73   H31   S    
C69   H16   S    
C19   N4    A    
C71   O18   S    
C74   H32   S    
Cu4   O7    S    
C63   H40   S    
C71   H22   S    
C36   C42   A    
Cu4   O26   S    
C4    C8    A    
C44   F3    S    
C75   H34   S    
C64   H5    S    
C39   C41   A    
C61   C75   A    
C64   O11   S    
Cu2   O23   S    
C72   H28   S    
C47   F5    S    
C18   N3    A    
C22   C29   A    
C21   N2    A    
C73   O20   S    
C3    C7    A    
C1    C59   S    
Cu1   O12   S    
C40   F18   S    
C11   C14   A    
Cu2   Cu4   S    
C6    C25   S    
C29   N3    A    
C74   H33   S    
C69   H18   S    
C69   O16   S    
C30   N4    A    
C4    O21   S    
C25   O5    A    
C62   H36   S    
C26   O2    A    
Cu2   N4    S    
C15   F12   S    
C76   O18   S    
C60   C67   A    
C24   N2    A    
C41   C46   A    
C41   F19   S    
Cu3   O24   S    
C39   O17   S    
C68   O15   S    
C43   C48   A    
C8    C52   A    
C65   H8    S    
C18   C20   A    
C36   O14   S    
C68   H13   S    
C29   O11   S    
C12   C58   S    
C66   H9    S    
C55   C60   A    
C4    C56   A    
C34   C60   S    
C5    C49   A    
C2    C6    A    
C33   F16   S    
C12   O12   A    
C63   H2    S    
C17   O10   S    
C32   C54   A    
C52   C54   A    
C40   C44   A    
C54   C59   A    
Cu1   Cu3   S    
C10   C21   A    
C73   H29   S    
C45   C58   A    
C28   O4    A    
Cu2   O22   S    
C72   H27   S    
C71   H24   S    
C26   O6    A    
C65   O13   S    
C70   H20   S    
C47   C51   A    
C1    O24   A    
C49   C55   A    
C3    C45   A    
C31   C53   A    
C7    C28   S    
C13   F13   S    
C51   C53   A    
C37   C43   A    
C35   C39   A    
Cu1   N3    S    
C42   F20   S    
C23   O22   A    
C24   F8    S    
C9    C20   A    
C23   C61   S    
C70   H19   S    
C74   H35   S    
C32   C37   A    
C66   H10   S    
C57   C61   A    
C9    C11   A    
C45   H1    S    
C3    O20   S    
Cu3   O6    S    
C46   F4    S    
Cu2   O3    S    
C25   O28   A    
C16   C18   A    
C62   H38   S    
C28   O8    A    
Cu4   N2    S    
C13   C15   A    
C66   H11   S    
C14   C16   A    
C1    O1    A    
C9    F9    S    
C34   O23   A    
C70   O17   S    
Cu1   O1    S    
C65   H6    S    
C66   O14   S    
Cu4   O8    S    
C73   H30   S    
C27   O7    A    
C6    C50   A    
C19   C21   A    
C50   C57   A    
C63   H39   S    
C20   N1    A    
C64   H4    S    
C63   O10   S    
C10   C13   A    
C22   F7    S    
C2    O19   S    
C53   C58   A    
C56   C59   A    
C15   C17   A    
C12   O25   A    
Cu2   O4    S    
C31   F14   S    
C46   C50   A    
C33   C38   A    
C14   F1    S    
C62   O9    S    
Cu3   O5    S    
C35   C57   A    
Cu3   O25   S    
C5    C76   A    
C38   O16   S    
C67   H23   S    
C38   C40   A    
C70   H21   S    
C37   O15   S    
Cu3   N1    S    
C23   O26   A    
Cu1   O28   S    
C22   N1    A    
C69   H17   S    
C17   C19   A    
C72   O19   S    
C65   H7    S    
C48   F6    S    
C42   C47   A    
C62   H37   S    
C64   H3    S    
C24   C30   A    
C2    C75   A    
C68   H15   S    
C7    C51   A    
C5    C26   S    
C11   F11   S    
C48   C52   A    
C32   F15   S    
C10   F10   S    
C27   O3    A    
C72   H26   S    
C16   O9    S    
C8    C27   S    
C31   C36   A    
C71   H25   S    
C67   C76   A    
Cu4   O27   S    
C35   F17   S    
Cu1   O2    S    
C56   H12   S    
C74   O21   S    
C34   O27   A    
C43   F2    S    
C68   H14   S    
