data_mof_unit_25934.cif
_audit_creation_date              2012-12-11T16:19:04-0500
_audit_creation_method            fapswitch 2.2
_symmetry_space_group_name_H-M    P1
_symmetry_Int_Tables_number       1
_space_group_crystal_system       triclinic
_cell_length_a                    6.936205
_cell_length_b                    31.335689
_cell_length_c                    34.965924
_cell_angle_alpha                 90.0
_cell_angle_beta                  89.999819
_cell_angle_gamma                 89.999977
_cell_volume                      7599.87025058

loop_
_atom_site_label
_atom_site_type_symbol
_atom_type_description
_atom_site_fract_x
_atom_site_fract_y
_atom_site_fract_z
_atom_type_partial_charge
O1    O     O_R   0.417270 0.211480 0.210950 -0.537350
O2    O     O_R   0.582730 0.788520 0.789050 -0.537350
O3    O     O_R   0.582730 0.788520 0.710950 -0.537350
O4    O     O_R   0.417270 0.211480 0.289050 -0.537350
O5    O     O_R   0.917270 0.288520 0.289050 -0.537350
O6    O     O_R   0.082730 0.711480 0.710950 -0.537350
O7    O     O_R   0.082730 0.711480 0.789050 -0.537350
O8    O     O_R   0.917270 0.288520 0.210950 -0.537350
O9    O     O_R   0.746940 0.206370 0.288750 -0.541671
O10   O     O_R   0.253060 0.793630 0.711250 -0.541671
O11   O     O_R   0.253060 0.793630 0.788750 -0.541671
O12   O     O_R   0.746940 0.206370 0.211250 -0.541671
O13   O     O_R   0.246940 0.293630 0.211250 -0.541671
O14   O     O_R   0.753060 0.706370 0.788750 -0.541671
O15   O     O_R   0.753060 0.706370 0.711250 -0.541670
O16   O     O_R   0.246940 0.293630 0.288750 -0.541671
C1    C     C_R   0.578007 0.196009 0.302035 0.713330
C2    C     C_R   0.421993 0.803991 0.697965 0.713329
C3    C     C_R   0.421993 0.803991 0.802035 0.713329
C4    C     C_R   0.578007 0.196009 0.197965 0.713329
C5    C     C_R   0.078007 0.303991 0.197965 0.713329
C6    C     C_R   0.921993 0.696009 0.802035 0.713329
C7    C     C_R   0.921993 0.696009 0.697965 0.713329
C8    C     C_R   0.078007 0.303991 0.302035 0.713330
O17   O     O_3   0.583760 0.276950 0.250000 -0.367113
O18   O     O_3   0.416240 0.723050 0.750000 -0.367113
O19   O     O_3   0.083760 0.223050 0.250000 -0.367113
O20   O     O_3   0.916240 0.776950 0.750000 -0.367113
V1    V     V_3+5 0.858600 0.245000 0.250000 1.417788
V2    V     V_3+5 0.141400 0.755000 0.750000 1.417788
V3    V     V_3+5 0.358600 0.255000 0.250000 1.417788
V4    V     V_3+5 0.641400 0.745000 0.750000 1.417788
C9    C     C_R   0.898288 0.584505 0.539472 0.608254
C10   C     C_R   0.101712 0.415495 0.460528 0.608255
C11   C     C_R   0.101718 0.415495 0.039472 0.608254
C12   C     C_R   0.898282 0.584505 0.960528 0.608254
C13   C     C_R   0.398271 0.915496 0.960527 0.608251
C14   C     C_R   0.601728 0.084504 0.039473 0.608252
C15   C     C_R   0.601718 0.084504 0.460528 0.608254
C16   C     C_R   0.398282 0.915495 0.539472 0.608253
N1    N     N_R   0.965533 0.573626 0.575048 -0.564613
N2    N     N_R   0.034467 0.426374 0.424952 -0.564613
N3    N     N_R   0.034469 0.426374 0.075048 -0.564613
N4    N     N_R   0.965531 0.573626 0.924952 -0.564613
N5    N     N_R   0.465532 0.926374 0.924952 -0.564613
N6    N     N_R   0.534468 0.073626 0.075048 -0.564613
N7    N     N_R   0.534467 0.073626 0.424952 -0.564613
N8    N     N_R   0.465533 0.926374 0.575048 -0.564613
C17   C     C_R   0.046093 0.534339 0.581670 0.576873
C18   C     C_R   0.953907 0.465661 0.418330 0.576873
C19   C     C_R   0.953903 0.465660 0.081670 0.576872
C20   C     C_R   0.046097 0.534339 0.918330 0.576873
C21   C     C_R   0.546110 0.965659 0.918331 0.576872
C22   C     C_R   0.453890 0.034341 0.081669 0.576873
C23   C     C_R   0.453900 0.034340 0.418330 0.576873
C24   C     C_R   0.546100 0.965660 0.581670 0.576873
C25   C     C_R   0.061646 0.504200 0.551884 -0.027701
C26   C     C_R   0.938353 0.495800 0.448116 -0.027701
C27   C     C_R   0.938349 0.495799 0.051884 -0.027700
C28   C     C_R   0.061651 0.504201 0.948116 -0.027700
C29   C     C_R   0.561664 0.995798 0.948117 -0.027699
C30   C     C_R   0.438335 0.004202 0.051883 -0.027699
C31   C     C_R   0.438346 0.004201 0.448116 -0.027700
C32   C     C_R   0.561654 0.995799 0.551884 -0.027700
C33   C     C_R   0.992783 0.514887 0.515210 -0.014006
C34   C     C_R   0.007217 0.485113 0.484790 -0.014006
C35   C     C_R   0.007217 0.485113 0.015210 -0.014006
C36   C     C_R   0.992783 0.514887 0.984790 -0.014006
C37   C     C_R   0.492783 0.985113 0.984790 -0.014007
C38   C     C_R   0.507216 0.014887 0.015210 -0.014007
C39   C     C_R   0.507217 0.014887 0.484790 -0.014007
C40   C     C_R   0.492783 0.985113 0.515210 -0.014007
C41   C     C_R   0.909806 0.555308 0.508874 -0.036936
C42   C     C_R   0.090194 0.444692 0.491126 -0.036937
C43   C     C_R   0.090200 0.444692 0.008874 -0.036936
C44   C     C_R   0.909800 0.555307 0.991126 -0.036936
C45   C     C_R   0.409787 0.944694 0.991125 -0.036936
C46   C     C_R   0.590212 0.055306 0.008875 -0.036936
C47   C     C_R   0.590202 0.055307 0.491126 -0.036936
C48   C     C_R   0.409798 0.944693 0.508874 -0.036935
C49   C     C_R   0.144596 0.463792 0.557837 -0.135976
C50   C     C_R   0.855404 0.536208 0.442163 -0.135976
C51   C     C_R   0.855394 0.536207 0.057837 -0.135975
C52   C     C_R   0.144606 0.463793 0.942163 -0.135976
C53   C     C_R   0.644632 0.036205 0.942164 -0.135976
C54   C     C_R   0.355368 0.963795 0.057835 -0.135977
C55   C     C_R   0.355390 0.963793 0.442163 -0.135976
C56   C     C_R   0.644610 0.036207 0.557836 -0.135975
C57   C     C_R   0.158619 0.434408 0.527846 -0.128762
C58   C     C_R   0.841380 0.565592 0.472154 -0.128762
C59   C     C_R   0.841370 0.565591 0.027846 -0.128763
C60   C     C_R   0.158630 0.434409 0.972154 -0.128762
C61   C     C_R   0.658655 0.065589 0.972155 -0.128764
C62   C     C_R   0.341344 0.934411 0.027844 -0.128763
C63   C     C_R   0.341366 0.934409 0.472155 -0.128762
C64   C     C_R   0.658634 0.065591 0.527845 -0.128762
O21   O     O_2   0.821904 0.623545 0.533631 -0.496061
O22   O     O_2   0.178096 0.376455 0.466369 -0.496061
O23   O     O_2   0.178107 0.376455 0.033631 -0.496061
O24   O     O_2   0.821893 0.623544 0.966368 -0.496061
O25   O     O_2   0.321872 0.876457 0.966368 -0.496060
O26   O     O_2   0.678127 0.123543 0.033632 -0.496060
O27   O     O_2   0.678109 0.123544 0.466368 -0.496060
O28   O     O_2   0.321891 0.876456 0.533632 -0.496060
O29   O     O_2   0.111560 0.524513 0.616915 -0.517897
O30   O     O_2   0.888440 0.475487 0.383085 -0.517897
O31   O     O_2   0.888431 0.475486 0.116914 -0.517897
O32   O     O_2   0.111569 0.524514 0.883086 -0.517897
O33   O     O_2   0.611594 0.975483 0.883087 -0.517898
O34   O     O_2   0.388406 0.024517 0.116913 -0.517898
O35   O     O_2   0.388425 0.024515 0.383086 -0.517897
O36   O     O_2   0.611574 0.975485 0.616914 -0.517897
H1    H     H_    0.198988 0.454712 0.585706 0.175022
H2    H     H_    0.801012 0.545288 0.414294 0.175023
H3    H     H_    0.800998 0.545286 0.085706 0.175022
H4    H     H_    0.199002 0.454714 0.914294 0.175022
H5    H     H_    0.699038 0.045283 0.914296 0.175022
H6    H     H_    0.300961 0.954717 0.085704 0.175022
H7    H     H_    0.300992 0.954714 0.414294 0.175022
H8    H     H_    0.699008 0.045286 0.585705 0.175022
H9    H     H_    0.223256 0.403598 0.533553 0.178190
H10   H     H_    0.776744 0.596402 0.466446 0.178190
H11   H     H_    0.776729 0.596401 0.033553 0.178190
H12   H     H_    0.223272 0.403599 0.966447 0.178190
H13   H     H_    0.723306 0.096397 0.966449 0.178190
H14   H     H_    0.276693 0.903603 0.033551 0.178190
H15   H     H_    0.276724 0.903600 0.466447 0.178190
H16   H     H_    0.723276 0.096400 0.533552 0.178190
C65   C     C_R   0.210739 0.392888 0.371506 -0.066653
C66   C     C_R   0.789261 0.607112 0.628494 -0.066653
C67   C     C_R   0.789260 0.607112 0.871507 -0.066653
C68   C     C_R   0.210740 0.392888 0.128493 -0.066653
C69   C     C_R   0.710741 0.107112 0.128493 -0.066654
C70   C     C_R   0.289260 0.892888 0.871507 -0.066655
C71   C     C_R   0.289260 0.892888 0.628493 -0.066654
C72   C     C_R   0.710739 0.107112 0.371507 -0.066654
H17   H     H_    0.331252 0.413975 0.376987 0.138858
H18   H     H_    0.668748 0.586025 0.623013 0.138858
H19   H     H_    0.668747 0.586025 0.876988 0.138859
H20   H     H_    0.331253 0.413975 0.123012 0.138859
H21   H     H_    0.831253 0.086026 0.123012 0.138860
H22   H     H_    0.168747 0.913975 0.876988 0.138860
H23   H     H_    0.168747 0.913974 0.623013 0.138859
H24   H     H_    0.831252 0.086025 0.376987 0.138859
C73   C     C_R   0.222906 0.362985 0.341790 -0.192766
C74   C     C_R   0.777094 0.637015 0.658210 -0.192765
C75   C     C_R   0.777093 0.637015 0.841790 -0.192766
C76   C     C_R   0.222907 0.362985 0.158210 -0.192766
C77   C     C_R   0.722907 0.137016 0.158210 -0.192765
C78   C     C_R   0.277093 0.862985 0.841790 -0.192766
C79   C     C_R   0.277094 0.862985 0.658210 -0.192766
C80   C     C_R   0.722906 0.137015 0.341790 -0.192765
H25   H     H_    0.353661 0.361536 0.324912 0.136340
H26   H     H_    0.646339 0.638464 0.675088 0.136339
H27   H     H_    0.646338 0.638464 0.824912 0.136340
H28   H     H_    0.353661 0.361536 0.175088 0.136340
H29   H     H_    0.853662 0.138464 0.175087 0.136340
H30   H     H_    0.146339 0.861536 0.824912 0.136340
H31   H     H_    0.146339 0.861536 0.675088 0.136340
H32   H     H_    0.853661 0.138464 0.324912 0.136340
C81   C     C_R   0.066928 0.335728 0.333661 -0.063759
C82   C     C_R   0.933072 0.664272 0.666339 -0.063759
C83   C     C_R   0.933071 0.664272 0.833661 -0.063759
C84   C     C_R   0.066929 0.335728 0.166339 -0.063759
C85   C     C_R   0.566929 0.164272 0.166339 -0.063759
C86   C     C_R   0.433070 0.835728 0.833661 -0.063759
C87   C     C_R   0.433071 0.835728 0.666339 -0.063759
C88   C     C_R   0.566928 0.164272 0.333661 -0.063759
C89   C     C_R   0.899572 0.338745 0.356327 -0.219416
C90   C     C_R   0.100428 0.661255 0.643673 -0.219415
C91   C     C_R   0.100426 0.661255 0.856327 -0.219415
C92   C     C_R   0.899573 0.338745 0.143673 -0.219415
C93   C     C_R   0.399573 0.161255 0.143673 -0.219415
C94   C     C_R   0.600426 0.838745 0.856327 -0.219416
C95   C     C_R   0.600428 0.838745 0.643673 -0.219415
C96   C     C_R   0.399572 0.161255 0.356327 -0.219415
H33   H     H_    0.778340 0.317753 0.350908 0.133736
H34   H     H_    0.221660 0.682247 0.649092 0.133736
H35   H     H_    0.221658 0.682248 0.850908 0.133736
H36   H     H_    0.778341 0.317752 0.149092 0.133736
H37   H     H_    0.278341 0.182247 0.149092 0.133736
H38   H     H_    0.721657 0.817752 0.850908 0.133736
H39   H     H_    0.721660 0.817753 0.649092 0.133736
H40   H     H_    0.278340 0.182247 0.350908 0.133736
C97   C     C_R   0.888558 0.368094 0.386582 -0.017032
C98   C     C_R   0.111442 0.631906 0.613417 -0.017032
C99   C     C_R   0.111440 0.631906 0.886582 -0.017032
C100  C     C_R   0.888560 0.368094 0.113418 -0.017032
C101  C     C_R   0.388559 0.131906 0.113418 -0.017032
C102  C     C_R   0.611440 0.868094 0.886583 -0.017032
C103  C     C_R   0.611442 0.868094 0.613417 -0.017032
C104  C     C_R   0.388558 0.131906 0.386582 -0.017032
C105  C     C_R   0.044353 0.395622 0.394188 0.344435
C106  C     C_R   0.955647 0.604378 0.605812 0.344435
C107  C     C_R   0.955645 0.604378 0.894188 0.344435
C108  C     C_R   0.044355 0.395621 0.105812 0.344435
C109  C     C_R   0.544354 0.104379 0.105812 0.344434
C110  C     C_R   0.455645 0.895621 0.894188 0.344434
C111  C     C_R   0.455647 0.895622 0.605812 0.344434
C112  C     C_R   0.544353 0.104378 0.394188 0.344434
C113  C     C_1   0.718166 0.369128 0.410165 0.319213
N9    N     N_1   0.582048 0.369923 0.429269 -0.288994
C114  C     C_1   0.281834 0.630872 0.589835 0.319213
N10   N     N_1   0.417952 0.630077 0.570731 -0.288994
C115  C     C_1   0.281832 0.630872 0.910165 0.319212
N11   N     N_1   0.417949 0.630078 0.929269 -0.288991
C116  C     C_1   0.718168 0.369128 0.089835 0.319212
N12   N     N_1   0.582051 0.369922 0.070731 -0.288991
C117  C     C_1   0.218167 0.130873 0.089835 0.319212
N13   N     N_1   0.082050 0.130078 0.070731 -0.288985
C118  C     C_1   0.781830 0.869127 0.910166 0.319212
N14   N     N_1   0.917947 0.869921 0.929269 -0.288983
C119  C     C_1   0.781834 0.869128 0.589835 0.319213
N15   N     N_1   0.917952 0.869923 0.570731 -0.288990
C120  C     C_1   0.218166 0.130872 0.410165 0.319213
N16   N     N_1   0.082048 0.130077 0.429269 -0.288989

loop_
_geom_bond_atom_site_label_1
_geom_bond_atom_site_label_2
_ccdc_geom_bond_type
O17   V3    S    
C114  N10   T    
C56   C64   A    
C100  C116  S    
O18   V4    S    
O12   V1    S    
O19   V1    S    
C113  N9    T    
C37   C45   A    
C8    C81   S    
C10   N2    A    
C120  N16   T    
C94   H38   S    
C80   H32   S    
C33   C41   A    
O15   V4    S    
C29   C37   A    
C119  N15   T    
O16   V3    S    
C4    C85   S    
C74   C82   A    
C22   O34   S    
C57   H9    S    
C20   C28   A    
C90   H34   S    
O8    V1    S    
C42   C57   A    
O2    V4    S    
C27   C51   A    
C41   C58   A    
C60   H12   S    
C95   C103  A    
C72   H24   S    
C79   C87   A    
C66   C74   A    
C96   C104  A    
C38   C46   A    
C46   C61   A    
C97   C113  S    
C34   C42   A    
C45   C62   A    
O1    V3    S    
C40   C48   A    
C17   C25   A    
C64   H16   S    
O3    C2    A    
C16   N8    A    
C89   H33   S    
C10   C42   A    
C101  C109  A    
C54   C62   A    
C27   C35   A    
C21   C29   A    
C26   C34   A    
C78   H30   S    
C68   H20   S    
O11   V2    S    
N4    C107  S    
C23   C31   A    
C104  C112  A    
C24   C32   A    
C67   C75   A    
C3    C86   S    
C56   H8    S    
C11   N3    A    
C89   C97   A    
C104  C120  S    
C65   C73   A    
N6    C22   A    
O9    V1    S    
C7    C82   S    
C99   C107  A    
C92   H36   S    
O15   C7    A    
N7    C23   A    
C93   H37   S    
C49   C57   A    
O16   C8    A    
O7    V2    S    
C59   H11   S    
C12   C44   A    
O12   C4    A    
C58   H10   S    
C30   C38   A    
C91   H35   S    
O3    V4    S    
C53   C61   A    
C19   O31   S    
C11   O23   S    
N1    C17   A    
C80   C88   A    
C98   C106  A    
C117  N13   T    
C19   C27   A    
O5    V1    S    
C62   H14   S    
O17   V1    S    
C16   O28   S    
C86   C94   A    
C78   C86   A    
C14   N6    A    
N8    C111  S    
O19   V3    S    
C35   C36   A    
C76   C84   A    
C51   H3    S    
O20   V4    S    
C77   C85   A    
C50   H2    S    
C54   H6    S    
C97   C105  A    
C96   H40   S    
N6    C109  S    
C17   O29   S    
C14   C46   A    
N5    C110  S    
C115  N11   T    
C13   C45   A    
C93   C101  A    
C39   C47   A    
C116  N12   T    
C55   C63   A    
N3    C108  S    
C68   C76   A    
N2    C105  S    
C102  C118  S    
C55   H7    S    
N1    C106  S    
C70   H22   S    
C30   C54   A    
O10   V2    S    
C52   C60   A    
C118  N14   T    
C82   C90   A    
C103  C111  A    
O11   C3    A    
C90   C98   A    
C16   C48   A    
O8    C5    A    
C18   C26   A    
C69   C77   A    
C12   O24   S    
O9    C1    A    
C48   C63   A    
C53   H5    S    
C28   C36   A    
C31   C39   A    
C29   C53   A    
C43   C60   A    
C94   C102  A    
C88   C96   A    
O4    C1    A    
C9    C41   A    
O6    V2    S    
N2    C18   A    
O18   V2    S    
C74   H26   S    
C25   C49   A    
N7    C112  S    
C12   N4    A    
C23   O35   S    
C35   C43   A    
C13   N5    A    
C66   H18   S    
C71   C111  A    
C83   C91   A    
C102  C110  A    
C15   N7    A    
C21   O33   S    
C73   H25   S    
N8    C24   A    
C84   C92   A    
O1    C4    A    
C69   C109  A    
C70   C110  A    
C31   C55   A    
O2    C3    A    
C95   H39   S    
O13   V3    S    
C67   C107  A    
C11   C43   A    
C25   C33   A    
C66   C106  A    
C1    C88   S    
N4    C20   A    
C103  C119  S    
C65   C105  A    
C99   C115  S    
C15   O27   S    
C75   H27   S    
C36   C44   A    
O7    C6    A    
C51   C59   A    
C69   H21   S    
C50   C58   A    
C91   C99   A    
C79   H31   S    
C9    N1    A    
O14   C6    A    
C26   C50   A    
C81   C89   A    
C39   C40   A    
C14   O26   S    
C75   C83   A    
O13   C5    A    
C13   O25   S    
C6    C83   S    
C28   C52   A    
N3    C19   A    
O5    C8    A    
C73   C81   A    
O10   C2    A    
C71   C79   A    
O6    C7    A    
O20   V2    S    
C71   H23   S    
C10   O22   S    
C32   C56   A    
C98   C114  S    
C87   C95   A    
C9    O21   S    
C32   C40   A    
C37   C38   A    
C61   H13   S    
C72   C112  A    
O4    V3    S    
C67   H19   S    
C44   C59   A    
N5    C21   A    
C63   H15   S    
C47   C64   A    
C2    C87   S    
C65   H17   S    
C100  C108  A    
C52   H4    S    
C33   C34   A    
C49   H1    S    
C18   O30   S    
C22   C30   A    
C20   O32   S    
C101  C117  S    
C76   H28   S    
C77   H29   S    
C72   C80   A    
C85   C93   A    
O14   V4    S    
C24   O36   S    
C68   C108  A    
C92   C100  A    
C15   C47   A    
C5    C84   S    
C70   C78   A    
