data_mof_unit_8810.cif
_audit_creation_date              2012-12-10T19:44:32-0500
_audit_creation_method            fapswitch 2.2
_symmetry_space_group_name_H-M    P1
_symmetry_Int_Tables_number       1
_space_group_crystal_system       triclinic
_cell_length_a                    8.568667
_cell_length_b                    14.979358
_cell_length_c                    14.194407
_cell_angle_alpha                 89.903992
_cell_angle_beta                  98.88041
_cell_angle_gamma                 89.79105
_cell_volume                      1800.04037286

loop_
_atom_site_label
_atom_site_type_symbol
_atom_type_description
_atom_site_fract_x
_atom_site_fract_y
_atom_site_fract_z
_atom_type_partial_charge
C1    C     C_R   0.502506 0.328294 0.500311 0.922388
C2    C     C_R   0.453886 0.418456 0.888578 -0.086304
C3    C     C_R   0.511372 0.493270 0.054281 0.070283
C4    C     C_R   0.508529 0.492306 0.947414 0.041463
C5    C     C_R   0.201014 0.500517 0.475010 0.975810
C6    C     C_R   0.798981 0.501430 0.525029 1.010634
C7    C     C_2   0.035766 0.501649 0.461657 -0.334608
C8    C     C_2   0.964313 0.502594 0.538510 -0.315062
C9    C     C_R   0.350571 0.100130 0.511414 -0.131707
C10   C     C_R   0.534469 0.905876 0.422501 -0.158360
C11   C     C_R   0.362198 0.191850 0.515473 -0.209863
C12   C     C_R   0.492207 0.672185 0.499252 0.879687
C13   C     C_R   0.538507 0.814055 0.425362 -0.189057
C14   C     C_R   0.502110 0.233099 0.500493 -0.093209
C15   C     C_R   0.475571 0.768223 0.496819 -0.104480
C16   C     C_R   0.634486 0.183143 0.482501 -0.036968
C17   C     C_R   0.400955 0.815283 0.564245 -0.025732
C18   C     C_R   0.621373 0.090710 0.480156 -0.200785
C19   C     C_R   0.404323 0.908040 0.562889 -0.213380
C20   C     C_R   0.480312 0.049491 0.494071 0.087801
C21   C     C_R   0.471259 0.953010 0.492590 0.094489
C22   C     C_2   0.787781 0.223702 0.468231 0.895670
C23   C     C_R   0.370979 0.477102 0.090840 -0.348929
C24   C     C_2   0.312867 0.771367 0.633707 0.956705
C25   C     C_3   0.191791 0.365664 0.206050 0.111734
C26   C     C_3   0.060812 0.338978 0.261518 -0.750488
C27   C     C_3   0.779056 0.637124 0.764780 0.142976
C28   C     C_3   0.866953 0.697224 0.841603 -0.836526
C29   C     C_2   0.806567 0.526050 0.091325 0.887980
C30   C     C_2   0.408636 0.331983 0.928009 0.916118
C31   C     C_R   0.556340 0.568841 0.902463 -0.302440
C32   C     C_R   0.368534 0.476256 0.190127 0.615384
C33   C     C_R   0.557729 0.570466 0.803454 0.640679
C34   C     C_R   0.637156 0.518887 0.218849 -0.151596
C35   C     C_R   0.447631 0.425725 0.788519 -0.137361
C36   C     C_R   0.648707 0.513532 0.120541 -0.086305
H1    H     H_    0.973518 0.501007 0.388885 0.188101
H2    H     H_    0.595222 0.627131 0.944540 0.166059
H3    H     H_    0.740548 0.535579 0.269203 0.192261
H4    H     H_    0.405331 0.370243 0.743117 0.203256
H5    H     H_    0.996516 0.207587 0.420868 0.333822
H6    H     H_    0.254130 0.771571 0.765970 0.339670
H7    H     H_    0.295181 0.320891 0.228770 0.152066
H8    H     H_    0.147912 0.355494 0.128910 0.164035
H9    H     H_    0.956679 0.383449 0.242421 0.261031
H10   H     H_    0.024745 0.269044 0.244246 0.220269
H11   H     H_    0.103320 0.343774 0.339270 0.235931
H12   H     H_    0.026677 0.503406 0.611345 0.180335
H13   H     H_    0.806566 0.660141 0.694768 0.174549
H14   H     H_    0.825967 0.567469 0.775084 0.139544
H15   H     H_    0.852346 0.672624 0.913476 0.256375
H16   H     H_    0.994871 0.697123 0.836180 0.219425
H17   H     H_    0.821200 0.766655 0.832262 0.276079
H18   H     H_    0.023161 0.581118 0.120767 0.359926
H19   H     H_    0.282645 0.218334 0.905519 0.353726
H20   H     H_    0.240334 0.068843 0.521072 0.155126
H21   H     H_    0.583519 0.940191 0.366583 0.150425
H22   H     H_    0.261111 0.231028 0.528604 0.147382
H23   H     H_    0.593840 0.778903 0.372485 0.171161
H24   H     H_    0.722347 0.050209 0.469698 0.178906
H25   H     H_    0.353715 0.945409 0.616217 0.171115
H26   H     H_    0.263171 0.464052 0.042186 0.164377
N1    N     N_R   0.500000 0.499980 0.252470 -0.133376
N2    N     N_R   0.500000 0.500020 0.747530 -0.150958
O1    O     O_R   0.500010 0.369070 0.579480 -0.623092
O2    O     O_R   0.896005 0.173591 0.425669 -0.817261
O3    O     O_2   0.229483 0.706636 0.609974 -0.642147
O4    O     O_R   0.319933 0.806698 0.725381 -0.787631
O5    O     O_3   0.230634 0.456206 0.224628 -0.593751
O6    O     O_3   0.613791 0.645146 0.762837 -0.601484
O7    O     O_2   0.839231 0.489671 0.019770 -0.628157
O8    O     O_R   0.920473 0.577582 0.147751 -0.799542
O9    O     O_2   0.465807 0.308583 0.008583 -0.623483
O10   O     O_R   0.303491 0.275561 0.871378 -0.805975
O11   O     O_R   0.499990 0.630930 0.420520 -0.627659
O12   O     O_R   0.500010 0.369060 0.420520 -0.611225
O13   O     O_R   0.499990 0.630940 0.579480 -0.566441
O14   O     O_R   0.271750 0.500000 0.560890 -0.603710
O15   O     O_R   0.728250 0.500000 0.439110 -0.621175
O16   O     O_R   0.271750 0.499990 0.401930 -0.564618
O17   O     O_R   0.728250 0.500010 0.598070 -0.642235
O18   O     O_2   0.821678 0.299621 0.494997 -0.652191
Zn1   Zn    Zn3+2 0.500000 0.500010 0.606140 1.002191
Zn2   Zn    Zn3+2 0.500000 0.499990 0.393860 1.002328

loop_
_geom_bond_atom_site_label_1
_geom_bond_atom_site_label_2
_ccdc_geom_bond_type
C2    C35   A    
C3    C23   A    
O16   Zn2   S    
O12   Zn2   S    
C7    C8    D    
C29   C36   S    
C22   O18   D    
C19   C21   A    
O15   Zn2   S    
C30   O10   S    
C28   H15   S    
O11   Zn2   S    
O1    Zn1   S    
O13   Zn1   S    
C22   O2    S    
C26   H9    S    
H19   O10   S    
O14   Zn1   S    
C23   H26   S    
C1    O1    A    
C31   C33   A    
C35   N2    A    
C11   H22   S    
C18   C20   A    
C24   O3    D    
C27   H14   S    
C29   O8    S    
C6    O17   A    
H6    O4    S    
C25   H7    S    
C25   H8    S    
O17   Zn1   S    
C10   C21   A    
C17   C24   S    
C34   H3    S    
C10   H21   S    
C11   C14   A    
C5    C7    S    
C30   O9    D    
C26   H10   S    
C6    C8    S    
C25   C26   S    
C2    C4    A    
C8    H12   S    
N2    Zn1   S    
C9    C20   A    
C12   C15   S    
C12   O13   A    
C7    H1    S    
C9    H20   S    
C5    O16   A    
C9    C11   A    
H5    O2    S    
C27   O6    S    
C33   O6    S    
C26   H11   S    
C18   H24   S    
C13   C15   A    
C14   C16   A    
C25   O5    S    
C3    C4    S    
C15   C17   A    
C16   C22   S    
C1    O12   A    
C32   N1    A    
C10   C13   A    
C28   H17   S    
C32   O5    S    
C13   H23   S    
C31   H2    S    
N1    Zn2   S    
C2    C30   S    
C23   C32   A    
C35   H4    S    
C28   H16   S    
C6    O15   A    
C3    C36   A    
C19   H25   S    
C33   N2    A    
C34   N1    A    
C17   C19   A    
C34   C36   A    
C4    C31   A    
C24   O4    S    
H18   O8    S    
C20   C21   S    
C16   C18   A    
C12   O11   A    
C27   C28   S    
C1    C14   S    
C5    O14   A    
C27   H13   S    
C29   O7    D    
