data_mof_unit_26227.cif
_audit_creation_date              2012-10-26T18:33:36-0400
_audit_creation_method            fapswitch 2.2
_symmetry_space_group_name_H-M    P1
_symmetry_Int_Tables_number       1
_space_group_crystal_system       triclinic
_cell_length_a                    15.123018
_cell_length_b                    13.775059
_cell_length_c                    10.877184
_cell_angle_alpha                 89.05799
_cell_angle_beta                  84.398354
_cell_angle_gamma                 91.766226
_cell_volume                      2253.61698804

loop_
_atom_site_label
_atom_site_type_symbol
_atom_type_description
_atom_site_fract_x
_atom_site_fract_y
_atom_site_fract_z
_atom_type_partial_charge
C1    C     C_R   0.328170 0.498855 0.501216 0.558613
C2    C     C_R   0.026662 0.360575 0.624358 -0.111332
C3    C     C_R   0.082994 0.427921 0.553396 0.007457
C4    C     C_R   0.506224 0.500776 0.259825 0.540837
C5    C     C_R   0.047991 0.488009 0.465411 0.052604
C6    C     C_R   0.105324 0.549963 0.388025 0.005070
C7    C     C_R   0.069853 0.610820 0.302945 -0.117995
C8    C     C_R   0.977624 0.616576 0.300025 -0.013679
C9    C     C_R   0.172004 0.441582 0.575913 -0.024645
C10   C     C_R   0.231369 0.496481 0.492199 -0.004530
C11   C     C_R   0.197336 0.550099 0.397500 -0.128989
C12   C     C_3   0.601592 0.530828 0.909337 -0.063745
C13   C     C_R   0.447172 0.791320 0.587676 0.121584
C14   C     C_R   0.450673 0.202829 0.590856 0.112322
C15   C     C_R   0.554108 0.796602 0.413774 0.046067
C16   C     C_R   0.553870 0.209298 0.413000 0.034259
C17   C     C_R   0.556990 0.899554 0.413301 -0.003539
C18   C     C_R   0.556978 0.106387 0.413107 -0.007590
C19   C     C_R   0.671687 0.501422 0.491281 0.553882
C20   C     C_R   0.508622 0.948291 0.509410 0.034756
C21   C     C_R   0.508987 0.051733 0.509698 0.036312
C22   C     C_R   0.457770 0.893462 0.603004 -0.046184
C23   C     C_R   0.823347 0.568435 0.399151 -0.016496
C24   C     C_R   0.459800 0.100510 0.604863 -0.049915
C25   C     C_R   0.607142 0.954710 0.319567 -0.111300
C26   C     C_R   0.606986 0.056948 0.319332 -0.127143
C27   C     C_R   0.421797 0.045110 0.709904 -0.039556
C28   C     C_R   0.420065 0.942478 0.708392 -0.035846
C29   C     C_R   0.498026 0.499353 0.740785 0.551621
C30   C     C_3   0.431204 0.559958 0.084428 -0.248268
C31   C     C_3   0.501741 0.395690 0.075091 -0.251146
C32   C     C_3   0.438483 0.575793 0.943336 -0.140305
C33   C     C_3   0.479530 0.395818 0.939983 -0.137622
C34   C     C_R   0.769520 0.502184 0.477742 -0.010261
C35   C     C_3   0.600657 0.548603 0.055769 -0.046840
C36   C     C_3   0.511152 0.501924 0.121702 -0.021539
C37   C     C_3   0.503023 0.499810 0.879135 -0.024560
C38   C     C_1   0.190451 0.425361 0.701268 0.245403
C39   C     C_1   0.949202 0.678617 0.203940 0.230300
C40   C     C_1   0.367335 0.742653 0.642988 0.266182
C41   C     C_1   0.376809 0.246964 0.655657 0.265030
C42   C     C_1   0.392645 0.091517 0.825142 0.213696
C43   C     C_1   0.387753 0.888582 0.820839 0.219254
C44   C     C_1   0.347947 0.576051 0.905532 0.229609
C45   C     C_R   0.808570 0.429207 0.541384 -0.122260
C46   C     C_1   0.385608 0.364113 0.942542 0.227491
C47   C     C_1   0.606032 0.653858 0.083430 0.219454
C48   C     C_1   0.678236 0.506348 0.108489 0.202388
C49   C     C_1   0.636598 0.618227 0.835895 0.221579
C50   C     C_1   0.663324 0.453395 0.867509 0.193375
C51   C     C_1   0.781377 0.646107 0.338454 0.243399
C52   C     C_R   0.899832 0.425313 0.538417 0.016870
C53   C     C_R   0.955150 0.490346 0.461390 0.044368
C54   C     C_R   0.917843 0.559454 0.384739 -0.002433
C55   C     C_R   0.936129 0.358257 0.615150 -0.109957
Cu1   Cu    Cu3+1 0.499990 0.597420 0.500010 1.004804
Cu2   Cu    Cu3+1 0.499990 0.402580 0.500010 0.981118
H1    H     H_    0.427814 0.632177 0.128797 0.152178
H2    H     H_    0.368586 0.519198 0.119300 0.136735
H3    H     H_    0.450499 0.352467 0.135490 0.161454
H4    H     H_    0.466763 0.650229 0.921133 0.147210
H5    H     H_    0.518837 0.339210 0.889984 0.145894
H6    H     H_    0.767181 0.377193 0.598731 0.159296
H7    H     H_    0.893999 0.307103 0.672834 0.139135
H8    H     H_    0.564624 0.357060 0.082228 0.134855
H9    H     H_    0.052419 0.310427 0.688781 0.143876
H10   H     H_    0.242190 0.594578 0.334340 0.122102
H11   H     H_    0.114395 0.655728 0.239748 0.133109
H12   H     H_    0.592308 0.758423 0.342576 0.172745
H13   H     H_    0.592971 0.251869 0.341503 0.129622
H14   H     H_    0.645622 0.918774 0.245422 0.157332
H15   H     H_    0.645230 0.097334 0.244895 0.123140
N1    N     N_R   0.499930 0.743810 0.499950 -0.260921
N2    N     N_1   0.312079 0.337392 0.953060 -0.198220
N3    N     N_1   0.609895 0.736133 0.102945 -0.289050
N4    N     N_1   0.738570 0.472919 0.149285 -0.287514
N5    N     N_1   0.663925 0.686195 0.778750 -0.242005
N6    N     N_1   0.711311 0.392809 0.835956 -0.308769
N7    N     N_1   0.748720 0.708878 0.289644 -0.281479
N8    N     N_R   0.499930 0.256190 0.499950 -0.258150
N9    N     N_1   0.198406 0.412428 0.804537 -0.204327
N10   N     N_1   0.927390 0.728266 0.126208 -0.231750
N11   N     N_1   0.300943 0.706483 0.684743 -0.251972
N12   N     N_1   0.314811 0.278869 0.707405 -0.259315
N13   N     N_1   0.369643 0.127255 0.917857 -0.253123
N14   N     N_1   0.362279 0.846009 0.910643 -0.268630
N15   N     N_1   0.275406 0.578269 0.881242 -0.214800
O1    O     O_R   0.370250 0.582280 0.500040 -0.495627
O2    O     O_R   0.370250 0.417720 0.500040 -0.489893
O3    O     O_R   0.499970 0.582270 0.317700 -0.512724
O4    O     O_R   0.499970 0.417730 0.317700 -0.519537
O5    O     O_R   0.629730 0.582260 0.499980 -0.484238
O6    O     O_R   0.629730 0.417740 0.499980 -0.507295
O7    O     O_R   0.500000 0.582270 0.682320 -0.497423
O8    O     O_R   0.500000 0.417730 0.682320 -0.503948

loop_
_geom_bond_atom_site_label_1
_geom_bond_atom_site_label_2
_ccdc_geom_bond_type
C4    C36   S    
C18   C21   A    
C26   H15   S    
C48   N4    T    
C35   C36   S    
C18   C26   A    
C24   C27   A    
C35   C47   S    
C12   C49   S    
C7    C8    A    
C53   C54   A    
Cu1   O7    S    
Cu2   O2    S    
C5    C53   A    
C32   H4    S    
C2    C55   A    
C29   O7    A    
Cu1   O1    S    
C17   C20   A    
Cu1   Cu2   S    
C31   H8    S    
C14   C24   A    
C12   C37   S    
C13   C40   S    
C19   O5    A    
C7    H11   S    
C33   H5    S    
C31   C33   S    
C25   H14   S    
C8    C39   S    
C14   N8    A    
C44   N15   T    
C9    C10   A    
C19   O6    A    
C52   C55   A    
C4    O4    A    
C1    O1    A    
Cu1   O3    S    
Cu2   N8    S    
C22   C28   A    
C30   H2    S    
C33   C46   S    
C40   N11   T    
C35   C48   S    
C50   N6    T    
C11   H10   S    
C4    O3    A    
C15   H12   S    
C16   H13   S    
C8    C54   A    
C6    C11   A    
C29   O8    A    
C45   C52   A    
C3    C5    A    
C25   C26   A    
C41   N12   T    
C45   H6    S    
C33   C37   S    
C16   N8    A    
C31   H3    S    
C3    C9    A    
C23   C51   S    
C23   C34   A    
C55   H7    S    
C32   C44   S    
C42   N13   T    
C32   C37   S    
C12   C35   S    
C34   C45   A    
C14   C41   S    
C15   N1    A    
C13   N1    A    
C38   N9    T    
C46   N2    T    
C52   C53   A    
C23   C54   A    
C15   C17   A    
C1    O2    A    
Cu1   N1    S    
Cu2   O4    S    
C43   N14   T    
C1    C10   S    
C39   N10   T    
C20   C22   A    
C2    H9    S    
C19   C34   S    
C12   C50   S    
C6    C7    A    
C28   C43   S    
C30   C36   S    
C17   C25   A    
C2    C3    A    
C47   N3    T    
C30   C32   S    
C27   C42   S    
C5    C6    A    
C30   H1    S    
C9    C38   S    
C49   N5    T    
C13   C22   A    
C51   N7    T    
C10   C11   A    
Cu1   O5    S    
C20   C21   A    
C16   C18   A    
Cu2   O8    S    
C21   C24   A    
C29   C37   S    
C27   C28   A    
C31   C36   S    
Cu2   O6    S    
