data_mof_unit_57607.cif
_audit_creation_date              2012-12-10T18:17:26-0500
_audit_creation_method            fapswitch 2.2
_symmetry_space_group_name_H-M    P1
_symmetry_Int_Tables_number       1
_space_group_crystal_system       triclinic
_cell_length_a                    20.277661
_cell_length_b                    21.695178
_cell_length_c                    14.304872
_cell_angle_alpha                 90.006265
_cell_angle_beta                  90.242996
_cell_angle_gamma                 89.997767
_cell_volume                      6293.04943501

loop_
_atom_site_label
_atom_site_type_symbol
_atom_type_description
_atom_site_fract_x
_atom_site_fract_y
_atom_site_fract_z
_atom_type_partial_charge
C1    C     C_R   0.086396 0.413864 0.500179 0.877826
C2    C     C_R   0.051723 0.473656 0.198935 0.429115
C3    C     C_R   0.359731 0.302085 0.466615 -0.186985
C4    C     C_R   0.052044 0.474100 0.801362 0.421623
C5    C     C_R   0.948605 0.526703 0.198085 0.380901
C6    C     C_R   0.448245 0.973713 0.801051 0.429036
C7    C     C_R   0.551966 0.025882 0.199156 0.421701
C8    C     C_R   0.551420 0.026656 0.801921 0.381598
C9    C     C_R   0.447939 0.974128 0.198632 0.421594
C10   C     C_R   0.046159 0.465281 0.900048 -0.094597
C11   C     C_R   0.954661 0.535386 0.099393 -0.084113
C12   C     C_R   0.954152 0.534854 0.899513 -0.095270
C13   C     C_R   0.913470 0.586026 0.499974 0.884721
C14   C     C_R   0.045826 0.464976 0.100069 -0.097012
C15   C     C_R   0.545372 0.035344 0.900616 -0.084317
C16   C     C_R   0.453811 0.965315 0.099938 -0.094602
C17   C     C_R   0.454135 0.965022 0.899913 -0.096947
C18   C     C_R   0.545871 0.034822 0.100497 -0.095256
C19   C     C_R   0.000169 0.500069 0.949703 0.031051
C20   C     C_R   0.000200 0.500111 0.049815 0.030517
C21   C     C_R   0.499799 0.000111 0.950181 0.030463
C22   C     C_R   0.499828 0.000069 0.050295 0.031060
C23   C     C_R   0.086381 0.424250 0.951329 -0.075085
C24   C     C_R   0.913583 0.413824 0.499990 0.882809
C25   C     C_R   0.914738 0.576649 0.047969 -0.070315
C26   C     C_R   0.914187 0.576129 0.950207 -0.078545
C27   C     C_R   0.086036 0.423942 0.049139 -0.073822
C28   C     C_R   0.585324 0.076579 0.952054 -0.070292
C29   C     C_R   0.413554 0.924317 0.048635 -0.075117
C30   C     C_R   0.413888 0.924022 0.950825 -0.073760
C31   C     C_R   0.585867 0.076067 0.049815 -0.078534
C32   C     C_R   0.113645 0.693984 0.518637 -0.255703
C33   C     C_R   0.884645 0.307644 0.530295 -0.246454
C34   C     C_R   0.884338 0.691984 0.530513 -0.211244
C35   C     C_R   0.086310 0.586245 0.500193 0.880692
C36   C     C_R   0.113688 0.306151 0.517876 -0.220557
C37   C     C_R   0.615695 0.191953 0.469313 -0.211257
C38   C     C_R   0.386178 0.806258 0.481115 -0.220069
C39   C     C_R   0.386459 0.194062 0.482358 -0.255930
C40   C     C_R   0.615321 0.807611 0.469870 -0.246501
C41   C     C_R   0.134001 0.633905 0.500828 -0.011871
C42   C     C_R   0.865899 0.366113 0.500344 -0.021845
C43   C     C_R   0.865704 0.633582 0.500271 0.005613
C44   C     C_R   0.134108 0.366275 0.500783 0.028067
C45   C     C_R   0.634296 0.133586 0.499742 0.005353
C46   C     C_R   0.586414 0.913822 0.500003 0.882887
C47   C     C_R   0.365867 0.866294 0.499176 0.026992
C48   C     C_R   0.366002 0.133899 0.499217 -0.011518
C49   C     C_R   0.634100 0.866115 0.499631 -0.021667
C50   C     C_R   0.199596 0.618976 0.484043 -0.190714
C51   C     C_R   0.801742 0.379506 0.472173 -0.240788
C52   C     C_R   0.801687 0.620154 0.471470 -0.146957
C53   C     C_R   0.199750 0.381317 0.484657 -0.151827
C54   C     C_R   0.698287 0.120187 0.528698 -0.147053
C55   C     C_R   0.300320 0.881255 0.516229 -0.151669
C56   C     C_R   0.300318 0.118883 0.515108 -0.190873
C57   C     C_R   0.413691 0.086243 0.499818 0.880826
C58   C     C_R   0.698291 0.879544 0.527595 -0.240557
C59   C     C_R   0.246493 0.665319 0.483239 0.111298
C60   C     C_R   0.755010 0.333071 0.471239 0.116463
C61   C     C_R   0.754801 0.666487 0.471070 0.104498
C62   C     C_R   0.246697 0.335011 0.484117 0.117339
C63   C     C_R   0.745172 0.166519 0.529091 0.104427
C64   C     C_R   0.253379 0.834949 0.516794 0.116939
C65   C     C_R   0.253407 0.165222 0.515868 0.111441
C66   C     C_R   0.745026 0.833109 0.528533 0.116436
C67   C     C_R   0.226544 0.726676 0.500314 0.060672
C68   C     C_R   0.413592 0.913873 0.499811 0.877951
C69   C     C_R   0.773468 0.273259 0.500257 0.066253
C70   C     C_R   0.773177 0.726273 0.500372 0.056535
C71   C     C_R   0.226687 0.273584 0.500460 0.058599
C72   C     C_R   0.726827 0.226272 0.499606 0.056529
C73   C     C_R   0.273293 0.773605 0.499519 0.058544
C74   C     C_R   0.273446 0.226661 0.499705 0.060617
C75   C     C_R   0.726535 0.773263 0.499710 0.066231
C76   C     C_R   0.159808 0.741029 0.518316 0.130687
C77   C     C_R   0.838561 0.260553 0.530219 0.128597
C78   C     C_R   0.838272 0.739031 0.530279 0.129876
C79   C     C_R   0.586530 0.086027 0.500031 0.884679
C80   C     C_R   0.159854 0.259136 0.517544 0.130689
C81   C     C_R   0.661763 0.238996 0.469525 0.129855
C82   C     C_R   0.340019 0.759242 0.481469 0.130564
C83   C     C_R   0.340287 0.241102 0.482666 0.130783
C84   C     C_R   0.661408 0.760521 0.469936 0.128640
C85   C     C_R   0.312694 0.651425 0.465591 -0.189823
C86   C     C_R   0.690414 0.345391 0.441852 -0.192183
C87   C     C_R   0.690191 0.654166 0.441745 -0.170260
C88   C     C_R   0.312992 0.348984 0.467369 -0.181164
C89   C     C_R   0.809750 0.154229 0.558591 -0.170269
C90   C     C_R   0.948049 0.525913 0.800852 0.421686
C91   C     C_R   0.187187 0.848838 0.534490 -0.180887
C92   C     C_R   0.187103 0.151246 0.532574 -0.189932
C93   C     C_R   0.809654 0.845462 0.557738 -0.192253
C94   C     C_R   0.856400 0.201197 0.559154 -0.194744
C95   C     C_R   0.140458 0.801934 0.535279 -0.187108
C96   C     C_R   0.140394 0.198157 0.533525 -0.184244
C97   C     C_R   0.856193 0.798433 0.558821 -0.187177
C98   C     C_R   0.359388 0.698342 0.464586 -0.184253
C99   C     C_R   0.643874 0.298364 0.440788 -0.187271
C100  C     C_R   0.643540 0.701134 0.441183 -0.194653
H1    H     H_    0.062052 0.703812 0.531915 0.123147
H2    H     H_    0.788204 0.426038 0.452382 0.159213
H3    H     H_    0.788642 0.573783 0.449954 0.172256
H4    H     H_    0.213946 0.428879 0.473006 0.115650
H5    H     H_    0.711319 0.073838 0.550333 0.172505
H6    H     H_    0.286189 0.928756 0.528574 0.117209
H7    H     H_    0.285990 0.071292 0.526072 0.128722
H8    H     H_    0.711846 0.926099 0.547235 0.158840
H9    H     H_    0.328212 0.604421 0.452455 0.149954
H10   H     H_    0.676053 0.391227 0.419550 0.157732
H11   H     H_    0.675885 0.608364 0.419221 0.160140
H12   H     H_    0.935009 0.299031 0.552688 0.126527
H13   H     H_    0.328557 0.396039 0.454787 0.149633
H14   H     H_    0.824033 0.108451 0.581257 0.160166
H15   H     H_    0.171696 0.895829 0.547789 0.149775
H16   H     H_    0.171513 0.104181 0.545010 0.149828
H17   H     H_    0.824040 0.891322 0.579888 0.157611
H18   H     H_    0.906272 0.191201 0.582107 0.151215
H19   H     H_    0.089338 0.813188 0.549059 0.149507
H20   H     H_    0.089192 0.186841 0.546576 0.148720
H21   H     H_    0.906086 0.808452 0.581656 0.150263
H22   H     H_    0.410508 0.687090 0.450801 0.148739
H23   H     H_    0.934656 0.700595 0.553115 0.121901
H24   H     H_    0.594005 0.308359 0.417815 0.150348
H25   H     H_    0.593643 0.691113 0.418373 0.151156
H26   H     H_    0.410933 0.313405 0.453571 0.149507
H27   H     H_    0.118286 0.391692 0.916414 0.204961
H28   H     H_    0.883499 0.609829 0.082752 0.206208
H29   H     H_    0.882355 0.608721 0.914858 0.205103
H30   H     H_    0.117648 0.391102 0.084358 0.205470
H31   H     H_    0.616589 0.109737 0.917286 0.206264
H32   H     H_    0.381630 0.891776 0.083531 0.204999
H33   H     H_    0.382240 0.891217 0.915591 0.205495
H34   H     H_    0.062037 0.296267 0.530578 0.115514
H35   H     H_    0.617719 0.108641 0.085171 0.205125
H36   H     H_    0.805406 0.513170 0.637597 0.360099
H37   H     H_    0.200953 0.500824 0.342139 0.352685
H38   H     H_    0.195457 0.488231 0.641351 0.357201
H39   H     H_    0.835664 0.456435 0.302866 0.358455
H40   H     H_    0.298969 0.001560 0.658411 0.352855
H41   H     H_    0.694601 0.013133 0.362437 0.360098
H42   H     H_    0.664914 0.956576 0.696981 0.358566
H43   H     H_    0.304575 0.988162 0.358777 0.357184
H44   H     H_    0.565399 0.200542 0.446579 0.122098
H45   H     H_    0.437749 0.796435 0.467687 0.115812
H46   H     H_    0.438129 0.203954 0.469795 0.122956
H47   H     H_    0.564931 0.798975 0.447631 0.126351
H48   H     H_    0.213880 0.571443 0.472465 0.129097
N1    N     N_R   1.000000 0.500000 0.750030 -0.210400
N2    N     N_R   1.000000 0.500000 0.249970 -0.209475
N3    N     N_R   0.500000 0.000000 0.750030 -0.209451
N4    N     N_R   0.500000 0.000000 0.249970 -0.210429
O1    O     O_R   0.066090 0.433930 0.580280 -0.558482
O2    O     O_R   0.433910 0.066070 0.419720 -0.571251
O3    O     O_R   0.433910 0.066070 0.580280 -0.567801
O4    O     O_R   0.566090 0.933930 0.419720 -0.565287
O5    O     O_R   0.433910 0.933930 0.419720 -0.558572
O6    O     O_R   0.566090 0.066070 0.580280 -0.539230
O7    O     O_R   0.566090 0.066070 0.419720 -0.561367
O8    O     O_R   0.433910 0.933930 0.580280 -0.545430
O9    O     O_2   0.816604 0.528727 0.826740 -0.283609
O10   O     O_2   0.863473 0.607396 0.725287 -0.326223
O11   O     O_3   0.847313 0.495883 0.661945 -0.518535
O12   O     O_R   0.933910 0.566070 0.419720 -0.539219
O13   O     O_2   0.136455 0.392344 0.275023 -0.312248
O14   O     O_2   0.182955 0.470416 0.172123 -0.301446
O15   O     O_3   0.152392 0.504252 0.336577 -0.540493
O16   O     O_2   0.183570 0.470939 0.828198 -0.284669
O17   O     O_2   0.136262 0.392544 0.726020 -0.323129
O18   O     O_3   0.152464 0.504169 0.663406 -0.523212
O19   O     O_2   0.865395 0.608441 0.274884 -0.285421
O20   O     O_2   0.816888 0.532786 0.169949 -0.304308
O21   O     O_3   0.847798 0.495990 0.333012 -0.557189
O22   O     O_2   0.363409 0.892485 0.724989 -0.312016
O23   O     O_R   0.933910 0.566070 0.580280 -0.561388
O24   O     O_2   0.317018 0.970635 0.827872 -0.301924
O25   O     O_3   0.347604 0.004392 0.663377 -0.540814
O26   O     O_2   0.683415 0.028632 0.173288 -0.283637
O27   O     O_2   0.636569 0.107347 0.274714 -0.326211
O28   O     O_3   0.652692 0.995849 0.338089 -0.518536
O29   O     O_2   0.634631 0.108401 0.725202 -0.285605
O30   O     O_2   0.683139 0.032687 0.830015 -0.304743
O31   O     O_3   0.652217 0.995987 0.666881 -0.557399
O32   O     O_2   0.316405 0.970987 0.171849 -0.284655
O33   O     O_2   0.363737 0.892557 0.273920 -0.323183
O34   O     O_R   0.066090 0.433930 0.419720 -0.545504
O35   O     O_3   0.347527 0.004157 0.336664 -0.523213
O36   O     O_R   0.933910 0.433930 0.419720 -0.605293
O37   O     O_R   0.066090 0.566070 0.580280 -0.571271
O38   O     O_R   0.066090 0.566070 0.419720 -0.567781
O39   O     O_R   0.933910 0.433930 0.580280 -0.565206
O40   O     O_R   0.566090 0.933930 0.580280 -0.604713
S1    S     S_3+6 0.867680 0.540658 0.752968 0.047407
S2    S     S_3+6 0.132087 0.458881 0.246402 0.039705
S3    S     S_3+6 0.132264 0.459230 0.754039 0.047109
S4    S     S_3+6 0.868522 0.542220 0.244465 0.032199
S5    S     S_3+6 0.367862 0.959025 0.753577 0.039473
S6    S     S_3+6 0.632339 0.040604 0.247051 0.047418
S7    S     S_3+6 0.631498 0.042166 0.755520 0.032071
S8    S     S_3+6 0.367725 0.959252 0.245975 0.047143
Zn1   Zn    Zn3+2 1.000000 0.500000 0.607200 1.085607
Zn2   Zn    Zn3+2 1.000000 0.500000 0.392800 1.078854
Zn3   Zn    Zn3+2 0.500000 0.000000 0.607200 1.079096
Zn4   Zn    Zn3+2 0.500000 0.000000 0.392800 1.085593

loop_
_geom_bond_atom_site_label_1
_geom_bond_atom_site_label_2
_ccdc_geom_bond_type
C61   C70   A    
C2    N2    A    
C4    S3    S    
C52   H3    S    
C35   C41   S    
C34   H23   S    
C17   C30   A    
C37   H44   S    
C93   C97   A    
C65   C92   A    
H41   O28   S    
C24   C42   S    
C40   C84   A    
C69   C77   A    
C19   C20   A    
C92   C96   A    
O24   S5    D    
O13   S2    D    
O8    Zn3   S    
O7    Zn4   S    
C3    H26   S    
C48   C57   S    
O17   S3    D    
C1    O34   A    
C51   H2    S    
C4    N1    A    
C57   O3    A    
C46   C49   S    
C50   C59   A    
C12   C90   A    
C86   H10   S    
C9    C16   A    
C5    C11   A    
C85   H9    S    
C52   C61   A    
C76   C95   A    
C79   O7    A    
O18   S3    S    
O3    Zn3   S    
C75   C84   A    
C29   H32   S    
C70   C78   A    
C54   C63   A    
C11   C25   A    
C53   H4    S    
C56   C65   A    
C77   C94   A    
C88   H13   S    
O34   Zn2   S    
H37   O15   S    
C13   O23   A    
C5    N2    A    
C89   C94   A    
C9    N4    A    
C97   H21   S    
C85   C98   A    
C61   C87   A    
C59   C67   A    
C44   C53   A    
C58   C66   A    
O32   S8    D    
O16   S3    D    
C32   C41   A    
C67   C73   A    
C23   C27   A    
C14   C27   A    
C80   C96   A    
C74   C83   A    
C72   C81   A    
C48   C56   A    
C9    S8    S    
C42   C51   A    
C30   H33   S    
H42   O31   S    
O26   S6    D    
C78   C97   A    
C35   O37   A    
O25   S5    S    
C21   C22   A    
C38   C82   A    
O6    Zn3   S    
C82   C98   A    
C37   C81   A    
C93   H17   S    
C79   O6    A    
C90   N1    A    
C2    C14   A    
C36   C44   A    
C71   C80   A    
C96   H20   S    
O1    Zn1   S    
C11   C20   A    
O30   S7    D    
C55   H6    S    
C100  H25   S    
C84   C100  A    
C14   C20   A    
C8    N3    A    
O28   S6    S    
O23   Zn1   S    
C99   H24   S    
C31   H35   S    
C36   C80   A    
N3    Zn3   S    
O5    Zn4   S    
C60   C86   A    
O38   Zn2   S    
C81   C99   A    
C95   H19   S    
C25   C26   A    
C62   C88   A    
C17   C21   A    
C49   C58   A    
C12   C26   A    
C2    S2    S    
C69   C72   A    
C59   C85   A    
C56   H7    S    
C29   C30   A    
C6    S5    S    
C53   C62   A    
C1    C44   S    
C10   C19   A    
C64   C73   A    
C7    C18   A    
C55   C64   A    
C63   C89   A    
O21   S4    S    
H40   O25   S    
O9    S1    D    
C45   C79   S    
C33   H12   S    
C73   C82   A    
C1    O1    A    
C86   C99   A    
C92   H16   S    
O10   S1    D    
C38   C47   A    
C26   H29   S    
O12   Zn2   S    
C66   C93   A    
C6    N3    A    
C39   H46   S    
C45   C54   A    
C35   O38   A    
C5    S4    S    
C3    C83   A    
O15   S2    S    
H39   O21   S    
C51   C60   A    
N2    Zn2   S    
C4    C10   A    
C68   O5    A    
O29   S7    D    
N1    Zn1   S    
C41   C50   A    
C13   C43   S    
C47   C68   S    
C13   O12   A    
C47   C55   A    
C87   C100  A    
C50   H48   S    
C98   H22   S    
C6    C17   A    
C33   C42   A    
C89   H14   S    
O22   S5    D    
C16   C22   A    
C40   H47   S    
C3    C88   A    
C18   C22   A    
C38   H45   S    
H43   O35   S    
C25   H28   S    
C28   C31   A    
C34   C43   A    
O14   S2    D    
C46   O40   A    
O19   S4    D    
C36   H34   S    
C32   C76   A    
C71   C74   A    
O2    Zn4   S    
C18   C31   A    
O27   S6    D    
C10   C23   A    
C8    C15   A    
C46   O4    A    
C57   O2    A    
C23   H27   S    
O35   S8    S    
C24   O36   A    
C28   H31   S    
O37   Zn1   S    
C7    S6    S    
C16   C29   A    
C39   C83   A    
C34   C78   A    
C94   H18   S    
C33   C77   A    
C15   C28   A    
C90   S1    S    
C60   C69   A    
C54   H5    S    
C66   C75   A    
C12   C19   A    
O36   Zn2   S    
O40   Zn3   S    
C91   H15   S    
C62   C71   A    
C24   O39   A    
C58   H8    S    
O33   S8    D    
C43   C52   A    
O31   S7    S    
O20   S4    D    
C65   C74   A    
C91   C95   A    
C7    N4    A    
C15   C21   A    
C87   H11   S    
C63   C72   A    
C70   C75   A    
C27   H30   S    
O11   S1    S    
C32   H1    S    
N4    Zn4   S    
C8    S7    S    
C67   C76   A    
O39   Zn1   S    
C64   C91   A    
H38   O18   S    
C68   O8    A    
C37   C45   A    
C40   C49   A    
C39   C48   A    
H36   O11   S    
O4    Zn4   S    
