data_mof_unit_12496.cif
_audit_creation_date              2012-12-10T19:58:50-0500
_audit_creation_method            fapswitch 2.2
_symmetry_space_group_name_H-M    P1
_symmetry_Int_Tables_number       1
_space_group_crystal_system       triclinic
_cell_length_a                    18.374396
_cell_length_b                    18.374191
_cell_length_c                    22.426877
_cell_angle_alpha                 89.979819
_cell_angle_beta                  90.006491
_cell_angle_gamma                 90.102934
_cell_volume                      7571.62975277

loop_
_atom_site_label
_atom_site_type_symbol
_atom_type_description
_atom_site_fract_x
_atom_site_fract_y
_atom_site_fract_z
_atom_type_partial_charge
C1    C     C_R   0.499982 0.000005 0.340066 0.499314
C2    C     C_R   0.859458 0.639903 0.500803 0.551253
C3    C     C_3   0.294674 0.912501 0.308726 -0.357196
C4    C     C_3   0.199555 0.343681 0.321431 0.016998
C5    C     C_3   0.128270 0.324621 0.290790 -0.362086
C6    C     C_3   0.741984 0.122250 0.334586 0.001812
C7    C     C_3   0.793306 0.057925 0.328620 -0.352075
C8    C     C_3   0.168012 0.691798 0.322204 0.005523
C9    C     C_3   0.107878 0.737927 0.295123 -0.362497
C10   C     C_3   0.676446 0.817298 0.321056 0.013819
C11   C     C_3   0.704512 0.889095 0.296295 -0.365332
C12   C     C_3   0.881394 0.272394 0.336629 -0.007017
C13   C     C_R   0.360805 0.858860 0.501413 0.554900
C14   C     C_3   0.955632 0.236319 0.333457 -0.349902
C15   C     C_3   0.339739 0.188893 0.325265 0.004344
C16   C     C_3   0.304083 0.126904 0.291056 -0.364707
C17   C     C_3   0.302015 0.157544 0.821644 0.016673
C18   C     C_3   0.373353 0.177447 0.791428 -0.362138
C19   C     C_3   0.761197 0.378593 0.834886 -0.000581
C20   C     C_3   0.713727 0.445882 0.829424 -0.351452
C21   C     C_3   0.677479 0.834616 0.826788 0.005048
C22   C     C_3   0.604601 0.808175 0.802991 -0.358716
C23   C     C_3   0.177068 0.663839 0.827308 0.003280
C24   C     C_R   0.140940 0.360533 0.501369 0.552834
C25   C     C_3   0.203826 0.588882 0.808956 -0.357191
C26   C     C_3   0.619062 0.229917 0.836298 -0.005828
C27   C     C_3   0.545928 0.268124 0.832642 -0.350004
C28   C     C_3   0.160220 0.310984 0.824848 0.004838
C29   C     C_3   0.195272 0.373450 0.790781 -0.364121
C30   C     C_3   0.329558 0.806437 0.821563 0.007343
C31   C     C_3   0.392272 0.762147 0.796419 -0.359327
C32   C     C_3   0.829821 0.686975 0.821188 0.014103
C33   C     C_3   0.806468 0.614635 0.794503 -0.364066
C34   C     C_3   0.708371 0.851324 0.641519 0.009721
C35   C     C_R   0.359882 0.140341 0.500630 0.548824
C36   C     C_3   0.713268 0.921448 0.677434 -0.326501
C37   C     C_3   0.160022 0.693653 0.643937 0.015829
C38   C     C_3   0.093455 0.696389 0.684223 -0.337593
C39   C     C_3   0.268251 0.134488 0.638669 0.022182
C40   C     C_3   0.219228 0.092189 0.681083 -0.353334
C41   C     C_3   0.804428 0.343909 0.640204 0.006182
C42   C     C_3   0.850415 0.351128 0.696231 -0.352197
C43   C     C_3   0.310342 0.837196 0.643945 0.013380
C44   C     C_3   0.308352 0.901973 0.686159 -0.337709
C45   C     C_3   0.859391 0.724941 0.641234 0.021415
C46   C     C_R   0.140821 0.639612 0.501022 0.550323
C47   C     C_3   0.900250 0.771657 0.686245 -0.353773
C48   C     C_3   0.657048 0.194601 0.640373 0.007625
C49   C     C_3   0.650100 0.147709 0.695930 -0.350815
C50   C     C_3   0.141083 0.282927 0.639560 0.009699
C51   C     C_3   0.068317 0.277314 0.671728 -0.322903
C52   C     C_3   0.233333 0.366302 0.138266 0.023036
C53   C     C_3   0.283891 0.407338 0.180294 -0.354173
C54   C     C_3   0.695804 0.155815 0.140134 0.005962
C55   C     C_3   0.650100 0.148497 0.196307 -0.351798
C56   C     C_3   0.798651 0.652468 0.142966 0.015141
C57   C     C_R   0.639441 0.859051 0.501305 0.553068
C58   C     C_3   0.793123 0.583781 0.180680 -0.324879
C59   C     C_3   0.350786 0.783901 0.144256 0.019964
C60   C     C_3   0.385914 0.739054 0.193560 -0.357384
C61   C     C_3   0.842620 0.305688 0.140506 0.008023
C62   C     C_3   0.849466 0.352999 0.195808 -0.349769
C63   C     C_3   0.358650 0.216629 0.139534 0.008918
C64   C     C_3   0.431305 0.221983 0.171921 -0.322865
C65   C     C_3   0.195191 0.660335 0.143398 0.009116
C66   C     C_3   0.196697 0.594774 0.184846 -0.340478
C67   C     C_3   0.651948 0.797790 0.142719 0.017269
C68   C     C_R   0.859169 0.360566 0.500850 0.553590
C69   C     C_3   0.582132 0.793869 0.179113 -0.332532
C70   C     C_R   0.139190 0.641117 0.001419 0.554353
C71   C     C_R   0.359067 0.139462 0.001363 0.552868
C72   C     C_R   0.860386 0.359306 0.000715 0.550710
C73   C     C_R   0.999997 0.500029 0.340067 0.496176
C74   C     C_R   0.640946 0.860458 0.001191 0.551284
C75   C     C_R   0.860634 0.641085 0.001361 0.552497
C76   C     C_R   0.640805 0.139455 0.000820 0.552739
C77   C     C_R   0.140161 0.359708 0.000587 0.549375
C78   C     C_R   0.359471 0.860105 0.000793 0.551588
C79   C     C_R   0.686985 0.740010 0.469152 -0.073868
C80   C     C_R   0.257046 0.690109 0.465506 -0.072606
C81   C     C_R   0.314218 0.261287 0.471423 -0.075844
C82   C     C_R   0.754343 0.298851 0.456039 -0.067262
C83   C     C_R   0.310789 0.742375 0.466073 -0.072104
C84   C     C_R   0.000046 0.500011 0.840066 0.498860
C85   C     C_R   0.740306 0.687321 0.468764 -0.074268
C86   C     C_R   0.701824 0.245254 0.455834 -0.068503
C87   C     C_R   0.262366 0.315266 0.472551 -0.074232
C88   C     C_R   0.185877 0.238856 0.971284 -0.075734
C89   C     C_R   0.745579 0.201292 0.956012 -0.067737
C90   C     C_R   0.813723 0.760784 0.969723 -0.072519
C91   C     C_R   0.242741 0.810350 0.965956 -0.074303
C92   C     C_R   0.798303 0.254687 0.955893 -0.068354
C93   C     C_R   0.237819 0.184952 0.972349 -0.074373
C94   C     C_R   0.188886 0.758050 0.966537 -0.073431
C95   C     C_R   0.499998 0.999974 0.840066 0.497417
C96   C     C_R   0.760457 0.813342 0.969360 -0.073126
C97   C     C_R   0.690376 0.798704 0.508524 0.007983
C98   C     C_R   0.201575 0.690206 0.507887 0.011311
C99   C     C_R   0.307748 0.199615 0.507247 0.013742
C100  C     C_R   0.798481 0.309877 0.505755 0.016449
C101  C     C_R   0.310886 0.797606 0.508683 0.010010
C102  C     C_R   0.799736 0.691595 0.507339 0.014972
C103  C     C_R   0.690702 0.201086 0.505503 0.016348
C104  C     C_R   0.201099 0.309434 0.509013 0.006282
C105  C     C_R   0.192415 0.300525 0.007082 0.014235
C106  C     C_R   0.500003 0.999980 0.659939 0.480436
C107  C     C_R   0.701456 0.190183 0.005715 0.016381
C108  C     C_R   0.810557 0.702158 0.009151 0.006983
C109  C     C_R   0.299635 0.808458 0.007041 0.015900
C110  C     C_R   0.809364 0.298856 0.005553 0.016282
C111  C     C_R   0.298971 0.190629 0.008948 0.006469
C112  C     C_R   0.189577 0.701953 0.008472 0.009127
C113  C     C_R   0.701837 0.810119 0.008771 0.008712
C114  C     C_R   0.744681 0.798707 0.553784 0.248339
C115  C     C_R   0.206698 0.739089 0.556897 0.251287
C116  C     C_R   0.251252 0.196990 0.550528 0.254666
C117  C     C_R   0.000035 0.499994 0.659940 0.480737
C118  C     C_R   0.782442 0.271931 0.559283 0.255111
C119  C     C_R   0.261625 0.792677 0.557416 0.250202
C120  C     C_R   0.800360 0.746185 0.552204 0.254737
C121  C     C_R   0.728337 0.217307 0.559156 0.255857
C122  C     C_R   0.198612 0.252612 0.552224 0.246579
C123  C     C_R   0.249059 0.303248 0.050227 0.255111
C124  C     C_R   0.717541 0.228013 0.059269 0.255366
C125  C     C_R   0.758329 0.704074 0.056013 0.248004
C126  C     C_R   0.297317 0.756687 0.054029 0.257195
C127  C     C_R   0.771619 0.282665 0.059166 0.255620
C128  C     C_R   0.000005 0.500030 0.159940 0.480509
C129  C     C_R   0.301492 0.247447 0.052129 0.246713
C130  C     C_R   0.240967 0.704758 0.055804 0.251213
C131  C     C_R   0.703901 0.758064 0.055792 0.249573
C132  C     C_1   0.000000 0.500040 0.276700 -0.065118
C133  C     C_1   0.499979 1.000000 0.276700 -0.062218
C134  C     C_1   0.500000 0.999970 0.776700 -0.064350
C135  C     C_1   0.000075 0.500020 0.776701 -0.063066
C136  C     C_1   0.500007 0.999973 0.723305 -0.063252
C137  C     C_1   0.000071 0.499997 0.723306 -0.062617
C138  C     C_1   0.000012 0.500042 0.223305 -0.063486
C139  C     C_R   0.500002 0.999988 0.159939 0.480478
C140  C     C_1   0.499981 0.999977 0.223305 -0.062029
C141  C     C_3   0.739896 0.682268 0.402075 0.207343
C142  C     C_3   0.312076 0.748224 0.399559 0.210843
C143  C     C_3   0.267819 0.328313 0.406842 0.214765
C144  C     C_3   0.719065 0.223169 0.393193 0.202859
C145  C     C_3   0.252206 0.690489 0.398856 0.209016
C146  C     C_3   0.680655 0.740383 0.402605 0.213076
C147  C     C_3   0.776758 0.283081 0.393248 0.203438
C148  C     C_3   0.324116 0.267242 0.405286 0.206528
C149  C     C_3   0.232728 0.172327 0.906582 0.214266
C150  C     C_R   0.639646 0.140674 0.500681 0.550753
C151  C     C_3   0.781362 0.276828 0.893198 0.203151
C152  C     C_3   0.761585 0.819720 0.902804 0.208233
C153  C     C_3   0.186891 0.752956 0.899953 0.210669
C154  C     C_3   0.723226 0.217348 0.893238 0.203491
C155  C     C_3   0.176056 0.233044 0.905123 0.206977
C156  C     C_3   0.246925 0.810392 0.899262 0.209892
C157  C     C_3   0.821254 0.761876 0.903335 0.213054
C158  C     C_3   0.826509 0.667164 0.327867 0.002781
C159  C     C_3   0.901166 0.692198 0.306912 -0.358495
C160  C     C_3   0.317231 0.835652 0.325385 0.006609
H1    H     H_    0.720326 0.627886 0.386580 0.032865
H2    H     H_    0.828340 0.266359 0.862820 0.043386
H3    H     H_    0.672188 0.921422 0.713626 0.076598
H4    H     H_    0.768348 0.926878 0.697345 0.133559
H5    H     H_    0.208859 0.706156 0.671146 0.094132
H6    H     H_    0.165401 0.637318 0.626220 0.108512
H7    H     H_    0.043182 0.692317 0.657031 0.206938
H8    H     H_    0.094259 0.650443 0.716222 0.083156
H9    H     H_    0.092529 0.748512 0.709271 0.124730
H10   H     H_    0.277854 0.190048 0.656823 0.065066
H11   H     H_    0.321774 0.106744 0.637594 0.162898
H12   H     H_    0.202155 0.040007 0.660319 0.195516
H13   H     H_    0.781023 0.874552 0.888254 0.031831
H14   H     H_    0.248928 0.079355 0.722737 0.052925
H15   H     H_    0.169999 0.124562 0.691822 0.149920
H16   H     H_    0.746249 0.341667 0.653644 0.092558
H17   H     H_    0.813236 0.393385 0.612525 0.106757
H18   H     H_    0.909033 0.350581 0.684596 0.184945
H19   H     H_    0.837696 0.403210 0.718994 0.071138
H20   H     H_    0.839131 0.304966 0.726845 0.135886
H21   H     H_    0.366046 0.833387 0.624715 0.109037
H22   H     H_    0.299697 0.786974 0.670005 0.090696
H23   H     H_    0.257344 0.901012 0.712708 0.122202
H24   H     H_    0.133778 0.772318 0.881724 0.030957
H25   H     H_    0.355792 0.900451 0.716699 0.085088
H26   H     H_    0.310397 0.953455 0.660365 0.203434
H27   H     H_    0.887007 0.671398 0.638783 0.160444
H28   H     H_    0.803179 0.714772 0.657798 0.066295
H29   H     H_    0.951725 0.792292 0.666487 0.192712
H30   H     H_    0.866259 0.818733 0.699778 0.145048
H31   H     H_    0.914318 0.738922 0.726054 0.054165
H32   H     H_    0.607374 0.186389 0.612816 0.106425
H33   H     H_    0.659574 0.252540 0.654433 0.093211
H34   H     H_    0.696134 0.158899 0.726690 0.135025
H35   H     H_    0.735241 0.170557 0.863046 0.041013
H36   H     H_    0.597883 0.159624 0.718781 0.071195
H37   H     H_    0.651167 0.089283 0.683709 0.186725
H38   H     H_    0.152583 0.341373 0.630307 0.114169
H39   H     H_    0.183880 0.262285 0.669897 0.094405
H40   H     H_    0.023460 0.292828 0.641122 0.218718
H41   H     H_    0.059240 0.220553 0.687079 0.140833
H42   H     H_    0.067351 0.314070 0.710920 0.074157
H43   H     H_    0.222753 0.310874 0.156376 0.065331
H44   H     H_    0.180427 0.395236 0.137769 0.162772
H45   H     H_    0.301586 0.459347 0.159563 0.195333
H46   H     H_    0.120058 0.214156 0.893346 0.034401
H47   H     H_    0.255186 0.420378 0.222359 0.051827
H48   H     H_    0.332683 0.373989 0.190317 0.151882
H49   H     H_    0.754054 0.158032 0.153391 0.091993
H50   H     H_    0.686860 0.106382 0.112459 0.106272
H51   H     H_    0.591424 0.148869 0.184841 0.184871
H52   H     H_    0.663087 0.096471 0.219088 0.070591
H53   H     H_    0.661392 0.194708 0.226842 0.136424
H54   H     H_    0.784973 0.699854 0.171368 0.089523
H55   H     H_    0.856012 0.658734 0.127831 0.111704
H56   H     H_    0.798630 0.534919 0.151945 0.212794
H57   H     H_    0.230379 0.864088 0.880332 0.037429
H58   H     H_    0.836914 0.582750 0.214647 0.077880
H59   H     H_    0.739485 0.581758 0.203449 0.136673
H60   H     H_    0.293737 0.796895 0.157204 0.066183
H61   H     H_    0.380693 0.836248 0.140742 0.158138
H62   H     H_    0.436600 0.713054 0.177167 0.186218
H63   H     H_    0.400460 0.774540 0.231653 0.056295
H64   H     H_    0.347910 0.695845 0.208789 0.140497
H65   H     H_    0.892355 0.313672 0.112980 0.106016
H66   H     H_    0.840024 0.247859 0.154883 0.093281
H67   H     H_    0.803523 0.341838 0.226665 0.134837
H68   H     H_    0.876060 0.782494 0.889907 0.033349
H69   H     H_    0.901767 0.341471 0.218680 0.071073
H70   H     H_    0.848123 0.411332 0.183274 0.187918
H71   H     H_    0.347128 0.158243 0.130086 0.114572
H72   H     H_    0.315723 0.237129 0.169802 0.093719
H73   H     H_    0.440364 0.278618 0.187547 0.139687
H74   H     H_    0.432120 0.184933 0.210948 0.074786
H75   H     H_    0.476275 0.206685 0.141370 0.219094
H76   H     H_    0.138810 0.666484 0.125937 0.109796
H77   H     H_    0.208895 0.709571 0.169775 0.092071
H78   H     H_    0.248989 0.593162 0.209629 0.116647
H79   H     H_    0.786559 0.675625 0.291273 0.100375
H80   H     H_    0.151035 0.597745 0.217088 0.084416
H81   H     H_    0.191152 0.543897 0.158627 0.205055
H82   H     H_    0.660089 0.855071 0.127892 0.109356
H83   H     H_    0.698104 0.782641 0.171956 0.093052
H84   H     H_    0.534345 0.800893 0.149414 0.212941
H85   H     H_    0.578069 0.740193 0.201661 0.127219
H86   H     H_    0.581105 0.837509 0.213197 0.084931
H87   H     H_    0.830070 0.608103 0.338720 0.153018
H88   H     H_    0.941588 0.683384 0.342997 0.165354
H89   H     H_    0.365160 0.729275 0.381035 0.032697
H90   H     H_    0.918296 0.660753 0.267107 0.079259
H91   H     H_    0.899684 0.750928 0.295252 0.153551
H92   H     H_    0.296362 0.797729 0.290768 0.111401
H93   H     H_    0.377834 0.834208 0.326742 0.136245
H94   H     H_    0.315063 0.951292 0.342838 0.163366
H95   H     H_    0.318171 0.927271 0.264711 0.074226
H96   H     H_    0.234429 0.916224 0.306194 0.160425
H97   H     H_    0.245153 0.323993 0.293145 0.113564
H98   H     H_    0.202307 0.404032 0.325784 0.128488
H99   H     H_    0.081843 0.344691 0.317830 0.162093
H100  H     H_    0.290444 0.383553 0.397385 0.032440
H101  H     H_    0.126074 0.350704 0.246162 0.075931
H102  H     H_    0.123726 0.264710 0.285341 0.152659
H103  H     H_    0.755981 0.162014 0.298886 0.103677
H104  H     H_    0.685088 0.102895 0.328355 0.128013
H105  H     H_    0.781197 0.016810 0.363556 0.182978
H106  H     H_    0.786699 0.032694 0.283960 0.067716
H107  H     H_    0.850513 0.076486 0.333672 0.170016
H108  H     H_    0.148706 0.634522 0.325636 0.145195
H109  H     H_    0.215937 0.694306 0.291800 0.092088
H110  H     H_    0.127661 0.794494 0.288375 0.158347
H111  H     H_    0.672061 0.233101 0.362715 0.044638
H112  H     H_    0.091098 0.715019 0.251423 0.068375
H113  H     H_    0.060084 0.738904 0.325324 0.167428
H114  H     H_    0.615875 0.819371 0.321786 0.131087
H115  H     H_    0.694690 0.772502 0.291226 0.111121
H116  H     H_    0.764938 0.889882 0.297445 0.162852
H117  H     H_    0.686474 0.896481 0.249513 0.069820
H118  H     H_    0.683100 0.934840 0.323433 0.156491
H119  H     H_    0.888975 0.332321 0.332341 0.132205
H120  H     H_    0.847990 0.251717 0.298883 0.107410
H121  H     H_    0.949820 0.176452 0.338309 0.169303
H122  H     H_    0.269090 0.636982 0.379766 0.035652
H123  H     H_    0.981221 0.248284 0.289693 0.069791
H124  H     H_    0.991190 0.257293 0.369663 0.179989
H125  H     H_    0.395494 0.171786 0.338578 0.160757
H126  H     H_    0.343353 0.237107 0.295287 0.090499
H127  H     H_    0.250222 0.144500 0.273852 0.147072
H128  H     H_    0.338797 0.110288 0.252970 0.079089
H129  H     H_    0.296417 0.079391 0.320940 0.165760
H130  H     H_    0.256436 0.176557 0.793010 0.113040
H131  H     H_    0.300007 0.097180 0.826157 0.129833
H132  H     H_    0.419794 0.158037 0.818804 0.161404
H133  H     H_    0.625974 0.720825 0.387906 0.036944
H134  H     H_    0.376290 0.151312 0.746864 0.075939
H135  H     H_    0.377195 0.237398 0.785888 0.152860
H136  H     H_    0.745109 0.340166 0.798832 0.105208
H137  H     H_    0.819132 0.394833 0.829025 0.128516
H138  H     H_    0.728506 0.485969 0.864463 0.182378
H139  H     H_    0.721571 0.471023 0.784854 0.068432
H140  H     H_    0.655548 0.430686 0.834615 0.170637
H141  H     H_    0.719520 0.827180 0.791625 0.096600
H142  H     H_    0.672178 0.893546 0.837578 0.152485
H143  H     H_    0.561997 0.816081 0.837470 0.163698
H144  H     H_    0.764287 0.329812 0.363087 0.040916
H145  H     H_    0.589213 0.839433 0.762578 0.079096
H146  H     H_    0.607918 0.749526 0.791357 0.154387
H147  H     H_    0.190549 0.703310 0.791334 0.103242
H148  H     H_    0.116949 0.660915 0.833283 0.145763
H149  H     H_    0.191300 0.549060 0.844775 0.165830
H150  H     H_    0.176518 0.571148 0.767274 0.074352
H151  H     H_    0.263549 0.590262 0.801404 0.157039
H152  H     H_    0.609895 0.170246 0.831784 0.131213
H153  H     H_    0.653448 0.249833 0.798853 0.107178
H154  H     H_    0.553496 0.327820 0.837360 0.170033
H155  H     H_    0.380221 0.285806 0.393512 0.034658
H156  H     H_    0.520285 0.256753 0.788790 0.069594
H157  H     H_    0.509511 0.248331 0.868723 0.180648
H158  H     H_    0.104081 0.327287 0.837744 0.159584
H159  H     H_    0.157622 0.262682 0.794925 0.090549
H160  H     H_    0.249744 0.356800 0.774270 0.147681
H161  H     H_    0.160894 0.389199 0.752230 0.078763
H162  H     H_    0.201494 0.421249 0.820545 0.164814
H163  H     H_    0.345716 0.864813 0.822662 0.139353
H164  H     H_    0.281774 0.799334 0.791519 0.101835
H165  H     H_    0.375894 0.704132 0.792442 0.161250
H166  H     H_    0.210502 0.117021 0.896789 0.032754
H167  H     H_    0.407638 0.782847 0.751655 0.066505
H168  H     H_    0.440119 0.766168 0.826421 0.166251
H169  H     H_    0.890376 0.687228 0.823833 0.131846
H170  H     H_    0.810810 0.731390 0.791320 0.112304
H171  H     H_    0.746183 0.611986 0.791621 0.156702
H172  H     H_    0.829667 0.608806 0.749030 0.074452
H173  H     H_    0.826633 0.569228 0.822681 0.158580
H174  H     H_    0.725725 0.805714 0.670536 0.091626
H175  H     H_    0.650473 0.842223 0.628856 0.112460
H176  H     H_    0.703134 0.968974 0.648035 0.215940
O1    O     O_3   0.500000 0.000000 0.500000 -0.445932
O2    O     O_R   0.560750 0.000000 0.867980 -0.549184
O3    O     O_R   0.000000 0.560750 0.867980 -0.547203
O4    O     O_R   0.439250 0.000000 0.867980 -0.543277
O5    O     O_R   0.560720 0.000000 0.632020 -0.570823
O6    O     O_R   1.000000 0.560720 0.632020 -0.574081
O7    O     O_R   0.439280 0.000000 0.632020 -0.574481
O8    O     O_R   1.000000 0.439280 0.632020 -0.571185
O9    O     O_R   0.060720 0.500000 0.132020 -0.574766
O10   O     O_R   0.500000 0.060720 0.132020 -0.571246
O11   O     O_R   0.939280 0.500000 0.132020 -0.570301
O12   O     O_3   1.000000 0.500000 0.500000 -0.445448
O13   O     O_R   0.500000 0.939280 0.132020 -0.574446
O14   O     O_R   0.585450 0.146130 0.465380 -0.563553
O15   O     O_R   0.853870 0.585450 0.465380 -0.552344
O16   O     O_R   0.414550 0.853870 0.465380 -0.551959
O17   O     O_R   0.146130 0.414550 0.465380 -0.537315
O18   O     O_R   0.414550 0.146130 0.465380 -0.551705
O19   O     O_R   0.146130 0.585450 0.465380 -0.555240
O20   O     O_R   0.585450 0.853870 0.465380 -0.545100
O21   O     O_R   0.853870 0.414550 0.465380 -0.563123
O22   O     O_R   0.085450 0.646130 0.965380 -0.554273
O23   O     O_3   1.000000 0.500000 0.000000 -0.445660
O24   O     O_R   0.353870 0.085450 0.965380 -0.538246
O25   O     O_R   0.914550 0.353870 0.965380 -0.563676
O26   O     O_R   0.646130 0.914550 0.965380 -0.551990
O27   O     O_R   0.914550 0.646130 0.965380 -0.544344
O28   O     O_R   0.646130 0.085450 0.965380 -0.563880
O29   O     O_R   0.085450 0.353870 0.965380 -0.550901
O30   O     O_R   0.353870 0.914550 0.965380 -0.552503
O31   O     O_R   0.353850 0.914510 0.534610 -0.497200
O32   O     O_R   0.085490 0.353850 0.534610 -0.511018
O33   O     O_R   0.646150 0.085490 0.534610 -0.490646
O34   O     O_3   0.500000 0.000000 0.000000 -0.445610
O35   O     O_R   0.914510 0.646150 0.534610 -0.510890
O36   O     O_R   0.646150 0.914510 0.534610 -0.505624
O37   O     O_R   0.914510 0.353850 0.534610 -0.493090
O38   O     O_R   0.353850 0.085490 0.534610 -0.513435
O39   O     O_R   0.085490 0.646150 0.534610 -0.497741
O40   O     O_R   0.853850 0.414510 0.034610 -0.490035
O41   O     O_R   0.585490 0.853850 0.034610 -0.501938
O42   O     O_R   0.146150 0.585490 0.034610 -0.496422
O43   O     O_R   0.414510 0.146150 0.034610 -0.510653
O44   O     O_R   0.146150 0.414510 0.034610 -0.513885
O45   O     O_R   0.500000 0.939250 0.367980 -0.543985
O46   O     O_R   0.414510 0.853850 0.034610 -0.508623
O47   O     O_R   0.853850 0.585490 0.034610 -0.505129
O48   O     O_R   0.585490 0.146150 0.034610 -0.492748
O49   O     O_3   0.806598 0.708108 0.378375 -0.494644
O50   O     O_3   0.287502 0.817850 0.381384 -0.489480
O51   O     O_3   0.201735 0.310150 0.377904 -0.488601
O52   O     O_3   0.749623 0.152519 0.391948 -0.492178
O53   O     O_3   0.184465 0.718494 0.379571 -0.490675
O54   O     O_3   0.704148 0.807961 0.379127 -0.490577
O55   O     O_3   0.848681 0.255468 0.391684 -0.492888
O56   O     O_R   0.060750 0.500000 0.367980 -0.544298
O57   O     O_3   0.297627 0.204053 0.376281 -0.493891
O58   O     O_3   0.298851 0.191211 0.878002 -0.488966
O59   O     O_3   0.751388 0.347744 0.891819 -0.492138
O60   O     O_3   0.695398 0.794064 0.878073 -0.493238
O61   O     O_3   0.211498 0.683720 0.880985 -0.490489
O62   O     O_3   0.651536 0.245539 0.891706 -0.492509
O63   O     O_3   0.202044 0.296501 0.876179 -0.493574
O64   O     O_3   0.314554 0.782229 0.879874 -0.490095
O65   O     O_3   0.799021 0.694639 0.878351 -0.490363
O66   O     O_3   0.754132 0.857991 0.591129 -0.484245
O67   O     O_R   0.500000 0.060750 0.367980 -0.549154
O68   O     O_3   0.150809 0.745314 0.597926 -0.485847
O69   O     O_3   0.236438 0.133215 0.581212 -0.480820
O70   O     O_3   0.825312 0.280111 0.609582 -0.497678
O71   O     O_3   0.256823 0.847500 0.599526 -0.488194
O72   O     O_3   0.862717 0.759764 0.585055 -0.481242
O73   O     O_3   0.720582 0.174025 0.609263 -0.495598
O74   O     O_3   0.137177 0.240983 0.586782 -0.484551
O75   O     O_3   0.264207 0.367243 0.080469 -0.480556
O76   O     O_3   0.674759 0.219654 0.109598 -0.497329
O77   O     O_3   0.749731 0.645911 0.094633 -0.483966
O78   O     O_R   0.939250 0.500000 0.367980 -0.549825
O79   O     O_3   0.357397 0.745274 0.090029 -0.483761
O80   O     O_3   0.779151 0.326062 0.109202 -0.494619
O81   O     O_3   0.362804 0.258851 0.086888 -0.484937
O82   O     O_3   0.246220 0.649063 0.097172 -0.487648
O83   O     O_3   0.645554 0.749211 0.094169 -0.483027
O84   O     O_R   0.000000 0.439250 0.867980 -0.548438
Zn1   Zn    Zn3+2 0.586760 1.000000 0.549450 0.941152
Zn2   Zn    Zn3+2 0.913280 0.500000 0.450540 0.911058
Zn3   Zn    Zn3+2 0.500000 0.913280 0.450540 0.919805
Zn4   Zn    Zn3+2 0.086720 0.500000 0.450540 0.920328
Zn5   Zn    Zn3+2 0.000000 0.586720 0.950540 0.916538
Zn6   Zn    Zn3+2 0.413280 0.000000 0.950540 0.922053
Zn7   Zn    Zn3+2 1.000000 0.413280 0.950540 0.913385
Zn8   Zn    Zn3+2 0.586720 0.000000 0.950540 0.911734
Zn9   Zn    Zn3+2 1.000000 0.586760 0.549450 0.932783
Zn10  Zn    Zn3+2 0.413240 1.000000 0.549450 0.932008
Zn11  Zn    Zn3+2 0.000000 0.413240 0.549450 0.935597
Zn12  Zn    Zn3+2 0.086760 0.500000 0.049450 0.931509
Zn13  Zn    Zn3+2 0.500000 0.086760 0.049450 0.935823
Zn14  Zn    Zn3+2 0.913240 0.500000 0.049450 0.942409
Zn15  Zn    Zn3+2 0.500000 0.913240 0.049450 0.931566
Zn16  Zn    Zn3+2 0.500000 0.086720 0.450540 0.913365

loop_
_geom_bond_atom_site_label_1
_geom_bond_atom_site_label_2
_ccdc_geom_bond_type
C9    H110  S    
C56   O77   S    
O31   Zn10  S    
C2    O35   A    
C160  H92   S    
C19   C20   S    
C131  O83   S    
C10   H115  S    
C18   H135  S    
C33   H173  S    
C72   O40   A    
C82   C147  S    
O13   Zn15  S    
C129  O81   S    
C28   O63   S    
O34   Zn8   S    
O20   Zn3   S    
C29   H161  S    
O45   Zn3   S    
C76   O48   A    
C86   C103  A    
C62   H67   S    
C78   O46   A    
C43   O71   S    
C105  C123  A    
O34   Zn6   S    
O40   Zn14  S    
C56   H55   S    
C39   H11   S    
C93   C149  S    
C54   H49   S    
C42   H20   S    
C27   H154  S    
C70   O22   A    
C39   O69   S    
C45   O72   S    
C46   C98   S    
C59   C60   S    
C13   O31   A    
C21   C22   S    
C5    H101  S    
C128  O11   A    
C23   H148  S    
C107  C124  A    
C80   C83   A    
C72   C110  S    
C45   C47   S    
C50   H38   S    
C38   H7    S    
C88   C155  S    
C31   H165  S    
C64   H75   S    
C99   C116  A    
C81   C99   A    
C18   H132  S    
C150  O33   A    
C153  O61   S    
C19   H137  S    
C160  H93   S    
C7    H106  S    
C46   O19   A    
C37   C38   S    
O34   Zn13  S    
C57   C97   S    
C144  H111  S    
O46   Zn15  S    
C123  O75   S    
C153  C156  S    
C6    C7    S    
C121  O73   S    
C124  C127  A    
O30   Zn6   S    
C69   H85   S    
C2    O15   A    
C9    H112  S    
C1    O45   A    
C76   C107  S    
C43   C44   S    
C142  O50   S    
C158  C159  S    
C144  O52   S    
C103  C121  A    
C79   C85   A    
C30   O64   S    
O78   Zn2   S    
C38   H9    S    
C135  C137  T    
C71   O24   A    
C152  C157  S    
C28   C29   S    
C27   H157  S    
C66   H80   S    
C79   C97   A    
C4    C5    S    
C139  C140  S    
C69   H84   S    
C17   O58   S    
C14   H123  S    
C84   O84   A    
C22   H146  S    
O6    Zn9   S    
O1    Zn10  S    
C52   H43   S    
C149  C155  S    
C159  H91   S    
O39   Zn9   S    
C91   C94   A    
C40   H14   S    
C42   H18   S    
C95   O4    A    
C15   H125  S    
C119  O71   S    
C3    H94   S    
O32   Zn11  S    
C17   H130  S    
O1    Zn1   S    
C6    H104  S    
C41   O70   S    
C24   C104  S    
C84   C135  S    
C68   O37   A    
C65   H76   S    
C73   O56   A    
C53   H48   S    
C78   O30   A    
C49   H37   S    
C64   H74   S    
O8    Zn11  S    
C41   H17   S    
C117  O6    A    
C104  C122  A    
C2    C102  S    
C96   C152  S    
C128  C138  S    
C103  C150  S    
C8    O53   S    
O67   Zn16  S    
C10   O54   S    
C62   H70   S    
C148  O57   S    
C36   H3    S    
C11   H118  S    
C56   H54   S    
C51   H42   S    
C44   H25   S    
O22   Zn5   S    
C106  C136  S    
O10   Zn13  S    
C142  H89   S    
C34   H174  S    
C157  O65   S    
C50   O74   S    
C144  C147  S    
C1    C133  S    
C67   H82   S    
C79   C146  S    
C14   H121  S    
C143  C148  S    
C120  O72   S    
C72   O25   A    
C85   C141  S    
C39   C40   S    
C45   H27   S    
C37   H5    S    
C21   O60   S    
C26   O62   S    
C95   O2    A    
C43   H21   S    
C30   H164  S    
C52   O75   S    
C68   C100  S    
C75   O27   A    
C158  O49   S    
C125  C131  A    
C153  H24   S    
C92   C151  S    
C17   C18   S    
O1    Zn3   S    
O14   Zn16  S    
C16   H127  S    
C7    H107  S    
C150  O14   A    
C44   H23   S    
C154  H35   S    
C25   H149  S    
C115  C119  A    
C158  H87   S    
C152  H13   S    
O18   Zn16  S    
C60   H63   S    
C52   C53   S    
C63   H71   S    
O27   Zn5   S    
O7    Zn10  S    
C12   H120  S    
C54   C55   S    
O25   Zn7   S    
C154  O62   S    
O26   Zn8   S    
O1    Zn16  S    
C48   H33   S    
C65   O82   S    
C55   H53   S    
C117  O8    A    
C50   H39   S    
C90   C96   A    
C66   H81   S    
O12   Zn9   S    
C61   H66   S    
C90   C157  S    
C160  O50   S    
C90   C108  A    
C91   C156  S    
C152  O60   S    
C88   C105  A    
C58   H58   S    
C92   C110  A    
C89   C154  S    
C94   C153  S    
O42   Zn12  S    
O3    Zn5   S    
C94   C112  A    
C56   C58   S    
C78   C109  S    
C34   C36   S    
C61   C62   S    
C11   H116  S    
C51   H40   S    
C63   C64   S    
O12   Zn2   S    
C109  C126  A    
C54   H50   S    
C68   O21   A    
C114  O66   S    
C36   H176  S    
C32   H169  S    
O84   Zn7   S    
O9    Zn12  S    
C112  C130  A    
C97   C114  A    
C57   O20   A    
C73   O78   A    
C85   C102  A    
C155  O63   S    
C4    H97   S    
C156  O64   S    
C74   O26   A    
C41   C42   S    
C23   H147  S    
C86   C144  S    
C38   H8    S    
C26   C27   S    
C116  C122  A    
C31   H168  S    
C59   H60   S    
C124  O76   S    
C30   C31   S    
C16   H129  S    
C49   H34   S    
C126  C130  A    
C132  C138  T    
C5    H99   S    
C20   H139  S    
C21   H142  S    
C7    H105  S    
C3    H96   S    
C33   H172  S    
C55   H52   S    
C111  C129  A    
C25   H151  S    
C26   H152  S    
C156  H57   S    
C83   C101  A    
O43   Zn13  S    
C158  H79   S    
C18   H134  S    
C15   O57   S    
C75   C108  S    
C77   O44   A    
C106  O7    A    
C34   O66   S    
C142  C145  S    
C82   C100  A    
C10   H114  S    
C46   O39   A    
O12   Zn11  S    
C145  O53   S    
C26   H153  S    
C29   H162  S    
C28   H159  S    
C19   O59   S    
C67   H83   S    
C14   H124  S    
C82   C86   A    
C74   C113  S    
C95   C134  S    
C52   H44   S    
C48   O73   S    
C40   H15   S    
O12   Zn4   S    
C24   O32   A    
C42   H19   S    
C151  H2    S    
C89   C107  A    
C50   C51   S    
C126  O79   S    
C12   H119  S    
C81   C87   A    
C141  C146  S    
C93   C111  A    
C48   C49   S    
O28   Zn8   S    
C54   O76   S    
C5    H102  S    
C96   C113  A    
C100  C118  A    
C17   H131  S    
O15   Zn2   S    
C40   H12   S    
C102  C120  A    
O24   Zn6   S    
C9    H113  S    
C141  O49   S    
C147  H144  S    
C80   C98   A    
O47   Zn14  S    
C33   H171  S    
C12   O55   S    
C60   H62   S    
O44   Zn12  S    
C49   H36   S    
O17   Zn4   S    
O56   Zn4   S    
O5    Zn1   S    
C32   C33   S    
C130  O82   S    
C77   C105  S    
C22   H143  S    
C29   H160  S    
O35   Zn9   S    
C47   H30   S    
O23   Zn12  S    
C57   O36   A    
C65   C66   S    
C47   H31   S    
O21   Zn2   S    
C48   H32   S    
C37   O68   S    
C87   C104  A    
C69   H86   S    
C133  C140  T    
C6    O52   S    
C61   O80   S    
C36   H4    S    
C106  O5    A    
C32   O65   S    
C115  O68   S    
C11   H117  S    
C114  C120  A    
C51   H41   S    
C44   H26   S    
C141  H1    S    
C34   H175  S    
C122  O74   S    
C70   O42   A    
C149  H166  S    
C8    H108  S    
C155  H46   S    
C98   C115  A    
O41   Zn15  S    
C77   O29   A    
C139  O10   A    
C149  O58   S    
C22   H145  S    
C39   H10   S    
O4    Zn6   S    
O33   Zn1   S    
C1    O67   A    
C15   C16   S    
O11   Zn14  S    
C15   H126  S    
C151  C154  S    
C151  O59   S    
C63   O81   S    
C59   H61   S    
C20   H140  S    
C8    C9    S    
C71   C111  S    
C53   H45   S    
C6    H103  S    
C108  C125  A    
C16   H128  S    
C157  H68   S    
C110  C127  A    
C81   C148  S    
C84   O3    A    
C123  C129  A    
O23   Zn7   S    
C65   H77   S    
C35   C99   S    
C145  H122  S    
C60   H64   S    
C146  H133  S    
C75   O47   A    
C159  H88   S    
O2    Zn8   S    
C19   H136  S    
C101  C119  A    
C67   O83   S    
C74   O41   A    
C10   C11   S    
C23   O61   S    
C35   O38   A    
C134  C136  T    
C147  O55   S    
C127  O80   S    
C61   H65   S    
C143  O51   S    
C67   C69   S    
C118  C121  A    
C28   H158  S    
C47   H29   S    
C8    H109  S    
C58   H59   S    
C20   H138  S    
C62   H69   S    
C139  O13   A    
C4    O51   S    
O16   Zn3   S    
C89   C92   A    
C70   C112  S    
C71   O43   A    
C12   C14   S    
C146  O54   S    
C27   H156  S    
C32   H170  S    
C3    C160  S    
C125  O77   S    
O36   Zn1   S    
C13   C101  S    
O19   Zn4   S    
C118  O70   S    
C88   C93   A    
C80   C145  S    
C4    H98   S    
C113  C131  A    
C59   O79   S    
C128  O9    A    
C41   H16   S    
C117  C137  S    
C143  H100  S    
C159  H90   S    
C83   C142  S    
C45   H28   S    
C37   H6    S    
C35   O18   A    
C43   H22   S    
C30   H163  S    
O23   Zn14  S    
C91   C109  A    
C31   H167  S    
C64   H73   S    
C76   O28   A    
C148  H155  S    
O37   Zn11  S    
C116  O69   S    
C53   H47   S    
C21   H141  S    
C23   C25   S    
C3    H95   S    
C73   C132  S    
C13   O16   A    
C55   H51   S    
C24   O17   A    
C25   H150  S    
O38   Zn10  S    
O34   Zn15  S    
O23   Zn5   S    
O48   Zn13  S    
C87   C143  S    
C66   H78   S    
O29   Zn7   S    
C63   H72   S    
C58   H56   S    
