data_mof_unit_29588.cif
_audit_creation_date              2013-03-05T16:48:30-0500
_audit_creation_method            fapswitch 2.2
_symmetry_space_group_name_H-M    P1
_symmetry_Int_Tables_number       1
_space_group_crystal_system       triclinic
_cell_length_a                    10.754655
_cell_length_b                    14.8471
_cell_length_c                    14.922935
_cell_angle_alpha                 64.088779
_cell_angle_beta                  105.417111
_cell_angle_gamma                 102.725695
_cell_volume                      2051.21360151

loop_
_atom_site_label
_atom_site_type_symbol
_atom_site_description
_atom_site_fract_x
_atom_site_fract_y
_atom_site_fract_z
_atom_type_partial_charge
O1    O     O_R   0.455540 0.022090 0.338120 -0.605962
O2    O     O_R   0.544460 0.977910 0.661880 -0.605965
O3    O     O_R   0.512510 0.160150 0.379180 -0.522596
O4    O     O_R   0.487490 0.839850 0.620820 -0.522599
C1    C     C_R   0.476830 0.119483 0.312725 0.806645
C2    C     C_R   0.523169 0.880517 0.687275 0.806645
O5    O     O_R   0.291160 0.930970 0.479480 -0.577885
O6    O     O_R   0.708840 0.069030 0.520520 -0.577862
O7    O     O_R   0.348130 0.069020 0.520540 -0.546673
O8    O     O_R   0.651870 0.930980 0.479460 -0.546681
C3    C     C_R   0.263115 0.000160 0.499841 0.840479
C4    C     C_R   0.736886 0.999838 0.500163 0.840471
Cu1   Cu    Cu3+1 0.466270 0.918260 0.475690 1.009494
Cu2   Cu    Cu3+1 0.533730 0.081740 0.524310 1.009515
H1    H     H_    0.450956 0.973243 0.924263 0.139848
H2    H     H_    0.549198 0.027131 0.075570 0.139878
C5    C     C_R   0.317859 0.885465 0.848610 -0.195040
C6    C     C_R   0.682306 0.114787 0.151353 -0.195055
H3    H     H_    0.342850 0.814801 0.910559 0.183067
H4    H     H_    0.657390 0.185488 0.089434 0.183062
C7    C     C_R   0.227166 0.886334 0.760675 0.321361
C8    C     C_R   0.772951 0.113824 0.239338 0.321391
C9    C     C_R   0.196645 0.980831 0.681468 -0.017265
C10   C     C_R   0.803377 0.019282 0.318503 -0.017298
C11   C     C_R   0.258642 0.070555 0.691785 -0.136594
C12   C     C_R   0.741327 0.929608 0.308099 -0.136630
H5    H     H_    0.235487 0.143004 0.632168 0.157096
H6    H     H_    0.764413 0.857126 0.367681 0.157079
C13   C     C_R   0.350728 0.067732 0.778431 -0.136995
C14   C     C_R   0.649288 0.932524 0.221402 -0.137011
H7    H     H_    0.398816 0.137328 0.785086 0.137864
H8    H     H_    0.601163 0.862967 0.214676 0.137866
C15   C     C_R   0.379881 0.975352 0.856862 -0.178458
C16   C     C_R   0.620235 0.024949 0.143010 -0.178462
C17   C     C_R   0.964343 0.987495 0.590370 0.146492
C18   C     C_R   0.035659 0.012508 0.409634 0.146467
C19   C     C_R   0.871139 0.999208 0.500548 -0.070433
C20   C     C_R   0.128863 0.000792 0.499456 -0.070457
C21   C     C_R   0.905172 0.010789 0.410709 0.029816
C22   C     C_R   0.094834 0.989235 0.589289 0.029854
C23   C     C_R   0.454530 0.187288 0.205150 -0.055825
C24   C     C_R   0.545469 0.812712 0.794850 -0.055863
C25   C     C_R   0.340234 0.224726 0.032574 -0.193744
C26   C     C_R   0.659768 0.775274 0.967425 -0.193735
C27   C     C_R   0.371341 0.155357 0.132275 -0.204871
C28   C     C_R   0.628660 0.844643 0.867725 -0.204950
C29   C     C_R   0.510810 0.287414 0.176880 -0.124042
C30   C     C_R   0.489189 0.712586 0.823120 -0.123831
C31   C     C_R   0.476168 0.360232 0.078095 0.089407
C32   C     C_R   0.523832 0.639768 0.921905 0.089454
C33   C     C_R   0.389165 0.326987 0.005633 0.146212
C34   C     C_R   0.610837 0.673013 0.994367 0.146211
C35   C     C_R   0.521968 0.464912 0.050257 0.065713
C36   C     C_R   0.478032 0.535088 0.949743 0.065727
C37   C     C_R   0.391320 0.498033 0.880156 -0.112220
C38   C     C_R   0.608681 0.501968 0.119844 -0.112213
C39   C     C_R   0.349180 0.396113 0.907566 -0.209484
C40   C     C_R   0.650822 0.603887 0.092434 -0.209455
H9    H     H_    0.282553 0.371423 0.851715 0.147199
H10   H     H_    0.717449 0.628576 0.148284 0.147203
H11   H     H_    0.420477 0.693891 0.765115 0.186966
H12   H     H_    0.579521 0.306109 0.234886 0.186979
H13   H     H_    0.672194 0.922347 0.847128 0.154755
H14   H     H_    0.327808 0.077652 0.152872 0.154742
H15   H     H_    0.274244 0.199066 0.977240 0.137636
H16   H     H_    0.725760 0.800934 0.022759 0.137637
H17   H     H_    0.352472 0.545354 0.803274 0.179623
H18   H     H_    0.647529 0.454646 0.196726 0.179637
N1    N     N_R   0.584450 0.204570 0.560790 -0.224986
N2    N     N_R   0.415550 0.795430 0.439210 -0.224996
C41   C     C_R   0.726228 0.285175 0.663635 -0.300075
C42   C     C_R   0.273768 0.714823 0.336369 -0.300053
C43   C     C_R   0.682932 0.200997 0.640460 0.014364
C44   C     C_R   0.317066 0.799002 0.359541 0.014331
C45   C     C_R   0.518361 0.288220 0.505668 0.455763
C46   C     C_R   0.481636 0.711778 0.494333 0.455767
C47   C     C_R   0.547407 0.370751 0.535607 -0.111334
C48   C     C_R   0.452588 0.629246 0.464396 -0.111322
C49   C     C_R   0.661197 0.371136 0.609429 0.105681
C50   C     C_R   0.338797 0.628861 0.390575 0.105674
C51   C     C_R   0.473672 0.455545 0.490915 0.075764
C52   C     C_R   0.526323 0.544452 0.509089 0.075778
C53   C     C_R   0.652564 0.546437 0.568256 -0.125753
C54   C     C_R   0.347430 0.453560 0.431748 -0.125758
C55   C     C_R   0.714011 0.459686 0.623284 -0.155004
C56   C     C_R   0.285983 0.540311 0.376721 -0.154973
H19   H     H_    0.807231 0.463515 0.673026 0.163525
H20   H     H_    0.192762 0.536481 0.326979 0.163545
H21   H     H_    0.267809 0.865749 0.317114 0.132661
H22   H     H_    0.732190 0.134250 0.682886 0.132658
H23   H     H_    0.811190 0.283638 0.722635 0.153033
H24   H     H_    0.188805 0.716360 0.277370 0.153041
H25   H     H_    0.707514 0.614846 0.571937 0.200093
H26   H     H_    0.292481 0.385150 0.428067 0.200097
N3    N     N_R   0.558034 0.698249 0.593045 0.113763
O9    O     O_R   0.523889 0.622067 0.672326 -0.403717
O10   O     O_R   0.671370 0.749931 0.603385 -0.368136
N4    N     N_R   0.441964 0.301750 0.406956 0.113769
O11   O     O_R   0.328627 0.250069 0.396616 -0.368123
O12   O     O_R   0.476109 0.377933 0.327676 -0.403682
N5    N     N_R   0.166992 0.791737 0.754368 0.110387
O13   O     O_R   0.119682 0.785765 0.667078 -0.363118
O14   O     O_R   0.168587 0.708818 0.836345 -0.360001
N6    N     N_R   0.833181 0.208371 0.245739 0.110422
O15   O     O_R   0.880396 0.214269 0.333071 -0.363128
O16   O     O_R   0.831717 0.291325 0.163804 -0.359958
C57   C     C_3   0.922292 0.971115 0.686546 -0.792593
H27   H     H_    0.999942 0.950582 0.755208 0.230521
H28   H     H_    0.889673 0.041162 0.676878 0.218145
H29   H     H_    0.841413 0.908712 0.702533 0.239275
C58   C     C_3   0.077711 0.028883 0.313459 -0.792637
H30   H     H_    0.000061 0.049405 0.244797 0.230515
H31   H     H_    0.158584 0.091290 0.297468 0.239287
H32   H     H_    0.110338 0.958837 0.323133 0.218154

loop_
_geom_bond_atom_site_label_1
_geom_bond_atom_site_label_2
_geom_bond_distance
_ccdc_geom_bond_type
C14   H8    1.082563 S    
N5    O13   1.300857 A    
C26   H16   1.083936 S    
C58   H30   1.106536 S    
C29   H12   1.073279 S    
N6    O16   1.301685 A    
C51   C52   1.427773 A    
C29   C31   1.404766 A    
C35   C36   1.425828 A    
O5    C3    1.302542 A    
C32   C36   1.427577 A    
O1    C1    1.307034 A    
C44   H21   1.080822 S    
C17   C19   1.410806 A    
C10   C12   1.405770 A    
C43   H22   1.080821 S    
C46   N3    1.433866 S    
C42   H24   1.083753 S    
C48   C50   1.413115 A    
C39   H9    1.084533 S    
Cu1   N2    2.047236 S    
C40   H10   1.084532 S    
C9    C22   1.488640 S    
C53   H25   1.072819 S    
C13   C15   1.393120 A    
O4    Cu1   1.936142 S    
C10   C21   1.488632 S    
C8    N6    1.443241 S    
C24   C28   1.397952 A    
C4    C19   1.444395 S    
C50   C56   1.392818 A    
H2    C16   1.082208 S    
N3    O9    1.300931 A    
C31   C33   1.418967 A    
N2    C44   1.355818 A    
C32   C34   1.418967 A    
C57   H27   1.106537 S    
N1    C43   1.355816 A    
C33   C39   1.388207 A    
C25   H15   1.083936 S    
O7    C3    1.300240 A    
C7    N5    1.443247 S    
C26   C34   1.403835 A    
C30   C32   1.404767 A    
N5    O14   1.301686 A    
Cu1   Cu2   2.725347 S    
C57   H28   1.108222 S    
O2    C2    1.307032 A    
C5    C15   1.396031 A    
C41   C49   1.400905 A    
N6    O15   1.300857 A    
C26   C28   1.390770 A    
C47   C49   1.413115 A    
C11   C13   1.394468 A    
C34   C40   1.388208 A    
C14   C16   1.393126 A    
C55   H19   1.084181 S    
C42   C44   1.390725 A    
C41   C43   1.390725 A    
C24   C30   1.394808 A    
C38   H18   1.074466 S    
C52   C53   1.411211 A    
C45   N4    1.433866 S    
C5    C7    1.408445 A    
C42   C50   1.400908 A    
C3    C20   1.444398 S    
O7    Cu2   1.951051 S    
C25   C27   1.390770 A    
C48   C52   1.443406 A    
C47   C51   1.443407 A    
O6    C4    1.302534 A    
C18   C58   1.521580 S    
C23   C29   1.394810 A    
C58   H31   1.110861 S    
C54   H26   1.072819 S    
C45   C47   1.426273 A    
O3    Cu2   1.936142 S    
O8    C4    1.300247 A    
O4    C2    1.309262 A    
Cu2   N1    2.047236 S    
C53   C55   1.389992 A    
C12   C14   1.394472 A    
N4    O12   1.300931 A    
C37   C39   1.384919 A    
N2    C46   1.381847 A    
C57   H29   1.110861 S    
C8    C10   1.421470 A    
O1    Cu1   1.947024 S    
C49   C55   1.392817 A    
C51   C54   1.411211 A    
C35   C38   1.417422 A    
C1    C23   1.461964 S    
C36   C37   1.417422 A    
O6    Cu2   1.951400 S    
C6    C8    1.408434 A    
C18   C21   1.402183 A    
C46   C48   1.426274 A    
O3    C1    1.309261 A    
O8    Cu1   1.951051 S    
C37   H17   1.074466 S    
N3    O10   1.299890 A    
C11   H5    1.083703 S    
C27   H14   1.083197 S    
C12   H6    1.083701 S    
C28   H13   1.083197 S    
C7    C9    1.421475 A    
C17   C22   1.402182 A    
C19   C21   1.411608 A    
C20   C22   1.411619 A    
C25   C33   1.403835 A    
C30   H11   1.073279 S    
C6    C16   1.396028 A    
C31   C35   1.427578 A    
C56   H20   1.084182 S    
C18   C20   1.410802 A    
C5    H3    1.082622 S    
C38   C40   1.384919 A    
N1    C45   1.381848 A    
C58   H32   1.108219 S    
C6    H4    1.082622 S    
C9    C11   1.405777 A    
O2    Cu2   1.947025 S    
C17   C57   1.521572 S    
O5    Cu1   1.951399 S    
C41   H23   1.083752 S    
C13   H7    1.082565 S    
N4    O11   1.299889 A    
C2    C24   1.461965 S    
C23   C27   1.397951 A    
C54   C56   1.389993 A    
H1    C15   1.082210 S    
