data_mof_unit_14275.cif
_audit_creation_date              2013-03-05T16:07:27-0500
_audit_creation_method            fapswitch 2.2
_symmetry_space_group_name_H-M    P1
_symmetry_Int_Tables_number       1
_space_group_crystal_system       triclinic
_cell_length_a                    19.44962
_cell_length_b                    7.102809
_cell_length_c                    17.562412
_cell_angle_alpha                 90.136481
_cell_angle_beta                  108.590664
_cell_angle_gamma                 89.720107
_cell_volume                      2299.56722294

loop_
_atom_site_label
_atom_site_type_symbol
_atom_site_description
_atom_site_fract_x
_atom_site_fract_y
_atom_site_fract_z
_atom_type_partial_charge
O1    O     O_R   0.413720 0.494330 0.415730 -0.587311
O2    O     O_R   0.586280 0.994330 0.584270 -0.587632
O3    O     O_R   0.560210 0.819300 0.430070 -0.603219
O4    O     O_R   0.439790 0.319300 0.569930 -0.600568
C1    C     C_R   0.581580 0.655032 0.414703 0.960365
C2    C     C_R   0.418604 0.155668 0.585572 0.961404
O5    O     O_R   0.412670 0.823730 0.406310 -0.595755
O6    O     O_R   0.587330 0.323730 0.593690 -0.595288
O7    O     O_R   0.437690 0.998790 0.560340 -0.597452
O8    O     O_R   0.562310 0.498790 0.439660 -0.593280
C3    C     C_R   0.385470 0.655424 0.383371 0.939570
C4    C     C_R   0.614517 0.155048 0.616657 0.941369
O9    O     O_3   0.508380 0.662350 0.550560 -0.285819
O10   O     O_3   0.491620 0.162350 0.449440 -0.286186
V1    V     V_3+5 0.498450 0.935370 0.490620 1.147092
V2    V     V_3+5 0.501550 0.435370 0.509380 1.149547
C5    C     C_R   0.733042 0.996673 0.690524 0.161094
C6    C     C_R   0.267182 0.498471 0.309603 0.166550
C7    C     C_R   0.684490 0.147044 0.683019 -0.209480
C8    C     C_R   0.315557 0.648012 0.316946 -0.211525
C9    C     C_R   0.707142 0.296394 0.738272 -0.177526
C10   C     C_R   0.293050 0.796103 0.261017 -0.179745
H1    H     H_    0.672567 0.418168 0.734209 0.131566
H2    H     H_    0.327487 0.917246 0.264938 0.131201
C11   C     C_R   0.772563 0.284550 0.802797 -0.077210
C12   C     C_R   0.227919 0.783667 0.196091 -0.067408
H3    H     H_    0.785902 0.397488 0.846443 0.121295
H4    H     H_    0.214535 0.895807 0.152136 0.120905
C13   C     C_R   0.818032 0.124399 0.813395 -0.255317
C14   C     C_R   0.182674 0.624148 0.185719 -0.250133
C15   C     C_R   0.798589 0.986859 0.752959 0.152480
C16   C     C_R   0.202278 0.487816 0.246330 0.141084
C17   C     C_3   0.793741 0.777569 0.757719 0.162129
C18   C     C_3   0.208330 0.279076 0.241466 0.148582
C19   C     C_3   0.721193 0.789332 0.690404 -0.607042
C20   C     C_3   0.279539 0.290853 0.310563 -0.595773
H5    H     H_    0.789911 0.727684 0.816202 0.047398
H6    H     H_    0.214234 0.229874 0.183675 0.048250
H7    H     H_    0.674178 0.753522 0.710563 0.176824
H8    H     H_    0.327663 0.253476 0.292419 0.176485
H9    H     H_    0.720565 0.722238 0.632933 0.234739
H10   H     H_    0.278428 0.224930 0.367511 0.233376
C21   C     C_R   0.324195 0.991019 0.629742 -0.227567
C22   C     C_R   0.677979 0.799922 0.368224 -0.226389
C23   C     C_R   0.369208 0.148003 0.634701 -0.149401
C24   C     C_R   0.631525 0.647514 0.366265 -0.146170
C25   C     C_R   0.365621 0.298934 0.685470 -0.256607
C26   C     C_R   0.633388 0.489881 0.318250 -0.257704
C27   C     C_R   0.318288 0.292847 0.731392 0.155082
C28   C     C_R   0.680078 0.485832 0.271390 0.156493
C29   C     C_R   0.272717 0.135585 0.725350 0.065203
C30   C     C_R   0.726890 0.639091 0.274206 0.063509
C31   C     C_R   0.275434 0.985091 0.673806 0.145466
C32   C     C_R   0.726191 0.795545 0.323525 0.144259
C33   C     C_R   0.315497 0.441615 0.783035 -0.235404
C34   C     C_R   0.680828 0.331368 0.221718 -0.233442
C35   C     C_R   0.268239 0.434486 0.828571 -0.184063
C36   C     C_R   0.727380 0.328650 0.175225 -0.192765
C37   C     C_R   0.222316 0.279399 0.822664 0.155875
C38   C     C_R   0.774621 0.479432 0.178169 0.152032
C39   C     C_R   0.224054 0.129452 0.770459 -0.003767
C40   C     C_R   0.774749 0.635387 0.228069 0.000619
C41   C     C_R   0.176680 0.974852 0.762376 -0.033131
C42   C     C_R   0.823288 0.786126 0.232929 -0.030166
C43   C     C_R   0.179332 0.827826 0.709234 -0.105365
C44   C     C_R   0.822609 0.939283 0.283909 -0.111496
C45   C     C_R   0.228676 0.832027 0.666357 -0.211635
C46   C     C_R   0.774146 0.944615 0.327892 -0.206055
C47   C     C_R   0.175029 0.272074 0.868390 -0.198502
C48   C     C_R   0.821652 0.476237 0.132054 -0.212707
C49   C     C_R   0.127305 0.120112 0.861225 -0.292747
C50   C     C_R   0.870783 0.623773 0.136460 -0.290366
C51   C     C_R   0.126862 0.972794 0.806170 0.282527
C52   C     C_R   0.872477 0.777955 0.188408 0.277776
H11   H     H_    0.325919 0.874973 0.590146 0.144360
H12   H     H_    0.677543 0.921004 0.405819 0.143009
H13   H     H_    0.400176 0.420501 0.689857 0.139313
H14   H     H_    0.597634 0.372024 0.316280 0.137734
H15   H     H_    0.349914 0.563678 0.788250 0.138336
H16   H     H_    0.645399 0.212414 0.218825 0.138252
H17   H     H_    0.267213 0.551257 0.868032 0.135744
H18   H     H_    0.726907 0.207475 0.137444 0.136407
H19   H     H_    0.175911 0.384732 0.910449 0.160816
H20   H     H_    0.819737 0.358406 0.092087 0.163295
H21   H     H_    0.143662 0.707775 0.700474 0.191910
H22   H     H_    0.859156 0.056770 0.290019 0.191770
H23   H     H_    0.229810 0.715665 0.626730 0.153615
H24   H     H_    0.774525 0.065436 0.365841 0.154619
O11   O     O_R   0.937800 0.775460 0.060470 -0.577609
O12   O     O_R   0.062200 0.275460 0.939530 -0.581813
O13   O     O_R   0.087350 0.441340 0.093710 -0.604142
O14   O     O_R   0.912650 0.941340 0.906290 -0.596633
C53   C     C_R   0.114971 0.610205 0.116184 0.948640
C54   C     C_R   0.885332 0.110467 0.883425 0.952098
O15   O     O_R   0.939820 0.446010 0.069950 -0.572574
O16   O     O_R   0.060180 0.946010 0.930050 -0.574983
O17   O     O_R   0.913690 0.271230 0.915700 -0.579004
O18   O     O_R   0.086310 0.771230 0.084300 -0.568143
C55   C     C_R   0.919350 0.614861 0.085826 0.982595
C56   C     C_R   0.080024 0.113963 0.913405 0.981241
O19   O     O_3   0.991670 0.603050 0.949510 -0.238065
O20   O     O_3   0.008330 0.103050 0.050490 -0.228821
V3    V     V_3+5 0.001550 0.329940 0.009370 1.275373
V4    V     V_3+5 0.998450 0.829940 0.990630 1.287903
N1    N     N_R   0.072989 0.828111 0.791059 0.243919
O21   O     O_R   0.004665 0.871931 0.760939 -0.321292
O22   O     O_R   0.091572 0.655712 0.813299 -0.404631
N2    N     N_R   0.928207 0.916634 0.201276 0.242148
O23   O     O_R   0.912365 0.087754 0.175197 -0.401509
O24   O     O_R   0.995351 0.869778 0.237830 -0.313466
N3    N     N_R   0.850167 0.682435 0.733033 0.280462
O25   O     O_R   0.892046 0.558531 0.780153 -0.330270
O26   O     O_R   0.860376 0.723483 0.665212 -0.329859
N4    N     N_R   0.150855 0.183631 0.263241 0.272277
O27   O     O_R   0.110688 0.060740 0.214311 -0.313958
O28   O     O_R   0.136203 0.228333 0.328379 -0.342097

loop_
_geom_bond_atom_site_label_1
_geom_bond_atom_site_label_2
_geom_bond_distance
_ccdc_geom_bond_type
C44   C46   1.396541 A    
C41   C43   1.410605 A    
C2    C23   1.483130 S    
C20   H10   1.111802 S    
N3    O25   1.299800 A    
O1    C3    1.316035 A    
O2    C4    1.316104 A    
C2    O7    1.293940 A    
N4    O27   1.298349 A    
C25   C27   1.404921 A    
O5    C3    1.318807 A    
N1    O22   1.300223 A    
O11   C55   1.317801 A    
C7    C9    1.410013 A    
C14   C53   1.486760 S    
C36   H18   1.083779 S    
C13   C54   1.486142 S    
O15   C55   1.318766 A    
C35   C37   1.404262 A    
C32   C46   1.400197 A    
C49   C56   1.491727 S    
C36   C38   1.404615 A    
N2    O23   1.300384 A    
C38   C40   1.410348 A    
C26   H14   1.084316 S    
C47   C49   1.406101 A    
C40   C42   1.415246 A    
C17   C19   1.526853 S    
C21   C31   1.403046 A    
C22   C24   1.406746 A    
C27   C29   1.411973 A    
C29   C39   1.415630 A    
C28   C30   1.413195 A    
C15   C17   1.494222 S    
C17   N3    1.464146 S    
C48   H20   1.084137 S    
C6    C8    1.400640 A    
C30   C32   1.409996 A    
O5    V1    2.009214 S    
O6    V2    2.005563 S    
C11   C13   1.413122 A    
C19   H9    1.111713 S    
O12   C56   1.319664 A    
O15   V3    2.013392 S    
C23   C25   1.408379 A    
C21   H11   1.084416 S    
C18   N4    1.461741 S    
C24   C26   1.407333 A    
C3    C8    1.483810 S    
C37   C39   1.410959 A    
C48   C50   1.406943 A    
C20   H8    1.111509 S    
C50   C52   1.417448 A    
C49   C51   1.421214 A    
C41   C51   1.416319 A    
C54   O17   1.316473 A    
C43   C45   1.396476 A    
C27   C33   1.402977 A    
C28   C34   1.402965 A    
C29   C31   1.410750 A    
C42   C44   1.409948 A    
O4    V2    2.020328 S    
C19   H7    1.111463 S    
C47   H19   1.084180 S    
O13   C53   1.323567 A    
C33   H15   1.083673 S    
C51   N1    1.433990 S    
C38   C48   1.401873 A    
O6    C4    1.318297 A    
C39   C41   1.414460 A    
N3    O26   1.302376 A    
O1    V2    2.000873 S    
O20   V4    2.184093 S    
O2    V1    2.002725 S    
C21   C23   1.406350 A    
O17   V3    2.002889 S    
C37   C47   1.401817 A    
O4    C2    1.294005 A    
C8    C10   1.410353 A    
C12   C14   1.413466 A    
O19   V4    1.752665 S    
C33   C35   1.398690 A    
O11   V4    1.993727 S    
C5    C15   1.393074 A    
C10   H2    1.081516 S    
C6    C16   1.392915 A    
C25   H13   1.084225 S    
O3    V1    2.013459 S    
N1    O21   1.300452 A    
O16   V4    2.020258 S    
C9    C11   1.410784 A    
C18   H6    1.112513 S    
C45   H23   1.083885 S    
O13   V3    2.009019 S    
O3    C1    1.293140 A    
C44   H22   1.081611 S    
N4    O28   1.302299 A    
N2    O24   1.300211 A    
C43   H21   1.081284 S    
C11   H3    1.081969 S    
C1    C24   1.482009 S    
C12   H4    1.082074 S    
C34   H16   1.083711 S    
C9    H1    1.081405 S    
O7    V1    2.003384 S    
C1    O8    1.294317 A    
C13   C15   1.402393 A    
C30   C40   1.415735 A    
C14   C16   1.399536 A    
O14   C54   1.321610 A    
C46   H24   1.083930 S    
O16   C56   1.317427 A    
C4    C7    1.483903 S    
C26   C28   1.406725 A    
C5    C7    1.400459 A    
C34   C36   1.399305 A    
C18   C20   1.525387 S    
O20   V3    1.754644 S    
C31   C45   1.399747 A    
C35   H17   1.083754 S    
C17   H5    1.112130 S    
O12   V3    1.990352 S    
O14   V4    2.005375 S    
C52   N2    1.431566 S    
C22   C32   1.401966 A    
O19   V3    2.186871 S    
C10   C12   1.411507 A    
O9    V2    1.753610 S    
C42   C52   1.416413 A    
O10   V1    1.755584 S    
O8    V2    2.007287 S    
C5    C19   1.491637 S    
C22   H12   1.084634 S    
C6    C20   1.492243 S    
C53   O18   1.315381 A    
O18   V4    2.001044 S    
C16   C18   1.491134 S    
C50   C55   1.490569 S    
