data_mof_unit_61341.cif
_audit_creation_date              2012-12-10T17:42:00-0500
_audit_creation_method            fapswitch 2.2
_symmetry_space_group_name_H-M    P1
_symmetry_Int_Tables_number       1
_space_group_crystal_system       triclinic
_cell_length_a                    30.403554
_cell_length_b                    30.403124
_cell_length_c                    23.669341
_cell_angle_alpha                 89.998812
_cell_angle_beta                  90.000476
_cell_angle_gamma                 90.000176
_cell_volume                      21879.0635771

loop_
_atom_site_label
_atom_site_type_symbol
_atom_type_description
_atom_site_fract_x
_atom_site_fract_y
_atom_site_fract_z
_atom_type_partial_charge
C1    C     C_R   0.584998 0.000000 0.500000 0.888020
C2    C     C_R   0.000000 0.584997 0.500001 0.888197
C3    C     C_R   0.415000 1.000000 0.499999 0.887704
C4    C     C_R   1.000000 0.415001 0.499999 0.887867
C5    C     C_R   0.084999 0.500000 0.000000 0.887945
C6    C     C_R   0.500000 0.084998 0.000001 0.888038
C7    C     C_R   0.915001 0.500000 0.000000 0.887901
C8    C     C_R   0.500000 0.915003 0.000001 0.888097
C9    C     C_R   0.843087 0.002019 0.551155 -0.193509
C10   C     C_R   0.998049 0.843085 0.551162 -0.193520
C11   C     C_R   0.156910 0.997878 0.551153 -0.193528
C12   C     C_R   0.002072 0.156911 0.551153 -0.193518
C13   C     C_R   0.156911 0.002122 0.448852 -0.193518
C14   C     C_R   0.001950 0.843086 0.448840 -0.193506
C15   C     C_R   0.843087 0.997980 0.448842 -0.193521
C16   C     C_R   0.997929 0.156912 0.448845 -0.193533
C17   C     C_R   0.343087 0.502050 0.051153 -0.193519
C18   C     C_R   0.497995 0.343086 0.051158 -0.193521
C19   C     C_R   0.656913 0.497944 0.051154 -0.193518
C20   C     C_R   0.501988 0.656913 0.051157 -0.193513
C21   C     C_R   0.656911 0.502056 0.948845 -0.193516
C22   C     C_R   0.502006 0.343088 0.948842 -0.193514
C23   C     C_R   0.343088 0.497952 0.948843 -0.193515
C24   C     C_R   0.498015 0.656914 0.948840 -0.193516
C25   C     C_R   0.866388 1.000000 0.499999 -0.032911
C26   C     C_R   1.000000 0.866387 0.500001 -0.032919
C27   C     C_R   0.133611 1.000000 0.500002 -0.032899
C28   C     C_R   0.000000 0.133611 0.499999 -0.032896
C29   C     C_R   0.366388 0.500000 0.999999 -0.032905
C30   C     C_R   0.500000 0.366387 0.000000 -0.032909
C31   C     C_R   0.633612 0.500000 1.000000 -0.032906
C32   C     C_R   0.500001 0.633613 0.999999 -0.032913
C33   C     C_R   0.774033 1.000000 0.499997 0.158849
C34   C     C_R   0.999999 0.774030 0.500002 0.158855
C35   C     C_R   0.225964 1.000000 0.500005 0.158847
C36   C     C_R   0.000000 0.225965 0.499999 0.158860
C37   C     C_R   0.274034 0.500001 0.999997 0.158852
C38   C     C_R   0.500000 0.274032 0.999999 0.158859
C39   C     C_R   0.725966 0.500000 0.999998 0.158849
C40   C     C_R   0.500003 0.725969 0.999998 0.158857
C41   C     C_R   1.000000 0.914739 0.500000 0.800403
C42   C     C_R   0.085260 1.000000 0.500000 0.800403
C43   C     C_R   0.000000 0.085260 0.499999 0.800410
C44   C     C_R   0.914739 1.000000 0.500000 0.800401
C45   C     C_R   0.500000 0.414739 0.000000 0.800406
C46   C     C_R   0.585260 0.500000 0.000000 0.800403
C47   C     C_R   0.500000 0.585261 1.000000 0.800406
C48   C     C_R   0.414740 0.500000 1.000000 0.800404
C49   C     C_R   0.500000 1.000000 0.608136 0.837540
C50   C     C_R   0.000000 0.500000 0.608136 0.837631
C51   C     C_R   0.500000 0.000000 0.391864 0.837538
C52   C     C_R   1.000000 0.500000 0.391864 0.837632
C53   C     C_R   1.000000 0.500000 0.108136 0.837567
C54   C     C_R   0.500000 1.000000 0.108135 0.837648
C55   C     C_R   0.000000 0.500000 0.891864 0.837584
C56   C     C_R   0.500000 1.000000 0.891864 0.837654
C57   C     C_1   0.500000 0.999999 0.668991 -0.156793
C58   C     C_1   0.000000 0.500001 0.668991 -0.156744
C59   C     C_1   0.500001 0.000001 0.331009 -0.156791
C60   C     C_1   1.000000 0.500000 0.331009 -0.156740
C61   C     C_1   1.000000 0.499999 0.168991 -0.156771
C62   C     C_1   0.500001 0.000000 0.168991 -0.156727
C63   C     C_1   0.000000 0.500001 0.831009 -0.156782
C64   C     C_1   0.499999 1.000000 0.831009 -0.156732
C65   C     C_1   0.500000 0.999999 0.720063 0.005444
C66   C     C_1   0.000000 0.500001 0.720062 0.005443
C67   C     C_1   0.500001 0.000001 0.279937 0.005445
C68   C     C_1   1.000000 0.500000 0.279938 0.005450
C69   C     C_1   1.000000 0.499999 0.220063 0.005452
C70   C     C_1   0.500001 0.000000 0.220062 0.005448
C71   C     C_1   0.000000 0.500001 0.779937 0.005441
C72   C     C_1   0.500000 0.999999 0.779938 0.005445
C73   C     C_R   0.702453 0.970366 0.465863 -0.266274
C74   C     C_R   0.029575 0.702450 0.465783 -0.266244
C75   C     C_R   0.297538 0.029723 0.465996 -0.266219
C76   C     C_R   0.970325 0.297543 0.465921 -0.266265
C77   C     C_R   0.297540 0.970279 0.534015 -0.266228
C78   C     C_R   0.970423 0.702448 0.534221 -0.266256
C79   C     C_R   0.702455 0.029635 0.534130 -0.266254
C80   C     C_R   0.029674 0.297542 0.534075 -0.266247
C81   C     C_R   0.202455 0.470346 0.965892 -0.266276
C82   C     C_R   0.529622 0.202453 0.965847 -0.266263
C83   C     C_R   0.797544 0.529666 0.965907 -0.266259
C84   C     C_R   0.470396 0.797548 0.965823 -0.266269
C85   C     C_R   0.797543 0.470331 0.034085 -0.266160
C86   C     C_R   0.470376 0.202453 0.034149 -0.266219
C87   C     C_R   0.202456 0.529656 0.034101 -0.266229
C88   C     C_R   0.529608 0.797548 0.034174 -0.266261
C89   C     C_R   0.656366 0.969251 0.466766 0.383850
C90   C     C_R   0.030690 0.656362 0.466680 0.383807
C91   C     C_R   0.343624 0.030835 0.466898 0.383910
C92   C     C_R   0.969212 0.343630 0.466825 0.383882
C93   C     C_R   0.343625 0.969165 0.533105 0.383882
C94   C     C_R   0.969309 0.656360 0.533323 0.383818
C95   C     C_R   0.656368 0.030749 0.533231 0.383854
C96   C     C_R   0.030787 0.343630 0.533172 0.383859
C97   C     C_R   0.156368 0.469231 0.966796 0.383868
C98   C     C_R   0.530735 0.156365 0.966747 0.383848
C99   C     C_R   0.843631 0.530778 0.966809 0.383891
C100  C     C_R   0.469280 0.843636 0.966723 0.383841
C101  C     C_R   0.843629 0.469220 0.033184 0.383842
C102  C     C_R   0.469263 0.156365 0.033251 0.383847
C103  C     C_R   0.156370 0.530768 0.033202 0.383849
C104  C     C_R   0.530721 0.843636 0.033278 0.383835
C105  C     C_R   0.633272 0.000000 0.499999 -0.203542
C106  C     C_R   1.000000 0.633269 0.500001 -0.203427
C107  C     C_R   0.366723 1.000000 0.500000 -0.203778
C108  C     C_R   0.999999 0.366726 0.499999 -0.203625
C109  C     C_R   0.133273 0.500000 0.000000 -0.203594
C110  C     C_R   0.500000 0.133271 0.000000 -0.203529
C111  C     C_R   0.866726 0.499999 0.999998 -0.203662
C112  C     C_R   0.500000 0.866730 0.000001 -0.203474
C113  C     C_R   0.725606 0.000000 0.499996 -0.021147
C114  C     C_R   0.999999 0.725602 0.500002 -0.021127
C115  C     C_R   0.274388 0.000001 0.500006 -0.021230
C116  C     C_R   0.000000 0.274391 0.499999 -0.021175
C117  C     C_R   0.225607 0.500001 0.999996 -0.021163
C118  C     C_R   0.499999 0.225605 0.999999 -0.021157
C119  C     C_R   0.774392 0.499999 0.999997 -0.021204
C120  C     C_R   0.500003 0.774396 0.999998 -0.021130
C121  C     C_R   0.797271 0.002083 0.551133 -0.170909
C122  C     C_R   0.997986 0.797269 0.551142 -0.170907
C123  C     C_R   0.202726 0.997812 0.551133 -0.170908
C124  C     C_R   0.002136 0.202726 0.551132 -0.170916
C125  C     C_R   0.202727 0.002187 0.448875 -0.170910
C126  C     C_R   0.002012 0.797270 0.448861 -0.170909
C127  C     C_R   0.797272 0.997917 0.448862 -0.170907
C128  C     C_R   0.997864 0.202728 0.448866 -0.170913
C129  C     C_R   0.297272 0.502114 0.051132 -0.170911
C130  C     C_R   0.497932 0.297270 0.051137 -0.170910
C131  C     C_R   0.702728 0.497879 0.051132 -0.170906
C132  C     C_R   0.502052 0.702729 0.051136 -0.170912
C133  C     C_R   0.702727 0.502121 0.948865 -0.170908
C134  C     C_R   0.502069 0.297272 0.948862 -0.170913
C135  C     C_R   0.297272 0.497888 0.948863 -0.170906
C136  C     C_R   0.497953 0.702730 0.948859 -0.170909
Cu1   Cu    Cu3+1 0.500000 0.044070 0.500000 0.963426
Cu2   Cu    Cu3+1 0.955930 0.500000 0.500000 0.963437
Cu3   Cu    Cu3+1 0.500000 0.955930 0.500000 0.963414
Cu4   Cu    Cu3+1 0.044070 0.500000 0.500000 0.963415
Cu5   Cu    Cu3+1 0.000000 0.544070 0.000000 0.963427
Cu6   Cu    Cu3+1 0.455930 0.000000 0.000000 0.963434
Cu7   Cu    Cu3+1 0.000000 0.455930 0.000000 0.963394
Cu8   Cu    Cu3+1 0.544070 0.000000 0.000000 0.963436
Cu9   Cu    Cu3+1 0.000000 0.000000 0.555800 0.934444
Cu10  Cu    Cu3+1 0.000000 0.000000 0.444200 0.934445
Cu11  Cu    Cu3+1 0.500000 0.500000 0.055800 0.934445
Cu12  Cu    Cu3+1 0.500000 0.500000 0.944200 0.934443
H1    H     H_    0.720156 0.947645 0.438958 0.147520
H2    H     H_    0.052249 0.720155 0.438815 0.147496
H3    H     H_    0.279835 0.052512 0.439186 0.147561
H4    H     H_    0.947572 0.279839 0.439063 0.147525
H5    H     H_    0.279839 0.947489 0.560828 0.147588
H6    H     H_    0.947751 0.720152 0.561192 0.147491
H7    H     H_    0.720159 0.052357 0.561033 0.147513
H8    H     H_    0.052430 0.279839 0.560933 0.147537
H9    H     H_    0.220157 0.447609 0.939007 0.147529
H10   H     H_    0.552332 0.220158 0.938930 0.147505
H11   H     H_    0.779840 0.552411 0.939036 0.147523
H12   H     H_    0.447699 0.779844 0.938886 0.147498
H13   H     H_    0.779841 0.447582 0.060951 0.147546
H14   H     H_    0.447664 0.220157 0.061065 0.147499
H15   H     H_    0.220160 0.552395 0.060981 0.147528
H16   H     H_    0.552306 0.779843 0.061110 0.147497
H17   H     H_    0.779976 0.003224 0.591112 0.131243
H18   H     H_    0.996901 0.779973 0.591125 0.131229
H19   H     H_    0.220022 0.996587 0.591108 0.131262
H20   H     H_    0.003320 0.220022 0.591109 0.131250
H21   H     H_    0.220024 0.003413 0.408901 0.131260
H22   H     H_    0.003097 0.779975 0.408879 0.131232
H23   H     H_    0.779976 0.996775 0.408882 0.131241
H24   H     H_    0.996681 0.220024 0.408888 0.131246
H25   H     H_    0.279977 0.503280 0.091109 0.131243
H26   H     H_    0.496802 0.279973 0.091116 0.131241
H27   H     H_    0.720025 0.496707 0.091109 0.131256
H28   H     H_    0.503167 0.720024 0.091117 0.131233
H29   H     H_    0.720022 0.503292 0.908887 0.131243
H30   H     H_    0.503199 0.279977 0.908882 0.131237
H31   H     H_    0.279977 0.496723 0.908885 0.131244
H32   H     H_    0.496839 0.720026 0.908879 0.131236
H33   H     H_    0.860212 0.003534 0.591225 0.152910
H34   H     H_    0.996589 0.860210 0.591236 0.152908
H35   H     H_    0.139784 0.996280 0.591216 0.152903
H36   H     H_    0.003629 0.139785 0.591221 0.152910
H37   H     H_    0.139786 0.003719 0.408788 0.152907
H38   H     H_    0.003410 0.860212 0.408766 0.152914
H39   H     H_    0.860213 0.996466 0.408772 0.152905
H40   H     H_    0.996371 0.139787 0.408778 0.152905
H41   H     H_    0.360212 0.503589 0.091222 0.152905
H42   H     H_    0.496491 0.360210 0.091229 0.152908
H43   H     H_    0.639788 0.496399 0.091222 0.152907
H44   H     H_    0.503477 0.639787 0.091230 0.152909
H45   H     H_    0.639785 0.503601 0.908777 0.152906
H46   H     H_    0.503510 0.360214 0.908771 0.152909
H47   H     H_    0.360213 0.496412 0.908775 0.152907
H48   H     H_    0.496526 0.639789 0.908768 0.152909
O1    O     O_R   0.564260 0.037220 0.500020 -0.577060
O2    O     O_R   0.962780 0.564260 0.500020 -0.577140
O3    O     O_R   0.435740 0.962780 0.500020 -0.577010
O4    O     O_R   0.037220 0.435740 0.500020 -0.577040
O5    O     O_R   0.435740 0.037220 0.499980 -0.576982
O6    O     O_R   0.037220 0.564260 0.499980 -0.577148
O7    O     O_R   0.564260 0.962780 0.499980 -0.577059
O8    O     O_R   0.962780 0.435740 0.499980 -0.577017
O9    O     O_R   0.064260 0.537220 0.000020 -0.577062
O10   O     O_R   0.462780 0.064260 0.000020 -0.577099
O11   O     O_R   0.935740 0.462780 0.000020 -0.577100
O12   O     O_R   0.537220 0.935740 0.000020 -0.577104
O13   O     O_R   0.935740 0.537220 0.999980 -0.577016
O14   O     O_R   0.537220 0.064260 0.999980 -0.577081
O15   O     O_R   0.064260 0.462780 0.999980 -0.577036
O16   O     O_R   0.462780 0.935740 0.999980 -0.577091
O17   O     O_R   0.499990 0.037220 0.581420 -0.581085
O18   O     O_R   0.962780 0.499990 0.581420 -0.581098
O19   O     O_R   0.500010 0.962780 0.581420 -0.581031
O20   O     O_R   0.037220 0.500010 0.581420 -0.581032
O21   O     O_R   0.500010 0.037220 0.418580 -0.581030
O22   O     O_R   0.037220 0.499990 0.418580 -0.581101
O23   O     O_R   0.499990 0.962780 0.418580 -0.581086
O24   O     O_R   0.962780 0.500010 0.418580 -0.581027
O25   O     O_R   0.999990 0.537220 0.081420 -0.581062
O26   O     O_R   0.462780 0.999990 0.081420 -0.581062
O27   O     O_R   0.000010 0.462780 0.081420 -0.581063
O28   O     O_R   0.537220 0.000010 0.081420 -0.581074
O29   O     O_R   0.000010 0.537220 0.918580 -0.581056
O30   O     O_R   0.537220 0.999990 0.918580 -0.581060
O31   O     O_R   0.999990 0.462780 0.918580 -0.581064
O32   O     O_R   0.462780 0.000010 0.918580 -0.581070
O33   O     O_R   0.999990 0.935770 0.547120 -0.590134
O34   O     O_R   0.064230 0.999990 0.547120 -0.590133
O35   O     O_R   0.000010 0.064230 0.547120 -0.590120
O36   O     O_R   0.935770 0.000010 0.547120 -0.590115
O37   O     O_R   0.000010 0.935770 0.452880 -0.590120
O38   O     O_R   0.935770 0.999990 0.452880 -0.590134
O39   O     O_R   0.999990 0.064230 0.452880 -0.590134
O40   O     O_R   0.064230 0.000010 0.452880 -0.590114
O41   O     O_R   0.499990 0.435770 0.047120 -0.590126
O42   O     O_R   0.564230 0.499990 0.047120 -0.590122
O43   O     O_R   0.500010 0.564230 0.047120 -0.590126
O44   O     O_R   0.435770 0.500010 0.047120 -0.590125
O45   O     O_R   0.500010 0.435770 0.952880 -0.590127
O46   O     O_R   0.435770 0.499990 0.952880 -0.590123
O47   O     O_R   0.499990 0.564230 0.952880 -0.590127
O48   O     O_R   0.564230 0.500010 0.952880 -0.590127
O49   O     O_3   0.633489 0.941541 0.430690 -0.602311
C137  C     C_3   0.641948 0.896787 0.443470 0.085056
H49   H     H_    0.610393 0.881437 0.456615 0.166243
H50   H     H_    0.665685 0.891341 0.478843 0.120040
C138  C     C_3   0.658611 0.873464 0.390389 -0.341268
H51   H     H_    0.633970 0.877091 0.356001 0.231586
H52   H     H_    0.689854 0.888915 0.376276 0.212690
C139  C     C_3   0.666570 0.824638 0.401264 -0.933229
H53   H     H_    0.691844 0.820223 0.434681 0.256377
H54   H     H_    0.678454 0.808708 0.361908 0.259158
H55   H     H_    0.635564 0.808331 0.414599 0.255776
O50   O     O_3   0.058335 0.633483 0.430525 -0.602394
C140  C     C_3   0.103111 0.641948 0.443164 0.085066
H56   H     H_    0.118497 0.610387 0.456217 0.166259
H57   H     H_    0.108620 0.665658 0.478550 0.120056
C141  C     C_3   0.126322 0.658659 0.390026 -0.341294
H58   H     H_    0.122635 0.634043 0.355618 0.231597
H59   H     H_    0.110837 0.689909 0.376001 0.212665
C142  C     C_3   0.175168 0.666623 0.400749 -0.933196
H60   H     H_    0.179642 0.691867 0.434191 0.256371
H61   H     H_    0.191014 0.678551 0.361358 0.259156
H62   H     H_    0.191511 0.635610 0.413980 0.255782
O51   O     O_3   0.366487 0.058649 0.430938 -0.602185
C143  C     C_3   0.358076 0.103364 0.443990 0.085111
H63   H     H_    0.389656 0.118641 0.457174 0.166274
H64   H     H_    0.334373 0.108703 0.479425 0.120028
C144  C     C_3   0.341384 0.126893 0.391071 -0.341347
H65   H     H_    0.365990 0.123371 0.356625 0.231581
H66   H     H_    0.310113 0.111521 0.376916 0.212687
C145  C     C_3   0.333477 0.175687 0.402249 -0.933202
H67   H     H_    0.308241 0.180002 0.435735 0.256377
H68   H     H_    0.321562 0.191769 0.363008 0.259156
H69   H     H_    0.364511 0.191920 0.415625 0.255767
O52   O     O_3   0.941457 0.366504 0.430803 -0.602256
C146  C     C_3   0.896721 0.358056 0.443693 0.085099
H70   H     H_    0.881392 0.389618 0.456847 0.166242
H71   H     H_    0.891322 0.334335 0.479098 0.120024
C147  C     C_3   0.873322 0.341367 0.390680 -0.341300
H72   H     H_    0.876901 0.365992 0.356262 0.231594
H73   H     H_    0.888750 0.310116 0.376555 0.212681
C148  C     C_3   0.824512 0.333415 0.401675 -0.933218
H74   H     H_    0.820144 0.308161 0.435127 0.256375
H75   H     H_    0.808526 0.321507 0.362367 0.259164
H76   H     H_    0.808226 0.364430 0.415016 0.255779
O53   O     O_3   0.366489 0.941353 0.569065 -0.602183
C149  C     C_3   0.358091 0.896638 0.555997 0.085071
H77   H     H_    0.389663 0.881386 0.542735 0.166271
H78   H     H_    0.334343 0.891297 0.520610 0.120026
C150  C     C_3   0.341479 0.873079 0.608932 -0.341274
H79   H     H_    0.366127 0.876598 0.643330 0.231576
H80   H     H_    0.310218 0.888429 0.623163 0.212733
C151  C     C_3   0.333582 0.824285 0.597740 -0.933261
H81   H     H_    0.308294 0.819970 0.564319 0.256384
H82   H     H_    0.321741 0.808179 0.637001 0.259159
H83   H     H_    0.364604 0.808076 0.584271 0.255769
O54   O     O_3   0.941668 0.633478 0.569483 -0.602397
C152  C     C_3   0.896891 0.641949 0.556864 0.085053
H84   H     H_    0.881499 0.610392 0.543809 0.166257
H85   H     H_    0.891375 0.665667 0.521487 0.120055
C153  C     C_3   0.873693 0.658652 0.610016 -0.341290
H86   H     H_    0.877391 0.634030 0.644416 0.231605
H87   H     H_    0.889182 0.689900 0.624040 0.212661
C154  C     C_3   0.824845 0.666617 0.599317 -0.933196
H88   H     H_    0.820361 0.691869 0.565886 0.256371
H89   H     H_    0.809008 0.678535 0.638719 0.259156
H90   H     H_    0.808499 0.635605 0.586083 0.255783
O55   O     O_3   0.633493 0.058462 0.569305 -0.602311
C155  C     C_3   0.641949 0.103214 0.556517 0.085082
H91   H     H_    0.610388 0.118568 0.543405 0.166249
H92   H     H_    0.665664 0.108658 0.521119 0.120038
C156  C     C_3   0.658649 0.126536 0.609580 -0.341302
H93   H     H_    0.634030 0.122912 0.643995 0.231589
H94   H     H_    0.689900 0.111085 0.623661 0.212672
C157  C     C_3   0.666604 0.175363 0.598696 -0.933211
H95   H     H_    0.691850 0.179775 0.565244 0.256375
H96   H     H_    0.678523 0.191291 0.638036 0.259156
H97   H     H_    0.635589 0.191672 0.585404 0.255777
O56   O     O_3   0.058545 0.366501 0.569190 -0.602257
C158  C     C_3   0.103279 0.358069 0.556273 0.085106
H98   H     H_    0.118592 0.389636 0.543104 0.166253
H99   H     H_    0.108673 0.334347 0.520870 0.120021
C159  C     C_3   0.126704 0.341392 0.609274 -0.341295
H100  H     H_    0.123128 0.366015 0.643691 0.231589
H101  H     H_    0.111294 0.310134 0.623409 0.212687
C160  C     C_3   0.175514 0.333460 0.598251 -0.933229
H102  H     H_    0.179880 0.308206 0.564800 0.256378
H103  H     H_    0.191520 0.321563 0.637551 0.259162
H104  H     H_    0.191782 0.364480 0.584893 0.255776
O57   O     O_3   0.133493 0.441501 0.930744 -0.602279
C161  C     C_3   0.141945 0.396755 0.943574 0.085055
H105  H     H_    0.110390 0.381419 0.956746 0.166238
H106  H     H_    0.165689 0.391328 0.978944 0.120036
C162  C     C_3   0.158595 0.373392 0.890516 -0.341261
H107  H     H_    0.133946 0.376995 0.856131 0.231593
H108  H     H_    0.189837 0.388829 0.876372 0.212702
C163  C     C_3   0.166552 0.324573 0.901444 -0.933241
H109  H     H_    0.191840 0.320180 0.934849 0.256379
H110  H     H_    0.178419 0.308612 0.862100 0.259160
H111  H     H_    0.135550 0.308280 0.914819 0.255779
O58   O     O_3   0.558429 0.133488 0.930652 -0.602334
C164  C     C_3   0.603188 0.141949 0.943396 0.085084
H112  H     H_    0.618552 0.110388 0.956487 0.166257
H113  H     H_    0.608649 0.165661 0.978793 0.120036
C165  C     C_3   0.626476 0.158657 0.890311 -0.341307
H114  H     H_    0.622829 0.134043 0.855894 0.231598
H115  H     H_    0.611016 0.189911 0.876254 0.212659
C166  C     C_3   0.675308 0.166610 0.901145 -0.933201
H116  H     H_    0.679742 0.191850 0.934600 0.256373
H117  H     H_    0.691211 0.178538 0.861791 0.259157
H118  H     H_    0.691626 0.135592 0.914408 0.255781
O59   O     O_3   0.866505 0.558521 0.930770 -0.602276
C167  C     C_3   0.858057 0.603262 0.943628 0.085104
H119  H     H_    0.889622 0.618598 0.956758 0.166249
H120  H     H_    0.834346 0.608675 0.979038 0.120031
C168  C     C_3   0.841355 0.626638 0.890604 -0.341324
H121  H     H_    0.865970 0.623043 0.856179 0.231581
H122  H     H_    0.810100 0.611206 0.876504 0.212672
C169  C     C_3   0.833410 0.675455 0.901564 -0.933217
H123  H     H_    0.808165 0.679840 0.935024 0.256379
H124  H     H_    0.821492 0.691424 0.862250 0.259156
H125  H     H_    0.864429 0.691746 0.914879 0.255774
O60   O     O_3   0.441602 0.866516 0.930608 -0.602349
C170  C     C_3   0.396837 0.858041 0.943301 0.085067
H126  H     H_    0.381456 0.889596 0.956382 0.166247
H127  H     H_    0.391359 0.834322 0.978686 0.120044
C171  C     C_3   0.373588 0.841336 0.890186 -0.341294
H128  H     H_    0.377246 0.865960 0.855781 0.231607
H129  H     H_    0.389068 0.810091 0.876135 0.212662
C172  C     C_3   0.324752 0.833362 0.900967 -0.933196
H130  H     H_    0.320306 0.808113 0.934409 0.256371
H131  H     H_    0.308879 0.821437 0.861592 0.259160
H132  H     H_    0.308414 0.864372 0.914223 0.255784
O61   O     O_3   0.866496 0.441464 0.069211 -0.602265
C173  C     C_3   0.858098 0.396730 0.056257 0.085125
H133  H     H_    0.889685 0.381440 0.043123 0.166300
H134  H     H_    0.834408 0.391336 0.020818 0.120016
C174  C     C_3   0.841391 0.373273 0.109218 -0.341331
H135  H     H_    0.865976 0.376862 0.143679 0.231609
H136  H     H_    0.810105 0.388649 0.123307 0.212662
C175  C     C_3   0.833517 0.324458 0.098157 -0.933206
H137  H     H_    0.808310 0.320078 0.064648 0.256374
H138  H     H_    0.821581 0.308432 0.137424 0.259163
H139  H     H_    0.864569 0.308221 0.084864 0.255772
O62   O     O_3   0.441566 0.133488 0.069344 -0.602330
C176  C     C_3   0.396809 0.141938 0.056578 0.085117
H140  H     H_    0.381448 0.110367 0.043521 0.166267
H141  H     H_    0.391353 0.165624 0.021150 0.120033
C177  C     C_3   0.373510 0.158682 0.109635 -0.341344
H142  H     H_    0.377155 0.134095 0.144085 0.231618
H143  H     H_    0.388962 0.189950 0.123658 0.212638
C178  C     C_3   0.324679 0.166619 0.098779 -0.933187
H144  H     H_    0.320245 0.191833 0.065290 0.256372
H145  H     H_    0.308769 0.178576 0.138113 0.259160
H146  H     H_    0.308368 0.135588 0.085554 0.255783
O63   O     O_3   0.133498 0.558507 0.069246 -0.602284
C179  C     C_3   0.141933 0.603249 0.056375 0.085099
H147  H     H_    0.110364 0.618575 0.043243 0.166259
H148  H     H_    0.165642 0.608664 0.020963 0.120039
C180  C     C_3   0.158630 0.626638 0.109392 -0.341315
H149  H     H_    0.134017 0.623045 0.143818 0.231573
H150  H     H_    0.189889 0.611212 0.123496 0.212682
C181  C     C_3   0.166569 0.675454 0.098412 -0.933213
H151  H     H_    0.191812 0.679836 0.064950 0.256375
H152  H     H_    0.178485 0.691432 0.137721 0.259156
H153  H     H_    0.135548 0.691738 0.085092 0.255772
O64   O     O_3   0.558396 0.866515 0.069396 -0.602359
C182  C     C_3   0.603162 0.858049 0.056701 0.085082
H154  H     H_    0.618539 0.889610 0.043632 0.166253
H155  H     H_    0.608643 0.834340 0.021306 0.120047
C183  C     C_3   0.626414 0.841334 0.109809 -0.341314
H156  H     H_    0.622752 0.865948 0.144224 0.231595
H157  H     H_    0.610940 0.810083 0.123849 0.212659
C184  C     C_3   0.675251 0.833372 0.099024 -0.933198
H158  H     H_    0.679701 0.808130 0.065575 0.256373
H159  H     H_    0.691128 0.821442 0.138395 0.259155
H160  H     H_    0.691584 0.864387 0.085777 0.255781

loop_
_geom_bond_atom_site_label_1
_geom_bond_atom_site_label_2
_ccdc_geom_bond_type
Cu9   O34   S    
Cu10  O38   S    
C182  H155  S    
C149  C150  S    
C30   C45   S    
C2    O6    A    
C162  H107  S    
O57   C161  S    
C130  H26   S    
C147  H72   S    
C36   C124  A    
C152  C153  S    
C53   O25   A    
C144  H65   S    
C74   C114  A    
C49   O17   A    
C17   C29   A    
C62   C70   T    
C145  H67   S    
C83   C119  A    
C183  C184  S    
C88   C104  A    
C124  H20   S    
Cu2   O8    S    
C153  C154  S    
C80   C116  A    
Cu12  O47   S    
C9    C121  A    
C37   C135  A    
C35   C115  S    
C159  H100  S    
C125  H21   S    
C13   C125  A    
C96   C108  A    
C15   C127  A    
O49   C137  S    
C183  H157  S    
C82   C98   A    
C129  H25   S    
C20   C132  A    
C91   O51   S    
C21   C133  A    
C141  C142  S    
Cu9   Cu10  S    
Cu10  O40   S    
C13   H37   S    
C56   O32   A    
C158  H98   S    
C84   C100  A    
C91   C107  A    
C181  H152  S    
C163  H109  S    
C177  H143  S    
C16   H40   S    
C172  H132  S    
C152  H84   S    
C167  C168  S    
C24   C32   A    
Cu4   O6    S    
C4    C108  S    
O59   C167  S    
C11   C27   A    
C159  C160  S    
C14   C26   A    
C164  C165  S    
Cu2   Cu4   S    
C87   C103  A    
C141  H59   S    
C151  H81   S    
Cu9   O36   S    
C63   C71   T    
C174  H135  S    
C10   H34   S    
C32   C47   S    
Cu6   Cu8   S    
C18   C130  A    
C75   C115  A    
C82   C118  A    
Cu5   O13   S    
C162  C163  S    
O54   C152  S    
Cu11  O42   S    
C142  H61   S    
C90   O50   S    
C18   H42   S    
C157  H97   S    
C180  H150  S    
Cu7   O31   S    
C10   C122  A    
C175  H138  S    
C93   O53   S    
C53   O27   A    
C49   O19   A    
C14   C126  A    
C51   O23   A    
C74   C90   A    
Cu5   Cu7   S    
Cu4   O4    S    
C148  H75   S    
C161  C162  S    
C41   O37   A    
C78   C94   A    
C165  H114  S    
C89   O49   S    
C170  C171  S    
C38   C134  A    
C92   O52   S    
C45   O41   A    
C79   H7    S    
C37   C117  S    
Cu1   O21   S    
C168  H121  S    
C24   H48   S    
C94   O54   S    
C173  H133  S    
C77   C115  A    
C19   H43   S    
C139  H53   S    
C81   C117  A    
C166  H116  S    
C163  H111  S    
C171  H128  S    
C166  H118  S    
C21   C31   A    
C138  H51   S    
C39   C131  A    
C23   C29   A    
C82   H10   S    
C15   C25   A    
C169  H123  S    
C127  H23   S    
O63   C179  S    
C33   C127  A    
C49   C57   S    
C155  H91   S    
C140  H56   S    
C55   O31   A    
C35   C125  A    
C157  H96   S    
C52   C60   S    
C77   H5    S    
C53   C61   S    
C92   C108  A    
C151  H83   S    
C37   C129  A    
O62   C176  S    
C31   C46   S    
C55   C63   S    
C52   O24   A    
C56   C64   S    
C75   C91   A    
C97   O57   S    
C24   C136  A    
C146  H71   S    
C34   C122  A    
Cu12  O46   S    
C160  H103  S    
C36   C128  A    
C167  H120  S    
C184  H159  S    
C179  H148  S    
C7    O11   A    
C104  C112  A    
C98   O58   S    
C161  H105  S    
C104  O64   S    
C88   H16   S    
C2    C106  S    
C165  C166  S    
C158  H99   S    
Cu5   O25   S    
C150  H79   S    
C126  H22   S    
C97   C109  A    
C99   C111  A    
C96   O56   S    
O53   C149  S    
C95   O55   S    
O64   C182  S    
C139  H55   S    
C47   O43   A    
C102  O62   S    
C79   C113  A    
C164  H113  S    
C162  H108  S    
C86   C102  A    
C174  C175  S    
C174  H136  S    
C20   C32   A    
Cu9   O33   S    
Cu10  O39   S    
C156  C157  S    
C22   C30   A    
C1    O1    A    
C141  H58   S    
O51   C143  S    
Cu6   O32   S    
Cu11  O43   S    
C65   C72   S    
C121  H17   S    
C33   C113  S    
C155  C156  S    
C154  H90   S    
C55   O29   A    
C35   C123  A    
C43   O39   A    
C27   C42   S    
Cu1   O5    S    
C39   C119  S    
C151  H82   S    
C168  C169  S    
C145  H68   S    
Cu5   O9    S    
C6    O10   A    
C9    H33   S    
Cu3   O23   S    
C4    O4    A    
O58   C164  S    
C147  C148  S    
C89   C105  A    
Cu12  O48   S    
O52   C146  S    
C159  H101  S    
C40   C136  A    
C21   H45   S    
C8    O16   A    
C137  C138  S    
C36   C116  S    
C144  C145  S    
C98   C110  A    
C145  H69   S    
C85   H13   S    
C46   O48   A    
C19   C31   A    
Cu8   O14   S    
C84   H12   S    
C9    C25   A    
C142  H60   S    
C51   O21   A    
Cu1   Cu3   S    
C12   C28   A    
C38   C130  A    
C163  H110  S    
C87   C117  A    
C150  C151  S    
C8    C112  S    
C178  H146  S    
C43   O35   A    
C76   H4    S    
C73   C113  A    
C149  H77   S    
C132  H28   S    
O60   C170  S    
C7    O13   A    
C137  H49   S    
Cu7   O11   S    
Cu11  Cu12  S    
Cu3   O19   S    
C68   C69   S    
C138  C139  S    
C103  O63   S    
C146  H70   S    
C88   C120  A    
Cu11  O41   S    
O56   C158  S    
Cu9   O35   S    
Cu10  O37   S    
C156  H93   S    
C83   C99   A    
C182  C183  S    
C78   C114  A    
C179  C180  S    
C48   O44   A    
C152  H85   S    
C5    O15   A    
C99   O59   S    
C81   H9    S    
C154  H88   S    
C50   C58   S    
C180  C181  S    
C90   C106  A    
C78   H6    S    
C54   C62   S    
C79   C95   A    
C148  H74   S    
Cu5   O29   S    
C54   O28   A    
C66   C71   S    
C50   O20   A    
C84   C120  A    
C165  H115  S    
C86   C118  A    
C134  H30   S    
Cu6   O10   S    
Cu1   O1    S    
C42   O34   A    
C40   C120  S    
C100  C112  A    
C183  H156  S    
C3    O5    A    
C102  C110  A    
C173  H134  S    
C1    O7    A    
C139  H54   S    
C39   C133  A    
Cu2   O18   S    
C73   H1    S    
C147  H73   S    
C11   C123  A    
C57   C65   T    
C177  H142  S    
C20   H44   S    
C171  H129  S    
C178  H144  S    
C166  H117  S    
C156  H94   S    
C101  C111  A    
C28   C43   S    
C52   O22   A    
C23   C135  A    
C103  C109  A    
C140  C141  S    
C173  C174  S    
C73   C89   A    
Cu3   O7    S    
C47   O47   A    
C133  H29   S    
C12   H36   S    
C169  H124  S    
C131  H27   S    
C7    C111  S    
C161  H106  S    
C171  C172  S    
C54   O26   A    
C135  H31   S    
C38   C118  S    
C143  H63   S    
C60   C68   T    
C182  H154  S    
C176  H141  S    
C181  H151  S    
C5    C109  S    
Cu8   O12   S    
C169  H125  S    
C16   C28   A    
C142  H62   S    
C87   H15   S    
O55   C155  S    
C122  H18   S    
C160  H102  S    
C180  H149  S    
Cu6   O16   S    
C175  H137  S    
C184  H158  S    
C22   C134  A    
C148  H76   S    
Cu7   O27   S    
C14   H38   S    
Cu3   O3    S    
C4    O8    A    
C50   O18   A    
C85   C119  A    
C146  C147  S    
C8    O12   A    
C95   C105  A    
C42   O40   A    
C58   C66   T    
C181  H153  S    
C3    O3    A    
C18   C30   A    
C80   C96   A    
C13   C27   A    
C155  H92   S    
C34   C126  A    
C59   C67   T    
C10   C26   A    
C46   O42   A    
C40   C132  A    
Cu2   O24   S    
C33   C121  A    
C6    C110  S    
Cu8   O30   S    
C177  C178  S    
C25   C44   S    
C1    C105  S    
C80   H8    S    
C19   C131  A    
C137  H50   S    
C138  H52   S    
C29   C48   S    
C17   C129  A    
C11   H35   S    
C170  H127  S    
C75   H3    S    
Cu7   O15   S    
C3    C107  S    
C15   H39   S    
C154  H89   S    
C48   O46   A    
C100  O60   S    
C157  H95   S    
C44   O38   A    
C176  C177  S    
C170  H126  S    
C12   C124  A    
C143  C144  S    
O50   C140  S    
C168  H122  S    
C17   H41   S    
C16   C128  A    
O61   C173  S    
C76   C92   A    
C86   H14   S    
Cu2   O2    S    
Cu4   O22   S    
C153  H86   S    
C41   O33   A    
C128  H24   S    
Cu12  O45   S    
C160  H104  S    
C51   C59   S    
C23   H47   S    
C175  H139  S    
C45   O45   A    
C184  H160  S    
C85   C101  A    
C77   C93   A    
C61   C69   T    
C144  H66   S    
C94   C106  A    
Cu1   O17   S    
C2    O2    A    
C74   H2    S    
C143  H64   S    
C6    O14   A    
C34   C114  S    
C136  H32   S    
C179  H147  S    
C56   O30   A    
C158  C159  S    
C44   O36   A    
C123  H19   S    
C150  H80   S    
C172  H130  S    
C93   C107  A    
C178  H145  S    
C176  H140  S    
C81   C97   A    
C153  H87   S    
C167  H119  S    
C76   C116  A    
C172  H131  S    
C149  H78   S    
C64   C72   T    
C101  O61   S    
Cu8   O28   S    
Cu4   O20   S    
C5    O9    A    
C83   H11   S    
C22   H46   S    
C67   C70   S    
C164  H112  S    
C140  H57   S    
Cu6   O26   S    
Cu11  O44   S    
C26   C41   S    
