data_mof_unit_25723.cif
_audit_creation_date              2013-03-05T15:52:30-0500
_audit_creation_method            fapswitch 2.2
_symmetry_space_group_name_H-M    P1
_symmetry_Int_Tables_number       1
_space_group_crystal_system       triclinic
_cell_length_a                    7.025287
_cell_length_b                    20.598691
_cell_length_c                    24.402723
_cell_angle_alpha                 90.088913
_cell_angle_beta                  90.191254
_cell_angle_gamma                 91.671576
_cell_volume                      3529.83269802

loop_
_atom_site_label
_atom_site_type_symbol
_atom_site_description
_atom_site_fract_x
_atom_site_fract_y
_atom_site_fract_z
_atom_type_partial_charge
O1    O     O_R   0.507310 0.423620 0.460450 -0.586412
O2    O     O_R   0.170760 0.556060 0.437190 -0.592406
O3    O     O_R   0.004040 0.576380 0.539550 -0.599295
C1    C     C_R   0.341316 0.578159 0.423310 0.968229
O4    O     O_R   0.177350 0.422870 0.454070 -0.601887
O5    O     O_R   0.010680 0.442240 0.556560 -0.596706
C2    C     C_R   0.342883 0.397984 0.444789 0.955131
O6    O     O_R   0.500670 0.557760 0.443440 -0.583380
O7    O     O_3   0.340380 0.506510 0.533610 -0.287465
V1    V     V_3+5 0.064130 0.498790 0.493770 1.142352
O8    O     O_R   0.681170 0.443940 0.562810 -0.585451
C3    C     C_R   0.848373 0.421909 0.577394 0.958434
O9    O     O_R   0.674570 0.577130 0.545930 -0.587436
C4    C     C_R   0.844500 0.602110 0.555813 0.942507
V2    V     V_3+5 0.564560 0.501210 0.506230 1.153599
O10   O     O_3   0.838170 0.493490 0.466390 -0.273329
C5    C     C_R   0.959616 0.844829 0.902948 -0.277675
C6    C     C_R   0.856952 0.663576 0.588930 -0.169552
C7    C     C_R   0.933384 0.727546 0.892467 0.227006
C8    C     C_R   0.013660 0.782537 0.919514 0.221457
C9    C     C_R   0.886080 0.852343 0.849384 -0.266323
C10   C     C_R   0.841623 0.796979 0.816502 0.114631
C11   C     C_R   0.832165 0.736175 0.843121 -0.034327
C12   C     C_R   0.816581 0.797275 0.758080 0.082468
C13   C     C_R   0.769192 0.737985 0.730631 0.067305
C14   C     C_R   0.679039 0.689697 0.762937 -0.254268
C15   C     C_R   0.726433 0.685447 0.818218 -0.035049
C16   C     C_R   0.841004 0.852964 0.726141 -0.250637
C17   C     C_R   0.848018 0.849114 0.668728 0.118939
C18   C     C_R   0.865848 0.786975 0.642854 0.026913
C19   C     C_R   0.815416 0.729665 0.673414 -0.004280
C20   C     C_R   0.937432 0.779576 0.588528 0.150424
C21   C     C_R   0.910006 0.720179 0.561144 -0.241081
C22   C     C_R   0.831249 0.666678 0.646977 0.099784
H1    H     H_    0.686056 0.641904 0.840660 0.185759
H2    H     H_    0.947143 0.716818 0.518143 0.144449
H3    H     H_    0.867276 0.900966 0.834147 0.121557
H4    H     H_    0.592892 0.650971 0.744909 0.151143
H5    H     H_    0.845896 0.900140 0.745383 0.133114
C23   C     C_3   0.798338 0.252642 0.804735 0.143958
C24   C     C_3   0.132560 0.236919 0.775208 -0.427953
C25   C     C_3   0.118493 0.281230 0.723108 -0.088309
H6    H     H_    0.862810 0.276256 0.841688 0.139594
H7    H     H_    0.245969 0.201275 0.769104 0.259472
H8    H     H_    0.173263 0.266539 0.811694 0.235382
H9    H     H_    0.187856 0.253794 0.689689 0.196985
C26   C     C_1   0.859073 0.375270 0.622780 -0.290261
C27   C     C_3   0.940524 0.200045 0.787171 0.058989
C28   C     C_3   0.776124 0.304082 0.758166 0.099494
C29   C     C_3   0.902488 0.288239 0.706453 -0.052312
C30   C     C_3   0.839183 0.217968 0.686474 0.180650
C31   C     C_3   0.873727 0.166511 0.732854 -0.462549
C32   C     C_1   0.876293 0.336579 0.660565 0.061444
C33   C     C_1   0.962591 0.152749 0.833218 0.122013
C34   C     C_1   0.970820 0.116692 0.872655 -0.218661
H10   H     H_    0.748076 0.133846 0.739589 0.249234
H11   H     H_    0.987331 0.133663 0.719114 0.157776
H12   H     H_    0.627143 0.300139 0.743562 0.125901
H13   H     H_    0.931332 0.204516 0.651352 0.085890
C35   C     C_3   0.621453 0.701754 0.267423 -0.122894
C36   C     C_3   0.264463 0.694764 0.252803 -0.581780
C37   C     C_3   0.289715 0.736496 0.199859 -0.021190
H14   H     H_    0.122422 0.702999 0.270731 0.211083
H15   H     H_    0.263737 0.641782 0.244100 0.184665
H16   H     H_    0.158246 0.764404 0.195429 0.182040
C38   C     C_1   0.467159 0.877941 0.124174 -0.241306
C39   C     C_3   0.419642 0.710732 0.295756 0.106780
C40   C     C_3   0.656965 0.755142 0.218175 0.409317
C41   C     C_3   0.457925 0.789805 0.207958 0.093615
C42   C     C_3   0.402671 0.828867 0.262199 -0.280414
C43   C     C_3   0.388398 0.782227 0.313285 0.162179
C44   C     C_1   0.459493 0.837927 0.161285 0.033604
C45   C     C_1   0.386118 0.665993 0.343649 0.044249
C46   C     C_1   0.360034 0.626472 0.380126 -0.269375
H17   H     H_    0.237755 0.784262 0.327332 0.147076
H18   H     H_    0.727531 0.709323 0.300396 0.220626
H19   H     H_    0.254540 0.844271 0.253970 0.204479
C47   C     C_R   0.487395 0.156884 0.094654 -0.252921
C48   C     C_R   0.335961 0.336384 0.413035 -0.196081
C49   C     C_R   0.684021 0.250605 0.119227 -0.052064
C50   C     C_R   0.610058 0.208371 0.079873 -0.170426
C51   C     C_R   0.417184 0.152946 0.149081 0.305801
C52   C     C_R   0.474614 0.201725 0.188621 -0.038893
C53   C     C_R   0.628924 0.244819 0.174242 -0.034490
C54   C     C_R   0.389564 0.209673 0.241818 0.119319
C55   C     C_R   0.470209 0.256144 0.279348 0.045917
C56   C     C_R   0.651155 0.283023 0.267891 -0.385483
C57   C     C_R   0.726960 0.280806 0.215319 0.363427
C58   C     C_R   0.221860 0.176129 0.258153 -0.034245
C59   C     C_R   0.153339 0.181072 0.311331 -0.268670
C60   C     C_R   0.229753 0.227596 0.348190 0.071970
C61   C     C_R   0.373983 0.271658 0.329193 0.084717
C62   C     C_R   0.158083 0.233154 0.402326 0.147076
C63   C     C_R   0.222919 0.285767 0.434781 -0.208020
C64   C     C_R   0.403416 0.331688 0.358477 0.066665
H20   H     H_    0.172139 0.291450 0.476233 0.124841
H21   H     H_    0.032032 0.150168 0.321917 0.143444
H22   H     H_    0.787766 0.287212 0.106236 0.172259
H23   H     H_    0.664382 0.211910 0.038417 0.147943
H24   H     H_    0.731099 0.308757 0.299639 0.182255
H25   H     H_    0.138375 0.145879 0.230777 0.181107
O11   O     O_R   0.323590 0.942280 0.056590 -0.554174
O12   O     O_R   0.647030 0.077140 0.045940 -0.593468
O13   O     O_R   0.813570 0.057750 0.943430 -0.585086
C65   C     C_R   0.480965 0.100223 0.057353 0.996422
O14   O     O_R   0.653510 0.943950 0.062820 -0.587797
O15   O     O_R   0.820100 0.923600 0.960440 -0.599923
C66   C     C_R   0.482719 0.924194 0.078806 1.036806
O16   O     O_R   0.317060 0.076430 0.039590 -0.557926
O17   O     O_3   0.483830 0.993520 0.966410 -0.285614
V3    V     V_3+5 0.760140 0.001200 0.006230 1.245869
O18   O     O_R   0.149560 0.922820 0.954030 -0.552261
C67   C     C_R   0.978327 0.901468 0.940581 1.010024
O19   O     O_R   0.143080 0.056020 0.937150 -0.596190
C68   C     C_R   0.975938 0.074603 0.920517 0.930177
V4    V     V_3+5 0.259690 0.998730 0.993720 1.271739
O20   O     O_3   0.986120 0.006480 0.033580 -0.240526
C69   C     C_3   0.069946 0.829329 0.561106 -0.474529
C70   C     C_3   0.267568 0.801726 0.550025 -0.227767
C71   C     C_3   0.412145 0.855452 0.534821 -0.801150
H26   H     H_    0.361560 0.882941 0.498754 0.290153
H27   H     H_    0.433498 0.889571 0.569717 0.224588
H28   H     H_    0.550864 0.833837 0.524841 0.259379
H29   H     H_    0.319902 0.776671 0.587273 0.197008
H30   H     H_    0.258695 0.765936 0.515933 0.223908
H31   H     H_    0.005190 0.845774 0.522077 0.209985
H32   H     H_    0.095773 0.871917 0.587470 0.215575
N1    N     N_R   0.806210 0.370156 0.780435 0.233956
O21   O     O_R   0.665171 0.409561 0.779691 -0.400720
O22   O     O_R   0.945301 0.383191 0.814480 -0.386072
C72   C     C_3   0.238629 0.345532 0.728501 -0.307761
C73   C     C_3   0.341768 0.365507 0.675027 -0.324799
C74   C     C_3   0.437848 0.433370 0.678673 -0.777475
H33   H     H_    0.400163 0.462686 0.642284 0.251099
H34   H     H_    0.396125 0.460155 0.716000 0.274098
H35   H     H_    0.594213 0.430007 0.679829 0.264599
H36   H     H_    0.450526 0.329549 0.665079 0.248616
H37   H     H_    0.240209 0.364967 0.640242 0.210142
H38   H     H_    0.147818 0.384925 0.741002 0.243887
H39   H     H_    0.346218 0.341368 0.761434 0.250153
N2    N     N_R   0.642548 0.215245 0.665606 0.229483
O23   O     O_R   0.502889 0.191642 0.694971 -0.444132
O24   O     O_R   0.609474 0.230787 0.614865 -0.452417
C75   C     C_3   0.842468 0.604834 0.681183 -0.482999
C76   C     C_3   0.988527 0.555860 0.663679 -0.306995
C77   C     C_3   0.019826 0.506859 0.708869 -0.845775
H40   H     H_    0.120601 0.526814 0.740203 0.283420
H41   H     H_    0.883451 0.492273 0.728682 0.308741
H42   H     H_    0.076934 0.463628 0.689296 0.250228
H43   H     H_    0.930750 0.527598 0.629144 0.202659
H44   H     H_    0.126177 0.580192 0.652327 0.219723
H45   H     H_    0.894046 0.617803 0.722647 0.249885
H46   H     H_    0.699611 0.580215 0.682772 0.194364
N3    N     N_R   0.611206 0.227195 0.822896 0.233804
O25   O     O_R   0.561088 0.166096 0.818458 -0.415298
O26   O     O_R   0.503826 0.265168 0.851116 -0.397136
C78   C     C_3   0.740801 0.722227 0.165291 -0.481475
C79   C     C_3   0.818386 0.763844 0.117033 -0.258540
C80   C     C_3   0.840730 0.722494 0.065532 -0.841418
H47   H     H_    0.921792 0.678543 0.074648 0.278353
H48   H     H_    0.701973 0.706560 0.048231 0.271451
H49   H     H_    0.913311 0.751668 0.033535 0.285498
H50   H     H_    0.728938 0.803795 0.105300 0.222801
H51   H     H_    0.957961 0.786538 0.127877 0.228107
H52   H     H_    0.866034 0.696948 0.179019 0.182711
H53   H     H_    0.646795 0.684345 0.148317 0.209861
C81   C     C_3   0.643502 0.627666 0.252154 -0.448680
C82   C     C_3   0.842520 0.599232 0.257458 -0.344751
C83   C     C_3   0.836183 0.526766 0.242967 -0.806084
H54   H     H_    0.799632 0.497205 0.279678 0.260730
H55   H     H_    0.732319 0.515667 0.209594 0.259737
H56   H     H_    0.975334 0.512125 0.227102 0.268918
H57   H     H_    0.943357 0.622487 0.229053 0.202310
H58   H     H_    0.898249 0.606055 0.299833 0.217746
H59   H     H_    0.556256 0.597553 0.280179 0.222264
H60   H     H_    0.585508 0.615625 0.211573 0.197009
C84   C     C_3   0.283029 0.688146 0.150497 -0.459532
C85   C     C_3   0.320970 0.714554 0.093244 -0.299038
C86   C     C_3   0.336159 0.658062 0.052755 -0.697110
H61   H     H_    0.452105 0.625613 0.065267 0.227570
H62   H     H_    0.201268 0.628842 0.050946 0.273367
H63   H     H_    0.370330 0.676448 0.011451 0.308770
H64   H     H_    0.206409 0.746628 0.081206 0.256929
H65   H     H_    0.452295 0.744136 0.091672 0.226549
H66   H     H_    0.371624 0.645955 0.157809 0.198294
H67   H     H_    0.139123 0.664899 0.149291 0.194096
N4    N     N_R   0.504224 0.802012 0.361260 0.238216
O27   O     O_R   0.688593 0.799079 0.361527 -0.381245
O28   O     O_R   0.419112 0.816351 0.406766 -0.437550
C87   C     C_3   0.510499 0.894963 0.274032 -0.245411
C88   C     C_3   0.390876 0.941039 0.308744 -0.280922
C89   C     C_3   0.510382 0.999278 0.329340 -0.812248
H68   H     H_    0.621886 0.982940 0.358164 0.258050
H69   H     H_    0.579804 0.025286 0.294608 0.289052
H70   H     H_    0.417652 0.033464 0.351232 0.242136
H71   H     H_    0.271167 0.958830 0.283494 0.241094
H72   H     H_    0.328721 0.915304 0.344654 0.238644
H73   H     H_    0.647830 0.887458 0.295016 0.271521
H74   H     H_    0.544026 0.920983 0.235373 0.231531
N5    N     N_R   0.802481 0.805162 0.234906 0.217125
O29   O     O_R   0.835769 0.856057 0.204433 -0.448683
O30   O     O_R   0.916005 0.796488 0.276172 -0.464808
N6    N     N_R   0.906375 0.313915 0.204914 0.232525
O31   O     O_R   0.949143 0.368181 0.230019 -0.443375
O32   O     O_R   0.038178 0.285399 0.177225 -0.422918
C90   C     C_3   0.461104 0.394198 0.328501 -0.474933
C91   C     C_3   0.292683 0.439901 0.322639 -0.171521
C92   C     C_3   0.314331 0.483284 0.272435 -0.945411
H75   H     H_    0.465164 0.496446 0.265707 0.264517
H76   H     H_    0.261245 0.457192 0.235338 0.305247
H77   H     H_    0.236104 0.528643 0.278720 0.244186
H78   H     H_    0.155397 0.411873 0.319369 0.237605
H79   H     H_    0.285943 0.471547 0.359099 0.169618
H80   H     H_    0.581431 0.419278 0.350298 0.187401
H81   H     H_    0.509736 0.385040 0.286466 0.242035
C93   C     C_3   0.803045 0.910747 0.637472 -0.441035
C94   C     C_3   0.944863 0.967558 0.649679 -0.247515
C95   C     C_3   0.925254 0.022112 0.608025 -0.900648
H82   H     H_    0.960899 0.004520 0.566358 0.260195
H83   H     H_    0.777458 0.039885 0.608059 0.273521
H84   H     H_    0.024373 0.063184 0.618798 0.257464
H85   H     H_    0.916845 0.987804 0.690996 0.195004
H86   H     H_    0.093981 0.951131 0.649493 0.197669
H87   H     H_    0.790806 0.901602 0.592810 0.197372
H88   H     H_    0.658910 0.925882 0.650048 0.192182
N7    N     N_R   0.322303 0.093669 0.165733 0.196851
O33   O     O_R   0.397989 0.057590 0.203156 -0.453996
O34   O     O_R   0.163331 0.074569 0.142508 -0.389158
C96   C     C_3   0.010428 0.183616 0.423924 -0.446200
C97   C     C_3   0.951381 0.191046 0.484210 -0.254575
C98   C     C_3   0.806472 0.137968 0.500553 -0.843982
H89   H     H_    0.674213 0.141842 0.475828 0.260281
H90   H     H_    0.866298 0.089225 0.494223 0.250672
H91   H     H_    0.770124 0.143363 0.544513 0.280388
H92   H     H_    0.078485 0.187627 0.511215 0.209047
H93   H     H_    0.885111 0.238841 0.490513 0.211256
H94   H     H_    0.879683 0.186772 0.398355 0.195537
H95   H     H_    0.068677 0.134344 0.418791 0.195717
N8    N     N_R   0.973607 0.663341 0.911617 0.257514
O35   O     O_R   0.976045 0.650813 0.963780 -0.396510
O36   O     O_R   0.022743 0.618482 0.877256 -0.355379
N9    N     N_R   0.177916 0.775270 0.953800 0.241537
O37   O     O_R   0.323618 0.746046 0.933555 -0.392502
O38   O     O_R   0.201781 0.809824 0.997998 -0.464303

loop_
_geom_bond_atom_site_label_1
_geom_bond_atom_site_label_2
_geom_bond_distance
_ccdc_geom_bond_type
C90   H81   1.100001 S    
C94   H86   1.110269 S    
C18   C20   1.428954 A    
C56   C57   1.391886 A    
C13   C19   1.445638 A    
C62   C63   1.405484 A    
C36   H15   1.111366 S    
C24   C25   1.570755 S    
C4    C6    1.501247 S    
O2    C1    1.314913 A    
C7    C8    1.412339 A    
O18   V4    1.975190 S    
C49   C53   1.402736 A    
N1    O21   1.299155 A    
C21   H2    1.084721 S    
C37   C84   1.561507 S    
C76   C77   1.515908 S    
C82   H58   1.111728 S    
C5    C67   1.486183 S    
C70   H29   1.112663 S    
C27   C33   1.498963 S    
C51   N7    1.433943 S    
C22   C75   1.527910 S    
C14   C15   1.391901 A    
C78   C79   1.548850 S    
O14   C66   1.316272 A    
C47   C65   1.478577 S    
C81   H59   1.100044 S    
C16   C17   1.404259 A    
C56   H24   1.084020 S    
N2    O24   1.301262 A    
O5    C3    1.307938 A    
C18   C19   1.433649 A    
C73   H37   1.106875 S    
C23   C28   1.565488 S    
O13   C68   1.309981 A    
C91   H79   1.104116 S    
C5    C8    1.408199 A    
C84   H66   1.098108 S    
V4    O20   2.166851 S    
O12   V3    2.022457 S    
C45   C46   1.217907 T    
C1    O6    1.302138 A    
C36   H14   1.108382 S    
C36   C39   1.538087 S    
C88   H71   1.111957 S    
O15   C67   1.307976 A    
C63   H20   1.081033 S    
C72   H39   1.106549 S    
O16   V4    1.982638 S    
C9    C10   1.420085 A    
C69   C70   1.540138 S    
O8    V2    2.005745 S    
C97   C98   1.526430 S    
O12   C65   1.303394 A    
C23   H6    1.112637 S    
C38   C44   1.225727 T    
N8    O35   1.299363 A    
C35   C39   1.594920 S    
C88   H72   1.109107 S    
N5    O29   1.302324 A    
C74   H35   1.102975 S    
N9    O38   1.299028 A    
C80   H48   1.101996 S    
C97   H93   1.111951 S    
C25   C72   1.554848 S    
C39   C45   1.504389 S    
C11   C15   1.400959 A    
C17   C18   1.435301 A    
O7    V1    2.169295 S    
C59   H21   1.081015 S    
C1    C46   1.454215 S    
C76   H43   1.093772 S    
C59   C60   1.407004 A    
C71   H28   1.110788 S    
C79   H51   1.105074 S    
C26   C32   1.227681 T    
C86   H63   1.102038 S    
C58   H25   1.073943 S    
C90   H80   1.111334 S    
C64   C90   1.527005 S    
O1    C2    1.311526 A    
O9    C4    1.307652 A    
C42   H19   1.114476 S    
C83   H55   1.110697 S    
C23   N3    1.471011 S    
C41   C42   1.602654 S    
O15   V3    2.004489 S    
C3    C26   1.470447 S    
O18   C67   1.309317 A    
C71   H27   1.110292 S    
C87   H74   1.108335 S    
C85   C86   1.531691 S    
C77   H41   1.108470 S    
O14   V3    1.954303 S    
C30   N2    1.470197 S    
C82   H57   1.093734 S    
C19   C22   1.455429 A    
C29   C32   1.513939 S    
V2    O10   2.166819 S    
C30   C31   1.574870 S    
C35   C81   1.582487 S    
C89   H70   1.110681 S    
C53   C57   1.411348 A    
O11   V4    1.984638 S    
C12   C13   1.422441 A    
C48   C63   1.398430 A    
N8    O36   1.301623 A    
C78   H52   1.087520 S    
C60   C61   1.419917 A    
O4    C2    1.304846 A    
C43   N4    1.473636 S    
C54   C58   1.407445 A    
C90   C91   1.539800 S    
C40   C41   1.607407 S    
C17   C93   1.522550 S    
C50   H23   1.084232 S    
C16   H5    1.078199 S    
C15   H1    1.082852 S    
C13   C14   1.407482 A    
C54   C55   1.427654 A    
C35   H18   1.102690 S    
C61   C64   1.436588 A    
C5    C9    1.414263 A    
C84   H67   1.106242 S    
C91   C92   1.522937 S    
C37   C41   1.601066 S    
C89   H69   1.110030 S    
C41   C44   1.510903 S    
C7    C11   1.410534 A    
C93   H87   1.108364 S    
C87   C88   1.540581 S    
C48   C64   1.418793 A    
C96   C97   1.538445 S    
C7    N8    1.438809 S    
C60   C62   1.420991 A    
C77   H42   1.096772 S    
N6    O32   1.301401 A    
C47   C51   1.419977 A    
C95   H83   1.110986 S    
C80   H47   1.106015 S    
C96   H95   1.112383 S    
C38   C66   1.464030 S    
C29   C30   1.577817 S    
C80   H49   1.103207 S    
C97   H92   1.111970 S    
C98   H90   1.110490 S    
C83   H54   1.110571 S    
C93   C94   1.542648 S    
C70   C71   1.527178 S    
O11   C66   1.305122 A    
C6    C22   1.430132 A    
C92   H75   1.099024 S    
N3    O25   1.301201 A    
C76   H44   1.112217 S    
O3    C4    1.315900 A    
C79   H50   1.088027 S    
C25   C29   1.580405 S    
O1    V2    1.979435 S    
C70   H30   1.111111 S    
C92   H76   1.109960 S    
C82   C83   1.532832 S    
C52   C54   1.441962 A    
C84   C85   1.521604 S    
O6    V2    1.984334 S    
N7    O34   1.301050 A    
O9    V2    1.975164 S    
C25   H9    1.113187 S    
C74   H33   1.110269 S    
C24   H7    1.109338 S    
C10   C12   1.435933 A    
C52   C53   1.426060 A    
C30   H13   1.115306 S    
C69   H32   1.097533 S    
C96   H94   1.112205 S    
C40   C78   1.580408 S    
O2    V1    1.954374 S    
O17   V4    1.718085 S    
C85   H64   1.095711 S    
C81   C82   1.536699 S    
C42   C43   1.576717 S    
C71   H26   1.110298 S    
C87   H73   1.105706 S    
C95   H84   1.110638 S    
C2    C48   1.485251 S    
C77   H40   1.110537 S    
C62   C96   1.529263 S    
C88   C89   1.527459 S    
C23   C27   1.555597 S    
C28   N1    1.473964 S    
C65   O16   1.310370 A    
C33   C34   1.218796 T    
C94   H85   1.110873 S    
C37   H16   1.107118 S    
C49   H22   1.081906 S    
C55   C56   1.400880 A    
N3    O26   1.300534 A    
C42   C87   1.564602 S    
C14   H4    1.079418 S    
C12   C16   1.394630 A    
C20   C69   1.521643 S    
C49   C50   1.384481 A    
N1    O22   1.302195 A    
C78   H53   1.087989 S    
O5    V1    1.956919 S    
O13   V3    1.957088 S    
O19   V4    2.005825 S    
O8    C3    1.319548 A    
O17   V3    2.169417 S    
O19   C68   1.309042 A    
C93   H88   1.112161 S    
V3    O20   1.720550 S    
C40   N5    1.485887 S    
C89   H68   1.110894 S    
C28   C29   1.584359 S    
C73   H36   1.106799 S    
C8    N9    1.434593 S    
O4    V1    2.022342 S    
C75   H45   1.103410 S    
O3    V1    2.004400 S    
V1    O10   1.720719 S    
N2    O23   1.300190 A    
C20   C21   1.401240 A    
C43   H17   1.115462 S    
C47   C50   1.395502 A    
C95   H82   1.110722 S    
C79   C80   1.528190 S    
C34   C68   1.456631 S    
C92   H77   1.108434 S    
N9    O37   1.300994 A    
C94   C95   1.525318 S    
C83   H56   1.102671 S    
C24   C27   1.557494 S    
C73   C74   1.536824 S    
C98   H91   1.109709 S    
C39   C43   1.554852 S    
C91   H78   1.112100 S    
C57   N6    1.439039 S    
O7    V2    1.719178 S    
C36   C37   1.560676 S    
C6    C21   1.391732 A    
N4    O28   1.300646 A    
C72   H38   1.090521 S    
C31   H11   1.113467 S    
C28   H12   1.105209 S    
C55   C61   1.433708 A    
C86   H61   1.110954 S    
C31   H10   1.107083 S    
C75   C76   1.521512 S    
C27   C31   1.558309 S    
C9    H3    1.080465 S    
C35   C40   1.644979 S    
N5    O30   1.298285 A    
N7    O33   1.300353 A    
C98   H89   1.111069 S    
C74   H34   1.108916 S    
C24   H8    1.110501 S    
C10   C11   1.411738 A    
N4    O27   1.298412 A    
C69   H31   1.111708 S    
N6    O31   1.300829 A    
C51   C52   1.440177 A    
C58   C59   1.390211 A    
C75   H46   1.111996 S    
C85   H65   1.091549 S    
C72   C73   1.545218 S    
C81   H60   1.094908 S    
C86   H62   1.108443 S    
