data_mof_unit_52546.cif
_audit_creation_date              2012-12-10T18:04:40-0500
_audit_creation_method            fapswitch 2.2
_symmetry_space_group_name_H-M    P1
_symmetry_Int_Tables_number       1
_space_group_crystal_system       triclinic
_cell_length_a                    19.591224
_cell_length_b                    17.598422
_cell_length_c                    12.583744
_cell_angle_alpha                 89.89671
_cell_angle_beta                  99.420674
_cell_angle_gamma                 90.116658
_cell_volume                      4280.02864356

loop_
_atom_site_label
_atom_site_type_symbol
_atom_type_description
_atom_site_fract_x
_atom_site_fract_y
_atom_site_fract_z
_atom_type_partial_charge
C1    C     C_R   0.412497 0.104294 0.444358 0.853148
C2    C     C_R   0.774604 0.775138 0.646407 0.131513
C3    C     C_R   0.198240 0.810837 0.587949 0.132887
C4    C     C_R   0.276667 0.277089 0.647885 0.129964
C5    C     C_R   0.227299 0.882956 0.585420 -0.242762
C6    C     C_R   0.343250 0.248072 0.675210 -0.244792
C7    C     C_R   0.842487 0.253920 0.678671 -0.243511
C8    C     C_R   0.841291 0.746707 0.673781 -0.242372
C9    C     C_R   0.274619 0.897240 0.517154 -0.185304
C10   C     C_R   0.376464 0.218294 0.595687 -0.180360
C11   C     C_R   0.877004 0.282416 0.599497 -0.180984
C12   C     C_R   0.407917 0.900871 0.441164 0.869197
C13   C     C_R   0.874660 0.717660 0.594135 -0.176618
C14   C     C_R   0.682670 0.181992 0.514028 -0.306200
C15   C     C_R   0.678777 0.814004 0.512394 -0.305420
C16   C     C_R   0.181818 0.683571 0.517662 -0.298949
C17   C     C_R   0.180448 0.315334 0.513891 -0.307576
C18   C     C_R   0.669621 0.177695 0.702328 0.197966
C19   C     C_R   0.669831 0.822853 0.701991 0.193572
C20   C     C_R   0.125163 0.722278 0.666696 0.184201
C21   C     C_R   0.172296 0.326271 0.703592 0.195511
C22   C     C_R   0.353399 0.846347 0.401318 -0.169293
C23   C     C_R   0.912249 0.604105 0.444120 0.872726
C24   C     C_R   0.366621 0.168475 0.410671 -0.165544
C25   C     C_R   0.868850 0.329242 0.412618 -0.169690
C26   C     C_R   0.865709 0.667729 0.409744 -0.168237
C27   C     C_R   0.642779 0.000389 0.134208 -0.314213
C28   C     C_R   0.142549 0.509439 0.134203 -0.313687
C29   C     C_R   0.378850 0.002165 0.761440 0.034236
C30   C     C_R   0.878835 0.497364 0.761263 0.027793
C31   C     C_R   0.352974 0.003064 0.857441 -0.253014
C32   C     C_R   0.852923 0.497745 0.857289 -0.255752
C33   C     C_R   0.589295 0.896945 0.557013 0.875087
C34   C     C_R   0.912979 0.395201 0.444870 0.870603
C35   C     C_R   0.589632 0.102874 0.557058 0.859609
C36   C     C_R   0.089820 0.397419 0.557385 0.854090
C37   C     C_R   0.089636 0.602492 0.557150 0.863482
C38   C     C_R   0.398944 0.002171 0.953961 -0.199232
C39   C     C_R   0.898856 0.500446 0.953834 -0.207502
C40   C     C_R   0.471255 0.000723 0.953984 0.019747
C41   C     C_R   0.971165 0.502773 0.953910 0.020771
C42   C     C_R   0.494691 0.999978 0.854025 0.232159
C43   C     C_R   0.994626 0.503175 0.853988 0.235359
C44   C     C_R   0.521053 0.000415 0.048439 -0.009600
C45   C     C_R   0.748481 0.213175 0.539853 0.091744
C46   C     C_R   0.020956 0.503964 0.048387 -0.010344
C47   C     C_R   0.592877 0.000382 0.041403 0.210585
C48   C     C_R   0.092684 0.508701 0.041332 0.208577
C49   C     C_R   0.614139 0.000331 0.941878 -0.320349
C50   C     C_R   0.113908 0.511351 0.941696 -0.311816
C51   C     C_R   0.565470 0.999882 0.849279 -0.223221
C52   C     C_R   0.065372 0.506649 0.849236 -0.234444
C53   C     C_R   0.502635 0.000087 0.150524 -0.059739
C54   C     C_R   0.002641 0.499679 0.150454 -0.058384
C55   C     C_R   0.620940 0.000223 0.232972 0.003234
C56   C     C_R   0.744644 0.782961 0.536552 0.092347
C57   C     C_R   0.120825 0.504873 0.232939 0.008747
C58   C     C_R   0.736529 0.207301 0.729732 -0.216902
C59   C     C_R   0.736662 0.793286 0.727632 -0.216046
C60   C     C_R   0.156878 0.793601 0.665469 -0.199496
C61   C     C_R   0.239095 0.296407 0.729131 -0.216725
C62   C     C_R   0.645665 0.157477 0.593407 -0.077077
C63   C     C_R   0.644154 0.841206 0.592910 -0.077670
C64   C     C_R   0.134432 0.668672 0.586166 -0.080077
C65   C     C_R   0.145809 0.342962 0.594159 -0.076488
C66   C     C_R   0.363471 0.795674 0.319238 -0.198115
C67   C     C_R   0.211524 0.754979 0.513010 0.094090
C68   C     C_R   0.341100 0.178712 0.300642 -0.196911
C69   C     C_R   0.845374 0.316192 0.302564 -0.195874
C70   C     C_R   0.840237 0.677546 0.299625 -0.193363
C71   C     C_R   0.318072 0.735002 0.292273 0.263453
C72   C     C_R   0.288926 0.231466 0.267388 0.265555
C73   C     C_R   0.795175 0.261008 0.269916 0.266200
C74   C     C_R   0.787530 0.729642 0.265965 0.264870
C75   C     C_R   0.265832 0.721755 0.353390 -0.211950
C76   C     C_R   0.258436 0.269498 0.344870 -0.215493
C77   C     C_R   0.764270 0.223465 0.347616 -0.214781
C78   C     C_R   0.246525 0.284599 0.538132 0.091110
C79   C     C_R   0.756566 0.767483 0.343139 -0.214325
C80   C     C_R   0.256559 0.771122 0.438800 0.053564
C81   C     C_R   0.281988 0.257657 0.456340 0.050135
C82   C     C_R   0.785478 0.238417 0.458827 0.052264
C83   C     C_R   0.780188 0.756170 0.454713 0.051299
C84   C     C_R   0.294903 0.839056 0.452025 0.087143
C85   C     C_R   0.342632 0.214932 0.487697 0.079842
C86   C     C_R   0.844840 0.283212 0.490481 0.080344
C87   C     C_R   0.841066 0.713994 0.486282 0.081237
C88   C     C_3   0.626335 0.174463 0.790622 -0.901934
C89   C     C_R   0.776309 0.223818 0.649962 0.131096
C90   C     C_3   0.628767 0.828573 0.792737 -0.893106
C91   C     C_3   0.084175 0.705261 0.755309 -0.872723
C92   C     C_3   0.132443 0.335597 0.795247 -0.900259
C93   C     C_3   0.326784 0.681901 0.202192 -0.935749
C94   C     C_3   0.262932 0.244846 0.149802 -0.941570
C95   C     C_3   0.771563 0.244517 0.152552 -0.941142
C96   C     C_3   0.761511 0.742525 0.148270 -0.939339
H1    H     H_    0.668668 0.000538 0.935401 0.154454
H2    H     H_    0.084826 0.504285 0.775040 0.227795
H3    H     H_    0.215108 0.927625 0.638450 0.138998
H4    H     H_    0.368630 0.245717 0.758436 0.148820
H5    H     H_    0.866287 0.258581 0.762464 0.148564
H6    H     H_    0.866636 0.744210 0.757023 0.149051
H7    H     H_    0.756662 0.220088 0.813350 0.146038
H8    H     H_    0.758375 0.782329 0.811244 0.146159
H9    H     H_    0.149188 0.836021 0.724790 0.137792
H10   H     H_    0.261237 0.286505 0.812837 0.145652
H11   H     H_    0.658697 0.176310 0.431153 0.170548
H12   H     H_    0.168342 0.514600 0.935106 0.156675
H13   H     H_    0.653219 0.818482 0.430163 0.168199
H14   H     H_    0.194240 0.638023 0.466995 0.159003
H15   H     H_    0.154607 0.318922 0.431701 0.169365
H16   H     H_    0.407497 0.802320 0.277894 0.162719
H17   H     H_    0.360739 0.144572 0.240742 0.158088
H18   H     H_    0.865159 0.349837 0.242058 0.158270
H19   H     H_    0.860316 0.643567 0.239990 0.158151
H20   H     H_    0.724806 0.182130 0.318903 0.141760
H21   H     H_    0.715165 0.806185 0.313450 0.142377
H22   H     H_    0.232399 0.673624 0.330793 0.141979
H23   H     H_    0.450004 0.999732 0.164925 0.125587
H24   H     H_    0.217477 0.308854 0.315588 0.142839
H25   H     H_    0.295421 0.954117 0.515919 0.156108
H26   H     H_    0.428440 0.197030 0.620031 0.169454
H27   H     H_    0.928500 0.304876 0.624886 0.170101
H28   H     H_    0.926484 0.696824 0.618005 0.163574
H29   H     H_    0.658237 0.000249 0.306591 0.139287
H30   H     H_    0.158124 0.505837 0.306543 0.131863
H31   H     H_    0.646325 0.129377 0.848547 0.248918
H32   H     H_    0.630896 0.229326 0.834798 0.232071
H33   H     H_    0.570432 0.166939 0.761217 0.262028
H34   H     H_    0.950065 0.496037 0.164714 0.122246
H35   H     H_    0.572722 0.836872 0.765937 0.269928
H36   H     H_    0.633327 0.774396 0.838812 0.233322
H37   H     H_    0.650801 0.874150 0.848266 0.244662
H38   H     H_    0.106325 0.654792 0.801221 0.254366
H39   H     H_    0.085917 0.753115 0.813134 0.225566
H40   H     H_    0.029300 0.694891 0.721931 0.243952
H41   H     H_    0.152466 0.385680 0.843369 0.246346
H42   H     H_    0.075855 0.339071 0.769077 0.262838
H43   H     H_    0.140543 0.284996 0.848750 0.232059
H44   H     H_    0.697645 0.000477 0.130302 0.143764
H45   H     H_    0.343718 0.003843 0.685902 0.134123
H46   H     H_    0.197330 0.513223 0.130376 0.144581
H47   H     H_    0.376278 0.003249 0.026342 0.136560
H48   H     H_    0.876169 0.501054 0.026218 0.135286
H49   H     H_    0.370673 0.699236 0.161689 0.242077
H50   H     H_    0.336689 0.623467 0.234420 0.240211
H51   H     H_    0.278839 0.681599 0.141337 0.245190
H52   H     H_    0.291638 0.210228 0.098050 0.236745
H53   H     H_    0.207228 0.229658 0.130878 0.244760
H54   H     H_    0.269318 0.305748 0.130286 0.243819
H55   H     H_    0.800300 0.279114 0.100519 0.236723
H56   H     H_    0.843727 0.495271 0.685451 0.150609
H57   H     H_    0.780060 0.183524 0.136497 0.242670
H58   H     H_    0.715556 0.257404 0.130638 0.245577
H59   H     H_    0.790631 0.708172 0.096799 0.237251
H60   H     H_    0.705970 0.726644 0.129307 0.245063
H61   H     H_    0.767291 0.803469 0.128426 0.243258
H62   H     H_    0.297697 0.004737 0.857075 0.146671
H63   H     H_    0.797651 0.495973 0.856964 0.152874
H64   H     H_    0.584812 0.999761 0.774881 0.233077
N1    N     N_R   0.552340 0.000000 0.237260 -0.103423
N2    N     N_R   0.052340 0.500000 0.237260 -0.101788
N3    N     N_R   0.448170 0.000000 0.762060 -0.135572
N4    N     N_R   0.948170 0.500000 0.762060 -0.138191
O1    O     O_R   0.448200 0.076800 0.373930 -0.613748
O2    O     O_R   0.585240 0.076800 0.457600 -0.612847
O3    O     O_R   0.085240 0.423200 0.457600 -0.614630
O4    O     O_R   0.085240 0.576800 0.457600 -0.610919
O5    O     O_R   0.551780 0.923190 0.626070 -0.626907
O6    O     O_R   0.551780 0.076810 0.626070 -0.636513
O7    O     O_R   0.051780 0.423190 0.626070 -0.635766
O8    O     O_R   0.051780 0.576810 0.626070 -0.634799
O9    O     O_R   0.448200 0.923200 0.373930 -0.615683
O10   O     O_R   0.948200 0.576800 0.373930 -0.610389
O11   O     O_R   0.948200 0.423200 0.373930 -0.615162
O12   O     O_R   0.414750 0.076790 0.542400 -0.625892
O13   O     O_R   0.414750 0.923210 0.542400 -0.606895
O14   O     O_R   0.914750 0.576790 0.542400 -0.613781
O15   O     O_R   0.914750 0.423210 0.542400 -0.616067
O16   O     O_R   0.585240 0.923200 0.457600 -0.614063
Zn1   Zn    Zn3+2 0.522330 0.000000 0.387520 0.933343
Zn2   Zn    Zn3+2 0.022330 0.500000 0.387520 0.935961
Zn3   Zn    Zn3+2 0.477660 0.000000 0.612480 0.918161
Zn4   Zn    Zn3+2 0.977660 0.500000 0.612480 0.912074

loop_
_geom_bond_atom_site_label_1
_geom_bond_atom_site_label_2
_ccdc_geom_bond_type
O12   Zn3   S    
C83   C87   A    
C1    O12   A    
C8    C13   A    
O6    Zn3   S    
C38   H47   S    
C29   N3    A    
C45   C82   A    
C30   N4    A    
C80   C84   A    
C92   H42   S    
O10   Zn2   S    
C37   O8    A    
C16   H14   S    
C39   C41   A    
C23   O10   A    
C28   C57   A    
C94   H53   S    
C7    C11   A    
C75   H22   S    
C76   H24   S    
C96   H61   S    
C59   H8    S    
C10   C85   A    
N2    Zn2   S    
C88   H31   S    
C27   C55   A    
C43   C52   A    
C32   C39   A    
C96   H59   S    
C11   C86   A    
C7    C89   A    
C12   C22   S    
C51   H64   S    
C35   O2    A    
C4    C78   A    
C23   C26   S    
C52   H2    S    
C15   H13   S    
O5    Zn3   S    
C23   O14   A    
C34   O11   A    
C30   H56   S    
C44   C53   A    
C18   C58   A    
C22   C66   A    
C57   N2    A    
C55   H29   S    
C19   C63   A    
C26   C87   A    
C49   C51   A    
C70   C74   A    
C9    H25   S    
C41   C46   A    
C69   C73   A    
C20   C60   A    
C77   H20   S    
C45   C89   A    
C24   C85   A    
C21   C61   A    
C44   C47   A    
C68   C72   A    
C25   C34   S    
C32   H63   S    
C90   H36   S    
C43   N4    A    
C48   C50   A    
C12   O13   A    
C33   O5    A    
C33   O16   A    
C50   H12   S    
C41   C43   A    
C13   C87   A    
C34   O15   A    
O2    Zn1   S    
C88   H33   S    
C92   H41   S    
C17   H15   S    
C37   O4    A    
C94   H52   S    
C54   H34   S    
C20   C91   S    
C46   C48   A    
C69   H18   S    
C71   C75   A    
C91   H40   S    
N3    Zn3   S    
C30   C32   A    
C74   C96   S    
O7    Zn4   S    
C55   N1    A    
C47   C49   A    
C57   H30   S    
C90   H37   S    
C42   N3    A    
C18   C62   A    
C19   C59   A    
O13   Zn3   S    
C49   H1    S    
C4    C61   A    
C36   O3    A    
C18   C88   S    
C95   H57   S    
C6    H4    S    
C20   C64   A    
C5    C9    A    
N4    Zn4   S    
O8    Zn4   S    
C50   C52   A    
C66   C71   A    
C79   C83   A    
C1    O1    A    
C33   C63   S    
C29   H45   S    
C46   C54   A    
C91   H39   S    
C93   H50   S    
C16   C67   A    
C54   N2    A    
C93   H49   S    
C61   H10   S    
O11   Zn2   S    
C71   C93   S    
C90   H35   S    
C4    C6    A    
C14   H11   S    
O4    Zn2   S    
C74   C79   A    
C26   C70   A    
C25   C86   A    
C95   H55   S    
C73   C95   S    
C3    C5    A    
C37   C64   S    
O16   Zn1   S    
C56   C83   A    
O15   Zn4   S    
C75   C80   A    
C27   C47   A    
C13   H28   S    
C28   C48   A    
C36   O7    A    
C15   C63   A    
C21   C65   A    
C2    C59   A    
C11   H27   S    
C67   C80   A    
C10   H26   S    
C76   C81   A    
C6    C10   A    
C28   H46   S    
C53   H23   S    
C14   C45   A    
C5    H3    S    
C42   C51   A    
C70   H19   S    
C94   H54   S    
C68   H17   S    
C17   C65   A    
C27   H44   S    
C31   C38   A    
C95   H58   S    
O1    Zn1   S    
C15   C56   A    
C36   C65   S    
C72   C94   S    
C88   H32   S    
C19   C90   S    
C82   C86   A    
C3    C60   A    
C38   C40   A    
C78   C81   A    
C53   N1    A    
C96   H60   S    
C91   H38   S    
C3    C67   A    
C77   C82   A    
C72   C76   A    
C79   H21   S    
C40   C42   A    
C17   C78   A    
C93   H51   S    
C35   C62   S    
N1    Zn1   S    
C58   C89   A    
C81   C85   A    
C31   H62   S    
C24   C68   A    
C9    C84   A    
O9    Zn1   S    
O3    Zn2   S    
C40   C44   A    
C25   C69   A    
C39   H48   S    
C1    C24   S    
C29   C31   A    
C7    H5    S    
C2    C8    A    
C35   O6    A    
C73   C77   A    
C2    C56   A    
C58   H7    S    
C16   C64   A    
C66   H16   S    
C92   H43   S    
C8    H6    S    
O14   Zn4   S    
C60   H9    S    
C22   C84   A    
C12   O9    A    
C21   C92   S    
C14   C62   A    
