data_mof_unit_61085.cif
_audit_creation_date              2012-12-10T16:39:42-0500
_audit_creation_method            fapswitch 2.2
_symmetry_space_group_name_H-M    P1
_symmetry_Int_Tables_number       1
_space_group_crystal_system       triclinic
_cell_length_a                    10.887628
_cell_length_b                    10.887098
_cell_length_c                    16.044963
_cell_angle_alpha                 91.317326
_cell_angle_beta                  97.702341
_cell_angle_gamma                 98.483563
_cell_volume                      1862.32790849

loop_
_atom_site_label
_atom_site_type_symbol
_atom_type_description
_atom_site_fract_x
_atom_site_fract_y
_atom_site_fract_z
_atom_type_partial_charge
C1    C     C_R   0.838196 0.524879 0.518884 0.583534
C2    C     C_R   0.527669 0.835509 0.518932 0.582703
C3    C     C_R   0.473835 0.163155 0.481113 0.543051
C4    C     C_R   0.483764 0.515487 0.275908 0.499342
C5    C     C_R   0.515837 0.484241 0.723938 0.515075
C6    C     C_1   0.477216 0.520397 0.186283 0.011724
C7    C     C_2   0.467274 0.527107 0.020758 0.410362
C8    C     C_2   0.541107 0.465134 0.980132 0.281885
C9    C     C_3   0.696009 0.337327 0.977434 -0.098650
C10   C     C_3   0.947391 0.451300 0.332160 -0.110865
C11   C     C_3   0.427331 0.971170 0.332252 -0.110861
C12   C     C_1   0.530957 0.472576 0.888949 0.019549
C13   C     C_1   0.472262 0.523877 0.110936 0.055093
C14   C     C_1   0.523385 0.478264 0.813566 0.040134
C15   C     C_2   0.024308 0.470417 0.471457 0.250428
C16   C     C_2   0.972020 0.534056 0.526438 0.396334
C17   C     C_2   0.466482 0.028345 0.471518 0.251175
C18   C     C_2   0.538052 0.968267 0.526447 0.395890
C19   C     C_R   0.160513 0.476436 0.481090 0.541672
F1    F     F_    0.385813 0.594537 0.977742 -0.617378
F2    F     F_    0.040804 0.607793 0.590929 -0.603107
F3    F     F_    0.621176 0.027916 0.590820 -0.609480
H1    H     H_    0.756692 0.406131 0.944740 0.141081
H2    H     H_    0.635522 0.268250 0.931651 0.144973
H3    H     H_    0.758480 0.286063 0.019215 0.162659
H4    H     H_    0.041519 0.464745 0.311100 0.143992
H5    H     H_    0.912107 0.541931 0.335856 0.124911
H6    H     H_    0.882332 0.391169 0.283533 0.163088
H7    H     H_    0.518478 0.935346 0.335918 0.123778
H8    H     H_    0.437756 0.068284 0.311147 0.145624
H9    H     H_    0.360212 0.913009 0.283678 0.162653
O1    O     O_3   0.500000 0.500000 0.500000 -0.482398
O2    O     O_R   0.566290 0.591070 0.323460 -0.541739
O3    O     O_R   0.580640 0.419420 0.684420 -0.530126
O4    O     O_R   0.407770 0.434760 0.307690 -0.541127
O5    O     O_R   0.445300 0.554750 0.684430 -0.504027
O6    O     O_3   0.623274 0.397153 0.027334 -0.604202
O7    O     O_3   0.949248 0.391920 0.409419 -0.590351
O8    O     O_3   0.379063 0.962092 0.409544 -0.590441
O9    O     O_R   0.452040 0.769470 0.559450 -0.513553
O10   O     O_R   0.554760 0.223750 0.537250 -0.481507
O11   O     O_R   0.782610 0.596300 0.470630 -0.551841
O12   O     O_R   0.210590 0.410470 0.432660 -0.531189
O13   O     O_R   0.777820 0.443700 0.559450 -0.515416
O14   O     O_R   0.228980 0.549520 0.537250 -0.479305
O15   O     O_R   0.592170 0.786730 0.470640 -0.552936
O16   O     O_R   0.401030 0.220040 0.432660 -0.530076
Zn1   Zn    Zn3+2 0.408180 0.591840 0.569080 1.041979
Zn2   Zn    Zn3+2 0.608390 0.616500 0.442190 0.965360
Zn3   Zn    Zn3+2 0.381900 0.393170 0.419650 0.965379
Zn4   Zn    Zn3+2 0.601540 0.398480 0.569080 1.027149

loop_
_geom_bond_atom_site_label_1
_geom_bond_atom_site_label_2
_ccdc_geom_bond_type
C10   H5    S    
C11   O8    S    
C19   O14   A    
O1    Zn4   S    
O5    Zn1   S    
C16   F2    S    
C2    C18   S    
C1    O13   A    
C8    C12   S    
C10   O7    S    
C5    O3    A    
C10   H4    S    
O4    Zn3   S    
C9    O6    S    
C17   C18   D    
O3    Zn4   S    
C4    O4    A    
C11   H9    S    
C7    C8    D    
O12   Zn3   S    
C1    C16   S    
C2    O15   A    
C6    C13   T    
C15   C19   S    
O1    Zn1   S    
O15   Zn2   S    
O1    Zn3   S    
C5    C14   S    
C15   O7    S    
O13   Zn4   S    
C3    O16   A    
C12   C14   T    
C3    C17   S    
O16   Zn3   S    
O1    Zn2   S    
C8    O6    S    
O11   Zn2   S    
C9    H3    S    
C15   C16   D    
C5    O5    A    
C2    O9    A    
C1    O11   A    
C7    C13   S    
C11   H7    S    
C4    C6    S    
C7    F1    S    
C17   O8    S    
O14   Zn1   S    
C10   H6    S    
O9    Zn1   S    
C4    O2    A    
C9    H1    S    
C18   F3    S    
O2    Zn2   S    
O10   Zn4   S    
C9    H2    S    
C3    O10   A    
C11   H8    S    
C19   O12   A    
