data_mof_unit_56342.cif
_audit_creation_date              2012-12-11T15:20:40-0500
_audit_creation_method            fapswitch 2.2
_symmetry_space_group_name_H-M    P1
_symmetry_Int_Tables_number       1
_space_group_crystal_system       triclinic
_cell_length_a                    12.949399
_cell_length_b                    13.045624
_cell_length_c                    15.275837
_cell_angle_alpha                 116.95764
_cell_angle_beta                  63.294335
_cell_angle_gamma                 97.329433
_cell_volume                      2045.40239277

loop_
_atom_site_label
_atom_site_type_symbol
_atom_type_description
_atom_site_fract_x
_atom_site_fract_y
_atom_site_fract_z
_atom_type_partial_charge
C1    C     C_R   0.027210 0.834304 0.027334 -0.128574
C2    C     C_R   0.321864 0.521366 0.780336 -0.126939
C3    C     C_R   0.243289 0.480537 0.107993 -0.166777
C4    C     C_R   0.701138 0.403413 0.208915 -0.134524
C5    C     C_R   0.984485 0.299893 0.696485 -0.139929
C6    C     C_R   0.335576 0.542632 0.077460 0.160480
C7    C     C_R   0.924357 0.204814 0.696895 0.051684
C8    C     C_R   0.331457 0.445388 0.676739 0.040852
C9    C     C_R   0.083144 0.144223 0.970093 0.043189
C10   C     C_R   0.927032 0.044042 0.424832 -0.167943
C11   C     C_R   0.920326 0.138959 0.519054 -0.171889
C12   C     C_R   0.706112 0.427612 0.304813 0.050757
C13   C     C_R   0.886750 0.126595 0.614511 0.142259
C14   C     C_R   0.835847 0.027401 0.621227 -0.172297
C15   C     C_R   0.842610 0.932621 0.527072 -0.168609
C16   C     C_R   0.738941 0.580484 0.950964 -0.148855
C17   C     C_R   0.900825 0.937219 0.426468 0.146582
C18   C     C_R   0.639879 0.428378 0.484803 -0.174205
C19   C     C_R   0.546080 0.431125 0.578112 -0.166082
C20   C     C_R   0.439634 0.398462 0.575597 0.143992
C21   C     C_R   0.435805 0.339713 0.474389 -0.169064
C22   C     C_R   0.529563 0.336869 0.381041 -0.167538
C23   C     C_R   0.636188 0.564812 0.026775 0.152676
C24   C     C_R   0.627690 0.391856 0.388592 0.143951
C25   C     C_2   0.428784 0.564803 0.109032 -0.202208
C26   C     C_2   0.522101 0.608898 0.057932 -0.196265
C27   C     C_2   0.895426 0.967371 0.029303 -0.220347
C28   C     C_R   0.939956 0.720023 0.316131 -0.126459
C29   C     C_2   0.880671 0.058843 0.123545 -0.125157
C30   C     C_R   0.660651 0.484397 0.051473 -0.116040
C31   C     C_R   0.027873 0.821457 0.222406 -0.123231
C32   C     C_R   0.802180 0.487819 0.304125 -0.138913
C33   C     C_R   0.927850 0.749163 0.930509 -0.142439
C34   C     C_R   0.950735 0.830716 0.325260 0.040479
C35   C     C_R   0.952082 0.855451 0.993991 0.144285
C36   C     C_R   0.322528 0.580159 0.012050 -0.128709
C37   C     C_R   0.903107 0.200513 0.792171 -0.141711
C38   C     C_R   0.219781 0.435968 0.684438 -0.127014
C39   C     C_R   0.096889 0.250706 0.044394 -0.122927
C40   C     C_R   0.997675 0.166575 0.947513 -0.091101
H1    H     H_    0.074794 0.897769 0.065360 0.085523
H2    H     H_    0.952764 0.217157 0.512983 0.104534
H3    H     H_    0.802200 0.017426 0.695441 0.105382
H4    H     H_    0.647896 0.344006 0.174950 0.082911
H5    H     H_    0.813214 0.853517 0.532599 0.106921
H6    H     H_    0.716930 0.465171 0.492059 0.104411
H7    H     H_    0.554598 0.469684 0.653547 0.106917
H8    H     H_    0.357385 0.306311 0.468064 0.107563
H9    H     H_    0.519572 0.301517 0.306503 0.105465
H10   H     H_    0.430696 0.521063 0.154076 0.125246
H11   H     H_    0.518961 0.656595 0.016583 0.121942
H12   H     H_    0.845205 0.147346 0.826801 0.083625
H13   H     H_    0.855633 0.973415 0.982452 0.129033
H14   H     H_    0.913799 0.056676 0.176611 0.122356
H15   H     H_    0.746788 0.628825 0.907350 0.088749
H16   H     H_    0.889840 0.693463 0.379508 0.091991
H17   H     H_    0.601698 0.447564 0.103908 0.089452
H18   H     H_    0.065213 0.891094 0.203003 0.082886
H19   H     H_    0.841864 0.506289 0.357925 0.082603
H20   H     H_    0.368569 0.644086 0.986257 0.082201
H21   H     H_    0.883261 0.734631 0.881595 0.086611
H22   H     H_    0.194049 0.385205 0.620151 0.093226
H23   H     H_    0.157561 0.266070 0.078654 0.096991
H24   H     H_    0.966286 0.103532 0.891386 0.092139
H25   H     H_    0.390817 0.549844 0.804642 0.091836
H26   H     H_    0.219610 0.451340 0.169922 0.091281
H27   H     H_    0.001856 0.338921 0.642790 0.083326
H28   H     H_    0.963496 0.052478 0.349615 0.102498
N1    N     N_R   0.037310 0.720000 0.995790 -0.042836
N2    N     N_R   0.824890 0.517960 0.936420 -0.040050
N3    N     N_R   0.003210 0.648190 0.211380 -0.038780
N4    N     N_R   0.774330 0.457010 0.995840 -0.045828
N5    N     N_R   0.053760 0.709140 0.151960 -0.038176
N6    N     N_R   0.853860 0.498840 0.211410 -0.037040
N7    N     N_R   0.974240 0.667310 0.936390 -0.039981
N8    N     N_R   0.225670 0.542990 0.004160 -0.043381
N9    N     N_R   0.946240 0.290860 0.848040 -0.038738
N10   N     N_R   0.146140 0.501160 0.788590 -0.040934
N11   N     N_R   0.025760 0.332690 0.063610 -0.040580
N12   N     N_R   0.962690 0.280000 0.004210 -0.043291
N13   N     N_R   0.209210 0.553840 0.847990 -0.041159
N14   N     N_R   0.175110 0.482040 0.063580 -0.039804
N15   N     N_R   0.996790 0.351810 0.788620 -0.036829
N16   N     N_R   0.790790 0.446160 0.152010 -0.037962
Ni1   Ni    Ni4+2 0.130310 0.630310 0.999970 0.211593
Ni2   Ni    Ni4+2 0.869690 0.369690 0.000030 0.209441
Ni3   Ni    Ni4+2 0.985640 0.509470 0.863740 0.210989
Ni4   Ni    Ni4+2 0.014360 0.490530 0.136260 0.210285

loop_
_geom_bond_atom_site_label_1
_geom_bond_atom_site_label_2
_ccdc_geom_bond_type
N10   Ni3   S    
N15   Ni3   S    
C27   C29   D    
C19   C20   A    
C5    H27   S    
C2    H25   S    
C28   H16   S    
C8    C20   S    
C18   C24   A    
C31   H18   S    
N16   Ni2   S    
C39   H23   S    
C32   N6    A    
C5    N15   A    
C19   H7    S    
C31   N5    A    
C6    C25   S    
C29   H14   S    
N9    N15   A    
C10   C17   A    
C30   H17   S    
C9    C39   A    
C11   H2    S    
C18   C19   A    
C23   C26   S    
C25   H10   S    
N12   Ni2   S    
C36   N8    A    
C33   N7    A    
C40   N12   A    
C4    C12   A    
C21   H8    S    
C3    C6    A    
C28   C34   A    
C21   C22   A    
C12   C32   A    
C8    C38   A    
N2    Ni3   S    
C18   H6    S    
N11   Ni4   S    
C23   C30   A    
C16   N2    A    
N8    N14   A    
C5    C7    A    
C37   H12   S    
C38   N10   A    
C27   C35   S    
C25   C26   D    
C37   N9    A    
C9    C40   A    
C1    N1    A    
N3    Ni4   S    
C39   N11   A    
C30   N4    A    
C4    N16   A    
C3    N14   A    
C7    C37   A    
C31   C34   A    
N5    Ni1   S    
C22   H9    S    
N7    Ni3   S    
N9    Ni2   S    
C16   C23   A    
C22   C24   A    
C28   N3    A    
C17   C34   S    
C15   H5    S    
N1    Ni1   S    
C1    C35   A    
N3    N5    A    
C1    H1    S    
C15   C17   A    
C2    C8    A    
N6    N16   A    
C36   H20   S    
N4    Ni2   S    
C27   H13   S    
C10   H28   S    
C4    H4    S    
C12   C24   S    
C40   H24   S    
C16   H15   S    
C26   H11   S    
C11   C13   A    
N10   N13   A    
N14   Ni4   S    
C33   C35   A    
C6    C36   A    
N1    N7    A    
C10   C11   A    
N11   N12   A    
C3    H26   S    
C7    C13   S    
C20   C21   A    
C33   H21   S    
C14   C15   A    
C2    N13   A    
N2    N4    A    
C32   H19   S    
N6    Ni4   S    
C13   C14   A    
N8    Ni1   S    
N13   Ni1   S    
C14   H3    S    
C38   H22   S    
