data_mof_unit_59099.cif
_audit_creation_date              2012-12-11T15:16:39-0500
_audit_creation_method            fapswitch 2.2
_symmetry_space_group_name_H-M    P1
_symmetry_Int_Tables_number       1
_space_group_crystal_system       triclinic
_cell_length_a                    25.172705
_cell_length_b                    7.225553
_cell_length_c                    21.919211
_cell_angle_alpha                 90.000737
_cell_angle_beta                  110.018287
_cell_angle_gamma                 90.000136
_cell_volume                      3745.94360593

loop_
_atom_site_label
_atom_site_type_symbol
_atom_type_description
_atom_site_fract_x
_atom_site_fract_y
_atom_site_fract_z
_atom_type_partial_charge
O1    O     O_R   0.554350 0.505270 0.581390 -0.540380
O2    O     O_R   0.445650 0.005270 0.418610 -0.540377
O3    O     O_R   0.553380 0.177580 0.454800 -0.543123
O4    O     O_R   0.446620 0.677580 0.545200 -0.543124
C1    C     C_R   0.565783 0.344560 0.438176 0.737190
C2    C     C_R   0.434217 0.844561 0.561824 0.737194
O5    O     O_R   0.560970 0.175640 0.583140 -0.530006
O6    O     O_R   0.439030 0.675640 0.416860 -0.530017
O7    O     O_R   0.453290 0.004120 0.547860 -0.542448
O8    O     O_R   0.546710 0.504120 0.452140 -0.542450
C3    C     C_R   0.576839 0.344315 0.606966 0.793089
C4    C     C_R   0.423161 0.844312 0.393034 0.793087
O9    O     O_3   0.464660 0.338800 0.488280 -0.386582
O10   O     O_3   0.535340 0.838800 0.511720 -0.386583
V1    V     V_3+5 0.506560 0.064420 0.502170 1.401549
V2    V     V_3+5 0.493440 0.564420 0.497830 1.401536
C5    C     C_R   0.143504 0.869223 0.286422 -0.135031
C6    C     C_R   0.856498 0.369155 0.713580 -0.135032
H1    H     H_    0.058712 0.897321 0.220230 0.105987
H2    H     H_    0.941289 0.397247 0.779773 0.105988
H3    H     H_    0.224797 0.801468 0.396035 0.142489
H4    H     H_    0.775204 0.301388 0.603968 0.142482
H5    H     H_    0.129332 0.845061 0.327207 0.117293
H6    H     H_    0.870669 0.344962 0.672797 0.117292
C7    C     C_R   0.119761 0.935094 0.172339 -0.064903
C8    C     C_R   0.880240 0.435083 0.827661 -0.064903
C9    C     C_R   0.397942 0.878096 0.275852 -0.271355
C10   C     C_R   0.602058 0.378142 0.724147 -0.271359
C11   C     C_R   0.360397 0.885326 0.212743 -0.163339
C12   C     C_R   0.639604 0.385384 0.787255 -0.163334
C13   C     C_R   0.302111 0.875903 0.199334 0.476217
C14   C     C_R   0.697890 0.375941 0.800665 0.476214
C15   C     C_R   0.279633 0.874018 0.251093 -0.088053
C16   C     C_R   0.720367 0.374026 0.748906 -0.088059
C17   C     C_R   0.319036 0.846605 0.316136 -0.079518
C18   C     C_R   0.680964 0.346598 0.683863 -0.079511
C19   C     C_R   0.219938 0.890674 0.240855 0.079882
C20   C     C_R   0.780063 0.390665 0.759145 0.079877
C21   C     C_R   0.201256 0.862774 0.294394 0.069037
C22   C     C_R   0.798745 0.362728 0.705607 0.069043
C23   C     C_R   0.239763 0.824167 0.355746 -0.272067
C24   C     C_R   0.760237 0.324108 0.644256 -0.272071
C25   C     C_R   0.297536 0.809156 0.366826 0.419351
C26   C     C_R   0.702464 0.309118 0.633175 0.419355
C27   C     C_R   0.177662 0.937172 0.180219 -0.185174
C28   C     C_R   0.822338 0.437185 0.819778 -0.185176
C29   C     C_R   0.103149 0.900628 0.225701 -0.153795
C30   C     C_R   0.896852 0.400575 0.774301 -0.153794
C31   C     C_R   0.378693 0.853522 0.327850 -0.076345
C32   C     C_R   0.621307 0.353534 0.672150 -0.076342
H7    H     H_    0.187590 0.977305 0.138201 0.170612
H8    H     H_    0.812410 0.477349 0.861794 0.170611
H9    H     H_    0.442881 0.885644 0.284064 0.127997
H10   H     H_    0.557120 0.385707 0.715934 0.127998
H11   H     H_    0.376810 0.893623 0.173144 0.146177
H12   H     H_    0.623191 0.393705 0.826854 0.146178
C33   C     C_R   0.121943 0.765060 0.883090 -0.160002
C34   C     C_R   0.878058 0.265062 0.116910 -0.160004
H13   H     H_    0.107394 0.636891 0.897595 0.122473
H14   H     H_    0.892607 0.136893 0.102406 0.122474
C35   C     C_R   0.157801 0.755212 0.846440 -0.137100
C36   C     C_R   0.842200 0.255213 0.153561 -0.137101
H15   H     H_    0.169628 0.620055 0.833980 0.134064
H16   H     H_    0.830374 0.120056 0.166021 0.134064
C37   C     C_R   0.177827 0.917122 0.825957 0.021599
C38   C     C_R   0.822173 0.417123 0.174043 0.021599
C39   C     C_R   0.161261 0.089333 0.843606 -0.132632
C40   C     C_R   0.838738 0.589334 0.156394 -0.132631
H17   H     H_    0.175826 0.217109 0.828856 0.138028
H18   H     H_    0.824172 0.717110 0.171144 0.138029
C41   C     C_R   0.125392 0.099284 0.880338 -0.156374
C42   C     C_R   0.874607 0.599285 0.119661 -0.156371
H19   H     H_    0.113421 0.234496 0.892576 0.119734
H20   H     H_    0.886577 0.734498 0.107423 0.119734
C43   C     C_R   0.105004 0.937226 0.900447 -0.042219
C44   C     C_R   0.894996 0.437228 0.099553 -0.042220
N1    N     N_R   0.234550 0.062152 0.765865 -0.279954
N2    N     N_R   0.765449 0.562153 0.234135 -0.279953
N3    N     N_R   0.268056 0.052136 0.730194 -0.283735
N4    N     N_R   0.731943 0.552135 0.269805 -0.283736
C45   C     C_R   0.284013 0.885671 0.713194 0.513955
C46   C     C_R   0.715987 0.385670 0.286807 0.513954
N5    N     N_R   0.264914 0.729659 0.733565 -0.280271
N6    N     N_R   0.735089 0.229659 0.266437 -0.280270
N7    N     N_R   0.231404 0.739675 0.769229 -0.283586
N8    N     N_R   0.768598 0.239676 0.230773 -0.283587
C47   C     C_R   0.215455 0.906135 0.786241 0.514467
C48   C     C_R   0.784545 0.406136 0.213760 0.514467
C49   C     C_R   0.338727 0.702368 0.656495 -0.134635
C50   C     C_R   0.661277 0.202366 0.343509 -0.134638
H21   H     H_    0.324405 0.574621 0.671558 0.138199
H22   H     H_    0.675602 0.074620 0.328450 0.138199
C51   C     C_R   0.374803 0.692338 0.620030 -0.159367
C52   C     C_R   0.625201 0.192336 0.379974 -0.159355
H23   H     H_    0.387213 0.557132 0.608340 0.109283
H24   H     H_    0.612794 0.057131 0.391667 0.109281
C53   C     C_R   0.394898 0.854345 0.599561 -0.027123
C54   C     C_R   0.605102 0.354344 0.400440 -0.027124
C55   C     C_R   0.377488 0.026554 0.616271 -0.157826
C56   C     C_R   0.622510 0.526553 0.383727 -0.157836
H25   H     H_    0.391798 0.154634 0.601405 0.116454
H26   H     H_    0.608196 0.654633 0.398590 0.116454
C57   C     C_R   0.341466 0.036502 0.652720 -0.138763
C58   C     C_R   0.658532 0.536501 0.347278 -0.138763
H27   H     H_    0.329284 0.171687 0.664724 0.133895
H28   H     H_    0.670711 0.671686 0.335271 0.133895
C59   C     C_R   0.321725 0.874631 0.673581 0.019966
C60   C     C_R   0.678276 0.374629 0.326420 0.019966
O11   O     O_R   0.953220 0.285790 0.047790 -0.537572
O12   O     O_R   0.046780 0.785790 0.952210 -0.537573
O13   O     O_R   0.939020 0.617570 0.916840 -0.535676
O14   O     O_R   0.060980 0.117570 0.083160 -0.535677
C61   C     C_R   0.924082 0.448219 0.892561 0.685639
C62   C     C_R   0.075918 0.948222 0.107438 0.685638
O15   O     O_R   0.946600 0.615450 0.045180 -0.541885
O16   O     O_R   0.053400 0.115450 0.954820 -0.541885
O17   O     O_R   0.054370 0.786770 0.081410 -0.530425
O18   O     O_R   0.945630 0.286770 0.918590 -0.530427
C63   C     C_R   0.934178 0.446936 0.061592 0.679700
C64   C     C_R   0.065822 0.946935 0.938407 0.679699
O19   O     O_3   0.035300 0.454160 0.011680 -0.374248
O20   O     O_3   0.964700 0.954160 0.988320 -0.374247
V3    V     V_3+5 0.993450 0.728620 0.997830 1.409972
V4    V     V_3+5 0.006550 0.228620 0.002170 1.409972
O21   O     O_3   0.268677 0.861836 0.134836 -0.569157
C65   C     C_3   0.259158 0.672642 0.118941 -0.269513
H29   H     H_    0.236938 0.603449 0.148749 0.143319
H30   H     H_    0.299445 0.599511 0.124357 0.149722
H31   H     H_    0.231567 0.661262 0.067333 0.171860
O22   O     O_3   0.731322 0.361881 0.865163 -0.569156
C66   C     C_3   0.740843 0.172688 0.881058 -0.269508
H32   H     H_    0.763065 0.103497 0.851253 0.143319
H33   H     H_    0.700556 0.099551 0.875641 0.149721
H34   H     H_    0.768432 0.161314 0.932668 0.171860
O23   O     O_3   0.332577 0.754263 0.427762 -0.568886
C67   C     C_3   0.324601 0.562615 0.434623 -0.194167
H35   H     H_    0.332907 0.481106 0.395685 0.132616
H36   H     H_    0.281530 0.532299 0.435385 0.119855
H37   H     H_    0.354847 0.514740 0.481653 0.165580
O24   O     O_3   0.667420 0.254225 0.572240 -0.568883
C68   C     C_3   0.675399 0.062581 0.565371 -0.194165
H38   H     H_    0.667114 0.981059 0.604319 0.132597
H39   H     H_    0.718464 0.032290 0.564585 0.119858
H40   H     H_    0.645139 0.014697 0.518350 0.165592

loop_
_geom_bond_atom_site_label_1
_geom_bond_atom_site_label_2
_ccdc_geom_bond_type
C34   C36   A    
C38   C40   A    
C45   C59   S    
C65   H29   S    
C51   C53   A    
C9    C11   A    
C55   C57   A    
O1    C3    A    
C42   C44   A    
C66   H34   S    
O2    C4    A    
C2    O7    A    
C58   H28   S    
C4    C31   S    
C34   C44   A    
O23   C67   S    
C21   C23   A    
O5    C3    A    
C5    H5    S    
C27   H7    S    
C6    H6    S    
C20   C22   A    
N6    N8    A    
O14   V4    S    
C68   H39   S    
C38   C48   S    
N8    C48   A    
C33   H13   S    
C52   C54   A    
C34   H14   S    
C28   H8    S    
C56   C58   A    
C5    C21   A    
C35   H15   S    
C6    C22   A    
C51   H23   S    
O19   V4    S    
C36   H16   S    
C45   N5    A    
C10   C32   A    
C57   H27   S    
C37   C39   A    
C17   C31   A    
C13   C15   A    
C37   C47   S    
C46   C60   S    
C49   H21   S    
C17   C25   A    
C7    C29   A    
C39   C41   A    
C8    C30   A    
N7    C47   A    
O6    V2    S    
C11   C13   A    
C23   C25   A    
C24   C26   A    
C67   H37   S    
C14   O22   S    
C53   C55   A    
C50   C52   A    
N1    N3    A    
C44   C63   S    
O15   V3    S    
C36   C38   A    
O13   V3    S    
C12   C14   A    
C2    C53   S    
O24   C68   S    
C67   H36   S    
C68   H40   S    
O12   C64   A    
C41   H19   S    
C10   H10   S    
C11   H11   S    
C65   H31   S    
O3    C1    A    
C12   H12   S    
C15   C19   A    
O16   C64   A    
C40   C42   A    
C39   H17   S    
C14   C16   A    
O4    V2    S    
C52   H24   S    
O12   V3    S    
C50   H22   S    
O6    C4    A    
C49   C59   A    
C56   H26   S    
H1    C29   S    
O13   C61   A    
O1    V2    S    
O18   V4    S    
C25   O23   S    
O2    V1    S    
N1    C47   A    
H2    C30   S    
H3    C23   S    
O14   C62   A    
C42   H20   S    
N5    N7    A    
O15   C63   A    
O21   C65   S    
C18   C26   A    
O4    C2    A    
C13   O21   S    
C19   C27   A    
C66   H32   S    
C7    C27   A    
C58   C60   A    
C18   C32   A    
O11   C63   A    
N3    C45   A    
N2    C48   A    
C65   H30   S    
O16   V4    S    
C55   H25   S    
C16   C20   A    
C43   C64   S    
C5    C29   A    
C67   H35   S    
C66   H33   S    
C6    C30   A    
C9    H9    S    
O11   V4    S    
C33   C35   A    
C46   N6    A    
C33   C43   A    
C10   C12   A    
O22   C66   S    
O17   V3    S    
C8    C61   S    
C50   C60   A    
C1    O8    A    
C19   C21   A    
C3    C32   S    
O8    V2    S    
C7    C62   S    
C41   C43   A    
H4    C24   S    
O5    V1    S    
C15   C17   A    
N4    C46   A    
N2    N4    A    
C49   C51   A    
C54   C56   A    
C20   C28   A    
C62   O17   A    
C8    C28   A    
C61   O18   A    
C35   C37   A    
C1    C54   S    
C16   C18   A    
C26   O24   S    
O9    V2    S    
C40   H18   S    
C22   C24   A    
O10   V1    S    
O3    V1    S    
C57   C59   A    
O20   V3    S    
C68   H38   S    
C9    C31   A    
O7    V1    S    
