data_mof_unit_23816.cif
_audit_creation_date              2012-12-10T18:09:54-0500
_audit_creation_method            fapswitch 2.2
_symmetry_space_group_name_H-M    P1
_symmetry_Int_Tables_number       1
_space_group_crystal_system       triclinic
_cell_length_a                    10.64021
_cell_length_b                    12.601998
_cell_length_c                    13.128447
_cell_angle_alpha                 82.20765
_cell_angle_beta                  91.692613
_cell_angle_gamma                 102.418148
_cell_volume                      1703.30568004

loop_
_atom_site_label
_atom_site_type_symbol
_atom_type_description
_atom_site_fract_x
_atom_site_fract_y
_atom_site_fract_z
_atom_type_partial_charge
C1    C     C_R   0.485893 0.438992 0.691631 0.867146
C2    C     C_R   0.437867 0.476339 0.959554 -0.087348
C3    C     C_R   0.512691 0.475381 0.872261 0.037273
C4    C     C_R   0.742251 0.501243 0.497462 0.813684
C5    C     C_R   0.489485 0.552576 0.027465 0.105425
C6    C     C_R   0.589408 0.643963 0.994562 0.137989
C7    C     C_R   0.658044 0.644199 0.906283 -0.270189
C8    C     C_R   0.632665 0.551640 0.855439 0.195175
C9    C     C_R   0.462322 0.529181 0.131961 -0.131449
C10   C     C_R   0.599999 0.701491 0.162945 -0.195478
C11   C     C_R   0.462779 0.402471 0.801242 -0.104694
C12   C     C_3   0.121790 0.499855 0.494405 0.161074
C13   C     C_R   0.319242 0.088619 0.345748 -0.301989
C14   C     C_R   0.653206 0.798969 0.630801 0.023643
C15   C     C_R   0.685070 0.903214 0.659959 -0.248932
C16   C     C_R   0.512145 0.561142 0.308834 0.868286
C17   C     C_R   0.627065 0.985034 0.610392 -0.190815
C18   C     C_R   0.536679 0.962540 0.530746 0.016890
C19   C     C_R   0.507914 0.854856 0.503850 0.235320
C20   C     C_R   0.473716 0.041918 0.477175 -0.012939
C21   C     C_R   0.383186 0.011862 0.398668 0.194105
C22   C     C_R   0.357611 0.905682 0.373464 -0.289088
C23   C     C_3   0.095114 0.598800 0.419087 -0.404200
C24   C     C_R   0.419780 0.828562 0.425051 -0.218051
C25   C     C_R   0.496682 0.150689 0.497968 -0.052132
C26   C     C_R   0.345889 0.194503 0.370510 0.007028
C27   C     C_R   0.258349 0.500256 0.496783 0.832958
C28   C     C_3   0.900431 0.393565 0.458556 -0.372931
C29   C     C_3   0.043200 0.392544 0.458938 -0.386056
C30   C     C_3   0.950785 0.599818 0.419652 -0.387491
C31   C     C_3   0.935517 0.508722 0.603900 -0.426675
C32   C     C_3   0.879338 0.501308 0.494730 0.169822
C33   C     C_3   0.744933 0.525146 0.803045 -0.472189
C34   C     C_3   0.079240 0.508588 0.603972 -0.371421
C35   C     C_3   0.791302 0.430651 0.867691 -0.765335
C36   C     C_R   0.635333 0.723023 0.059878 -0.178454
C37   C     C_R   0.521411 0.600197 0.199849 -0.082683
C38   C     C_R   0.358565 0.315521 0.828528 -0.268879
C39   C     C_R   0.286355 0.314512 0.915043 -0.232956
C40   C     C_R   0.316922 0.400090 0.975092 0.392582
H1    H     H_    0.861136 0.386399 0.379607 0.193084
H2    H     H_    0.197574 0.253581 0.928025 0.177164
H3    H     H_    0.849517 0.320569 0.510482 0.176566
H4    H     H_    0.297685 0.255301 0.330696 0.167765
H5    H     H_    0.289319 0.882059 0.313368 0.160436
H6    H     H_    0.249759 0.067000 0.285918 0.145159
H7    H     H_    0.564100 0.181523 0.555234 0.123457
H8    H     H_    0.697863 0.734894 0.668844 0.131137
H9    H     H_    0.654794 0.064396 0.636137 0.134444
H10   H     H_    0.754267 0.920507 0.720851 0.146187
H11   H     H_    0.397063 0.748698 0.401666 0.212599
H12   H     H_    0.134324 0.585298 0.630946 0.192273
H13   H     H_    0.059896 0.319830 0.511678 0.179353
H14   H     H_    0.073361 0.384417 0.380320 0.215278
H15   H     H_    0.910742 0.595251 0.340680 0.170624
H16   H     H_    0.125700 0.593532 0.339886 0.187762
H17   H     H_    0.921856 0.585074 0.631553 0.178040
H18   H     H_    0.885221 0.436839 0.656868 0.169469
H19   H     H_    0.098577 0.438470 0.658985 0.167096
H20   H     H_    0.172835 0.267007 0.149270 0.336635
H21   H     H_    0.881642 0.418941 0.835218 0.264214
H22   H     H_    0.811037 0.448822 0.947827 0.293293
H23   H     H_    0.937953 0.678354 0.443367 0.182582
H24   H     H_    0.717549 0.353351 0.868672 0.242918
H25   H     H_    0.826955 0.597180 0.793993 0.206535
H26   H     H_    0.720596 0.504174 0.725169 0.201474
H27   H     H_    0.150763 0.677309 0.441997 0.182750
H28   H     H_    0.644631 0.758274 0.215078 0.161968
H29   H     H_    0.744595 0.706869 0.888271 0.137205
H30   H     H_    0.708337 0.795321 0.034225 0.139210
H31   H     H_    0.406053 0.450030 0.162500 0.196818
H32   H     H_    0.321471 0.257346 0.775573 0.178304
N1    N     N_R   0.433240 0.222190 0.444680 -0.104330
N2    N     N_R   0.566070 0.776970 0.554790 -0.129180
O1    O     O_R   0.468120 0.366740 0.627160 -0.615842
O2    O     O_2   0.062891 0.385650 0.994301 -0.318788
O3    O     O_3   0.181339 0.343068 0.164580 -0.595080
O4    O     O_R   0.510770 0.544830 0.662520 -0.608027
O5    O     O_R   0.663880 0.410950 0.482330 -0.624945
O6    O     O_R   0.706530 0.589040 0.517700 -0.632904
O7    O     O_R   0.489230 0.455170 0.337480 -0.608916
O8    O     O_R   0.531880 0.633260 0.372840 -0.637182
O9    O     O_R   0.293470 0.410960 0.482300 -0.619746
O10   O     O_R   0.336120 0.589050 0.517670 -0.639362
O11   O     O_2   0.204390 0.538510 0.063364 -0.275260
S1    S     S_3+6 0.188185 0.420016 0.048975 -0.015348
Zn1   Zn    Zn3+2 0.471520 0.381090 0.476390 0.941842
Zn2   Zn    Zn3+2 0.528480 0.618910 0.523610 0.925240

loop_
_geom_bond_atom_site_label_1
_geom_bond_atom_site_label_2
_ccdc_geom_bond_type
O9    Zn1   S    
C12   C29   S    
C1    C11   S    
O5    Zn1   S    
C26   H4    S    
C7    C8    A    
O11   S1    D    
C12   C23   S    
C10   C37   A    
C14   N2    A    
C31   H18   S    
C28   C29   S    
C4    O6    A    
C38   C39   A    
C20   C25   A    
C40   S1    S    
C28   H1    S    
C26   N1    A    
C18   C19   A    
C15   H10   S    
C23   H27   S    
N1    Zn1   S    
C35   H24   S    
C25   H7    S    
C18   C20   A    
C16   C37   S    
C24   H11   S    
C21   C22   A    
C1    O4    A    
C16   O8    A    
C36   H30   S    
C33   H26   S    
C39   H2    S    
C38   H32   S    
H20   O3    S    
C12   C27   S    
C33   H25   S    
C1    O1    A    
C23   C30   S    
C9    H31   S    
C28   C32   S    
C4    O5    A    
C3    C8    A    
C17   H9    S    
C39   C40   A    
C14   H8    S    
C11   C38   A    
C5    C9    A    
C31   C32   S    
C9    C37   A    
C17   C18   A    
C31   C34   S    
C13   C21   A    
C35   H21   S    
O7    Zn1   S    
C23   H16   S    
C4    C32   S    
O1    Zn1   S    
O3    S1    S    
C34   H19   S    
C22   C24   A    
C13   C26   A    
C2    C5    A    
C12   C34   S    
O2    S1    D    
O4    Zn2   S    
C15   C17   A    
C27   O10   A    
C14   C15   A    
C19   N2    A    
O10   Zn2   S    
C7    H29   S    
C6    C7    A    
C10   H28   S    
C30   H15   S    
C28   H3    S    
C34   H12   S    
C31   H17   S    
C27   O9    A    
C2    C3    A    
O6    Zn2   S    
C30   C32   S    
C5    C6    A    
C29   H13   S    
O8    Zn2   S    
C16   O7    A    
C33   C35   S    
C6    C36   A    
C19   C24   A    
C35   H22   S    
C25   N1    A    
C8    C33   S    
C3    C11   A    
C2    C40   A    
C22   H5    S    
C20   C21   A    
C29   H14   S    
C13   H6    S    
C10   C36   A    
N2    Zn2   S    
C30   H23   S    
