data_mof_unit_59897.cif
_audit_creation_date              2012-12-10T20:53:11-0500
_audit_creation_method            fapswitch 2.2
_symmetry_space_group_name_H-M    P1
_symmetry_Int_Tables_number       1
_space_group_crystal_system       triclinic
_cell_length_a                    18.392298
_cell_length_b                    18.39311
_cell_length_c                    18.293382
_cell_angle_alpha                 59.613399
_cell_angle_beta                  59.625578
_cell_angle_gamma                 59.934892
_cell_volume                      4348.4711614

loop_
_atom_site_label
_atom_site_type_symbol
_atom_type_description
_atom_site_fract_x
_atom_site_fract_y
_atom_site_fract_z
_atom_type_partial_charge
C1    C     C_R   0.390776 0.107570 0.112466 0.923872
C2    C     C_R   0.314785 0.827390 0.881178 -0.218691
C3    C     C_R   0.037908 0.527626 0.905182 -0.023523
C4    C     C_R   0.462999 0.097053 0.958377 -0.032452
C5    C     C_R   0.526370 0.909418 0.036764 -0.031070
C6    C     C_R   0.982680 0.908021 0.554369 -0.043297
C7    C     C_R   0.090589 0.017772 0.444733 -0.036751
C8    C     C_R   0.943880 0.553029 0.948083 -0.053648
C9    C     C_R   0.055165 0.449220 0.052764 -0.047597
C10   C     C_R   0.550759 0.949610 0.942128 -0.075293
C11   C     C_R   0.450706 0.055384 0.052026 -0.057393
C12   C     C_2   0.026338 0.771455 0.477652 1.004465
C13   C     C_R   0.209369 0.230198 0.621309 -0.246873
C14   C     C_2   0.232647 0.967532 0.515338 1.022404
C15   C     C_2   0.742149 0.619513 0.047892 1.007824
C16   C     C_2   0.237090 0.480863 0.951391 1.001752
C17   C     C_2   0.599014 0.045355 0.736638 0.989325
C18   C     C_2   0.518721 0.959250 0.214642 1.025704
C19   C     C_R   0.799714 0.807171 0.338136 -0.259053
C20   C     C_R   0.067097 0.631675 0.249145 -0.097628
C21   C     C_R   0.908207 0.375535 0.750479 -0.150635
C22   C     C_R   0.587245 0.270241 0.161634 -0.189673
C23   C     C_R   0.361734 0.735899 0.899728 -0.231312
C24   C     C_R   0.290096 0.188242 0.565611 -0.198637
C25   C     C_R   0.711920 0.841216 0.390990 -0.189396
C26   C     C_R   0.008040 0.583451 0.313716 0.099984
C27   C     C_R   0.609555 0.891079 0.888603 0.926821
C28   C     C_R   0.975943 0.413801 0.689028 0.158639
C29   C     C_R   0.590269 0.310447 0.071716 0.149111
C30   C     C_R   0.407849 0.690229 0.960843 0.099343
C31   C     C_R   0.319514 0.095431 0.587613 0.135398
C32   C     C_R   0.685745 0.917625 0.409770 0.145417
C33   C     C_R   0.954684 0.573876 0.287157 -0.236294
C34   C     C_R   0.030063 0.415929 0.720694 -0.157920
C35   C     C_R   0.640676 0.258953 0.015114 -0.246439
C36   C     C_R   0.404708 0.736648 0.004722 -0.146843
C37   C     C_R   0.267185 0.045633 0.665476 -0.124022
C38   C     C_R   0.118659 0.100612 0.390321 0.878768
C39   C     C_R   0.748021 0.959689 0.375132 -0.194744
C40   C     C_R   0.960379 0.612252 0.196897 -0.199942
C41   C     C_R   0.016225 0.380392 0.812961 -0.105141
C42   C     C_R   0.686254 0.167913 0.048620 -0.182793
C43   C     C_R   0.358420 0.828327 0.985329 -0.161442
C44   C     C_R   0.185885 0.087824 0.719747 -0.103306
C45   C     C_R   0.835774 0.925271 0.322654 -0.121140
C46   C     C_R   0.019666 0.659814 0.132708 0.745669
C47   C     C_R   0.948030 0.343278 0.873987 0.748805
C48   C     C_R   0.682436 0.128068 0.138403 0.759306
C49   C     C_R   0.899797 0.880514 0.609646 0.927288
C50   C     C_R   0.313626 0.873745 0.923416 0.690919
C51   C     C_R   0.157197 0.179907 0.698033 0.668513
C52   C     C_R   0.861462 0.849406 0.303700 0.785635
C53   C     C_R   0.954879 0.591165 0.463450 -0.159808
C54   C     C_R   0.033800 0.407508 0.537888 -0.245577
C55   C     C_R   0.592675 0.463050 0.980792 -0.222498
C56   C     C_R   0.406918 0.536961 0.033078 -0.241423
C57   C     C_R   0.467531 0.991455 0.590101 -0.203514
C58   C     C_R   0.534721 0.013159 0.408195 -0.190211
C59   C     C_R   0.945090 0.552469 0.554867 -0.067460
C60   C     C_R   0.113425 0.390411 0.106835 0.917443
C61   C     C_R   0.047444 0.446787 0.445683 -0.069774
C62   C     C_R   0.551824 0.555660 0.951493 -0.054094
C63   C     C_R   0.447806 0.444380 0.059955 -0.058036
C64   C     C_R   0.556683 0.946555 0.551038 -0.062335
C65   C     C_R   0.444950 0.057733 0.447575 -0.047340
C66   C     C_R   0.984405 0.459209 0.592785 -0.008192
C67   C     C_R   0.004959 0.539370 0.408413 0.012513
C68   C     C_R   0.457358 0.593286 0.980868 0.031057
C69   C     C_R   0.541960 0.406858 0.036689 0.023642
C70   C     C_R   0.591382 0.958698 0.458278 -0.008878
C71   C     C_R   0.888500 0.609887 0.891233 0.929587
C72   C     C_R   0.411201 0.047848 0.539708 0.046948
C73   C     C_R   0.107624 0.390173 0.390092 0.819759
C74   C     C_R   0.890376 0.609709 0.609930 0.811055
C75   C     C_R   0.390463 0.389573 0.111727 0.836313
C76   C     C_R   0.609448 0.610401 0.891328 0.852166
C77   C     C_R   0.389581 0.111705 0.390709 0.823747
C78   C     C_R   0.610723 0.889427 0.609051 0.852652
C79   C     C_R   0.124842 0.983258 0.312658 0.596961
C80   C     C_R   0.020572 0.870919 0.685221 0.588156
C81   C     C_R   0.923107 0.430045 0.191754 0.499050
C82   C     C_R   0.073081 0.669404 0.158795 -0.146483
C83   C     C_R   0.078934 0.544223 0.810518 0.531575
C84   C     C_R   0.423467 0.190709 0.919925 0.531813
C85   C     C_R   0.535224 0.817477 0.081793 0.567972
C86   C     C_R   0.107410 0.947359 0.274748 -0.302961
C87   C     C_R   0.059630 0.885880 0.722072 -0.294466
C88   C     C_R   0.831515 0.449987 0.233575 -0.271235
C89   C     C_R   0.170926 0.523010 0.769957 -0.274178
C90   C     C_R   0.438624 0.230988 0.828160 -0.249584
C91   C     C_R   0.523414 0.778307 0.173256 -0.256529
C92   C     C_R   0.060227 0.888101 0.329180 0.536760
C93   C     C_R   0.894172 0.340692 0.842751 -0.163547
C94   C     C_R   0.119346 0.932613 0.666716 0.548893
C95   C     C_R   0.774985 0.508886 0.184162 0.593476
C96   C     C_R   0.223757 0.493145 0.819334 0.574303
C97   C     C_R   0.494807 0.181437 0.771332 0.584021
C98   C     C_R   0.509822 0.827262 0.219653 0.618321
C99   C     C_R   0.029845 0.864067 0.423368 -0.172922
C100  C     C_R   0.140067 0.965506 0.572866 -0.154354
C101  C     C_R   0.809272 0.548071 0.090733 -0.296252
C102  C     C_R   0.185379 0.479171 0.911845 -0.182165
C103  C     C_R   0.536512 0.089285 0.805402 -0.273198
C104  C     C_R   0.633135 0.179286 0.194782 -0.226508
C105  C     C_R   0.499227 0.918712 0.176655 -0.290241
C106  C     C_R   0.026764 0.917918 0.461000 -0.131644
C107  C     C_R   0.083047 0.971396 0.537298 -0.134008
C108  C     C_R   0.904171 0.524332 0.044069 -0.143368
C109  C     C_R   0.093124 0.485734 0.957594 -0.137389
C110  C     C_R   0.518945 0.044427 0.900908 -0.157769
C111  C     C_R   0.492698 0.962369 0.088655 -0.191160
C112  C     C_R   0.078479 0.976778 0.404697 -0.051527
C113  C     C_R   0.024925 0.919053 0.593838 -0.064077
C114  C     C_R   0.961534 0.466701 0.096339 -0.015422
F1    F     F_    0.167279 0.931852 0.704191 -0.661124
F2    F     F_    0.031953 0.578264 0.755827 -0.683119
F3    F     F_    0.370551 0.245611 0.969461 -0.648228
F4    F     F_    0.550528 0.765800 0.039481 -0.647752
F5    F     F_    0.025426 0.696526 0.045156 -0.630283
F6    F     F_    0.934064 0.309906 0.963458 -0.650482
F7    F     F_    0.726655 0.039822 0.170718 -0.655722
F8    F     F_    0.268651 0.962602 0.904712 -0.652890
F9    F     F_    0.079688 0.219580 0.752905 -0.685071
F10   F     F_    0.945816 0.817783 0.250599 -0.623806
F11   F     F_    0.058241 0.843428 0.290007 -0.591736
F12   F     F_    0.311700 0.484585 0.775267 -0.616016
F13   F     F_    0.685434 0.530439 0.228426 -0.624824
F14   F     F_    0.512437 0.784051 0.304776 -0.597375
F15   F     F_    0.509921 0.224248 0.681475 -0.612927
F16   F     F_    0.199081 0.007621 0.262640 -0.625553
F17   F     F_    0.994681 0.797592 0.735290 -0.606142
F18   F     F_    0.972362 0.375173 0.247087 -0.682489
H1    H     H_    0.922220 0.661906 0.434799 0.196770
H2    H     H_    0.200946 0.535014 0.698197 0.214692
H3    H     H_    0.407614 0.302281 0.800419 0.245976
H4    H     H_    0.530605 0.708055 0.206846 0.237247
H5    H     H_    0.119184 0.705999 0.109067 0.173367
H6    H     H_    0.841216 0.312198 0.890001 0.146627
H7    H     H_    0.630467 0.148624 0.264146 0.149907
H8    H     H_    0.279191 0.862197 0.834199 0.188870
H9    H     H_    0.188153 0.301381 0.605686 0.158863
H10   H     H_    0.819573 0.748664 0.323092 0.166595
H11   H     H_    0.109086 0.639005 0.268637 0.191765
H12   H     H_    0.062744 0.336189 0.567406 0.191136
H13   H     H_    0.865154 0.374682 0.727063 0.144017
H14   H     H_    0.549144 0.309315 0.205886 0.154028
H15   H     H_    0.362469 0.700712 0.866387 0.188307
H16   H     H_    0.331152 0.227282 0.507680 0.147278
H17   H     H_    0.664074 0.809082 0.416033 0.186642
H18   H     H_    0.909322 0.536257 0.336187 0.176557
H19   H     H_    0.081741 0.446315 0.674142 0.159710
H20   H     H_    0.644098 0.289184 0.945484 0.167218
H21   H     H_    0.438809 0.701875 0.053103 0.207870
H22   H     H_    0.290903 0.973665 0.685091 0.213262
H23   H     H_    0.664791 0.433759 0.961564 0.177729
H24   H     H_    0.728194 0.019617 0.387863 0.161298
H25   H     H_    0.919122 0.604767 0.176682 0.157700
H26   H     H_    0.057903 0.382250 0.837206 0.151598
H27   H     H_    0.724530 0.128294 0.004932 0.169176
H28   H     H_    0.357233 0.864031 0.018409 0.180941
H29   H     H_    0.146215 0.048788 0.779858 0.209972
H30   H     H_    0.883377 0.958311 0.295550 0.179519
H31   H     H_    0.039632 0.663351 0.588587 0.358173
H32   H     H_    0.334846 0.957226 0.400350 0.370053
H33   H     H_    0.770044 0.716834 0.039988 0.308315
H34   H     H_    0.334791 0.566320 0.053858 0.164535
H35   H     H_    0.246175 0.549038 0.003166 0.337641
H36   H     H_    0.707845 0.039226 0.743899 0.305481
H37   H     H_    0.606883 0.009126 0.095709 0.310534
H38   H     H_    0.441563 0.984507 0.660578 0.191253
H39   H     H_    0.561474 0.020430 0.337587 0.228729
H40   H     H_    0.141002 0.955898 0.203724 0.221094
H41   H     H_    0.053073 0.850758 0.792585 0.232779
H42   H     H_    0.803827 0.421275 0.306001 0.209787
O1    O     O_3   0.250000 0.250000 0.250000 -0.513436
O2    O     O_R   0.865800 0.694910 0.573470 -0.632657
O3    O     O_R   0.305090 0.426530 0.134200 -0.666211
O4    O     O_R   0.694910 0.573470 0.865800 -0.648241
O5    O     O_R   0.426530 0.134200 0.305090 -0.637993
O6    O     O_R   0.573470 0.865800 0.694910 -0.633017
O7    O     O_R   0.134190 0.426530 0.134200 -0.616774
O8    O     O_R   0.865810 0.573470 0.865800 -0.611019
O9    O     O_R   0.426530 0.134200 0.134190 -0.625786
O10   O     O_R   0.573470 0.865800 0.865810 -0.592069
O11   O     O_R   0.134200 0.134190 0.426530 -0.661478
O12   O     O_3   0.750000 0.750000 0.750000 -0.509137
O13   O     O_R   0.865800 0.865810 0.573470 -0.661511
O14   O     O_R   0.426530 0.305080 0.134210 -0.625314
O15   O     O_R   0.573470 0.694920 0.865790 -0.631428
O16   O     O_R   0.305080 0.134210 0.426530 -0.625253
O17   O     O_R   0.694920 0.865790 0.573470 -0.651157
O18   O     O_R   0.134210 0.426530 0.305080 -0.639653
O19   O     O_R   0.865790 0.573470 0.694920 -0.648324
O20   O     O_2   0.015880 0.732249 0.447960 -0.575970
O21   O     O_R   0.041451 0.726420 0.559845 -0.781468
O22   O     O_2   0.276582 0.974741 0.542290 -0.582110
O23   O     O_R   0.305080 0.134200 0.134200 -0.552102
O24   O     O_R   0.272163 0.954525 0.432676 -0.791831
O25   O     O_2   0.695606 0.600354 0.035414 -0.534174
O26   O     O_R   0.729324 0.709044 0.024408 -0.763537
O27   O     O_2   0.311024 0.425663 0.950968 -0.554393
O28   O     O_R   0.203025 0.550415 0.983342 -0.747593
O29   O     O_2   0.569572 0.032118 0.699398 -0.564685
O30   O     O_R   0.691182 0.023113 0.710242 -0.791863
O31   O     O_2   0.486634 0.946484 0.295237 -0.575516
O32   O     O_R   0.578797 0.006988 0.160464 -0.736565
O33   O     O_R   0.694920 0.865800 0.865800 -0.606088
O34   O     O_R   0.134200 0.134200 0.305080 -0.558827
O35   O     O_R   0.865800 0.865800 0.694920 -0.555091
O36   O     O_R   0.134200 0.305080 0.134200 -0.580452
O37   O     O_R   0.865800 0.694920 0.865800 -0.564374
O38   O     O_R   0.134200 0.305090 0.426530 -0.649812
Zn1   Zn    Zn3+2 0.206620 0.206630 0.380140 1.011624
Zn2   Zn    Zn3+2 0.793380 0.793370 0.619860 1.025260
Zn3   Zn    Zn3+2 0.206630 0.380140 0.206620 1.024885
Zn4   Zn    Zn3+2 0.793370 0.619860 0.793380 1.040403
Zn5   Zn    Zn3+2 0.380140 0.206620 0.206630 1.044627
Zn6   Zn    Zn3+2 0.619860 0.793380 0.793370 1.067295
Zn7   Zn    Zn3+2 0.206620 0.206620 0.206620 1.154648
Zn8   Zn    Zn3+2 0.793380 0.793380 0.793380 1.150628

loop_
_geom_bond_atom_site_label_1
_geom_bond_atom_site_label_2
_ccdc_geom_bond_type
C10   C27   S    
C54   H12   S    
C55   C62   A    
C15   O26   S    
C22   C29   A    
C20   C82   A    
C51   F9    S    
O3    Zn3   S    
C73   O38   A    
O6    Zn6   S    
C75   O14   A    
C1    C11   S    
C92   F11   S    
C1    O9    A    
C22   C104  A    
C106  C112  A    
O14   Zn5   S    
C37   H22   S    
C55   H23   S    
O37   Zn8   S    
C14   O24   S    
O33   Zn8   S    
C77   O5    A    
C98   C105  A    
C38   O34   A    
C79   C112  A    
C57   C64   A    
C103  C110  A    
C78   O6    A    
C26   C67   S    
O1    Zn1   S    
C12   O20   D    
C3    C109  A    
C102  C109  A    
C80   C87   A    
C76   O4    A    
C33   H18   S    
C59   C66   A    
C47   C93   A    
C32   C39   A    
C96   C102  A    
C48   C104  A    
C87   C94   A    
C88   H42   S    
C7    C112  A    
C25   H17   S    
H35   O28   S    
C108  C114  A    
C17   O29   D    
C35   C42   A    
O13   Zn2   S    
C27   O10   A    
C107  C113  A    
C12   C99   S    
C4    C110  A    
C93   H6    S    
C2    C50   A    
C46   C82   A    
C19   C52   A    
C91   H4    S    
C22   H14   S    
C84   F3    S    
C8    C71   S    
C50   F8    S    
C81   C114  A    
C76   O15   A    
C64   C70   A    
O18   Zn3   S    
C27   O33   A    
C53   C59   A    
C39   C45   A    
C5    C85   A    
C101  C108  A    
O10   Zn6   S    
C105  C111  A    
C88   C95   A    
C28   C34   A    
O9    Zn5   S    
C80   F17   S    
C13   C51   A    
O5    Zn5   S    
C9    C109  A    
O1    Zn5   S    
C71   O8    A    
C62   C76   S    
C34   C41   A    
C84   C90   A    
C16   O28   S    
C8    C108  A    
H32   O24   S    
C36   H21   S    
C29   C69   S    
C85   C91   A    
C87   H41   S    
C33   C40   A    
C65   C77   S    
C11   C111  A    
C81   C88   A    
C23   C30   A    
C63   C69   A    
C40   H25   S    
C53   H1    S    
C42   H27   S    
C3    C8    A    
C24   H16   S    
H33   O26   S    
C48   F7    S    
C58   C70   A    
C81   F18   S    
C32   C70   S    
C5    C111  A    
C45   C52   A    
C61   C73   S    
C56   C68   A    
C79   F16   S    
O12   Zn8   S    
O36   Zn7   S    
C31   C37   A    
C13   C24   A    
O12   Zn4   S    
O1    Zn3   S    
C17   O30   S    
C28   C66   S    
C45   H30   S    
C6    C113  A    
C74   O2    A    
C95   F13   S    
C15   O25   D    
C94   C100  A    
C61   C67   A    
C58   C65   A    
C4    C84   A    
H31   O21   S    
C94   F1    S    
O12   Zn6   S    
C41   C47   A    
C56   C63   A    
C96   F12   S    
C49   O13   A    
O7    Zn3   S    
C42   C48   A    
C15   C101  S    
C4    C11   A    
C6    C106  A    
C59   C74   S    
C97   C103  A    
C44   C51   A    
C16   C102  S    
C31   C72   S    
C21   C28   A    
C43   H28   S    
C19   H10   S    
C71   O37   A    
C18   O31   D    
C3    C83   A    
C91   C98   A    
C86   H40   S    
C12   O21   S    
C7    C107  A    
C35   H20   S    
C9    C114  A    
C56   H34   S    
C16   O27   D    
C65   C72   A    
H37   O32   S    
C64   C78   S    
O15   Zn6   S    
C63   C75   S    
O19   Zn4   S    
C57   H38   S    
C60   O7    A    
C99   C106  A    
C14   O22   D    
C83   C89   A    
C100  C107  A    
C89   H2    S    
C90   C97   A    
C13   H9    S    
O35   Zn8   S    
O1    Zn7   S    
C83   F2    S    
C1    O23   A    
C78   O17   A    
C20   C26   A    
C34   H19   S    
O8    Zn4   S    
C43   C50   A    
C14   C100  S    
C54   C66   A    
C54   C61   A    
C30   C36   A    
C82   H5    S    
C38   O11   A    
C29   C35   A    
C104  H7    S    
O4    Zn4   S    
C39   H24   S    
C18   O32   S    
C9    C60   S    
C2    H8    S    
C55   C69   A    
C89   C96   A    
C58   H39   S    
C17   C103  S    
C18   C105  S    
C97   F15   S    
C5    C10   A    
O17   Zn2   S    
C23   H15   S    
C53   C67   A    
C90   H3    S    
C52   F10   S    
O38   Zn1   S    
C21   C93   A    
O34   Zn7   S    
C40   C46   A    
O12   Zn2   S    
C77   O16   A    
C24   C31   A    
C7    C38   S    
O11   Zn1   S    
C46   F5    S    
C10   C110  A    
O2    Zn2   S    
C62   C68   A    
C57   C72   A    
C85   F4    S    
C75   O3    A    
O16   Zn1   S    
C74   O19   A    
C73   O18   A    
C19   C25   A    
C98   F14   S    
C41   H26   S    
C37   C44   A    
H36   O30   S    
C80   C113  A    
C92   C99   A    
C44   H29   S    
C49   O35   A    
C2    C23   A    
C47   F6    S    
C20   H11   S    
C36   C43   A    
C86   C92   A    
O23   Zn7   S    
C60   O36   A    
C79   C86   A    
C30   C68   S    
C6    C49   S    
C95   C101  A    
C26   C33   A    
C21   H13   S    
C25   C32   A    
