data_mof_unit_53730.cif
_audit_creation_date              2012-12-10T19:46:24-0500
_audit_creation_method            fapswitch 2.2
_symmetry_space_group_name_H-M    P1
_symmetry_Int_Tables_number       1
_space_group_crystal_system       triclinic
_cell_length_a                    10.890544
_cell_length_b                    10.908582
_cell_length_c                    10.450905
_cell_angle_alpha                 91.886358
_cell_angle_beta                  91.052301
_cell_angle_gamma                 89.540456
_cell_volume                      1240.65533693

loop_
_atom_site_label
_atom_site_type_symbol
_atom_type_description
_atom_site_fract_x
_atom_site_fract_y
_atom_site_fract_z
_atom_type_partial_charge
C1    C     C_R   0.499579 0.261322 0.497724 0.810740
C2    C     C_R   0.499493 0.738467 0.502338 0.782713
C3    C     C_R   0.872135 0.512092 0.504110 -0.109918
C4    C     C_R   0.127984 0.510942 0.496050 -0.105656
C5    C     C_R   0.942176 0.511400 0.619103 -0.008537
C6    C     C_R   0.058024 0.507807 0.380782 -0.008698
C7    C     C_R   0.463137 0.179956 0.052657 -0.125424
C8    C     C_R   0.554792 0.812290 0.941833 -0.138089
C9    C     C_R   0.446726 0.156909 0.182066 -0.094077
C10   C     C_R   0.568744 0.854451 0.818016 -0.107816
C11   C     C_R   0.541231 0.101652 0.253405 0.138638
C12   C     C_R   0.465590 0.892498 0.746618 0.129204
C13   C     C_R   0.650694 0.066950 0.192171 -0.103337
C14   C     C_R   0.348790 0.889038 0.800922 -0.130813
C15   C     C_R   0.665056 0.086845 0.062125 -0.080384
C16   C     C_R   0.335265 0.846878 0.924805 -0.139582
C17   C     C_R   0.571907 0.144717 0.992633 -0.067563
C18   C     C_R   0.438192 0.808920 0.995334 -0.114405
C19   C     C_R   0.516820 0.928444 0.389808 -0.247945
C20   C     C_R   0.477718 0.070591 0.610840 -0.225667
C21   C     C_R   0.499518 0.871877 0.505857 -0.077763
C22   C     C_R   0.497173 0.127601 0.494472 -0.089277
C23   C     C_R   0.261453 0.502404 0.498546 0.812681
C24   C     C_R   0.738578 0.503173 0.501511 0.811621
C25   C     C_R   0.480929 0.943876 0.618713 -0.015398
C26   C     C_R   0.517312 0.054892 0.381934 -0.011411
C27   C     C_1   0.499837 0.499925 0.071999 0.119618
C28   C     C_1   0.499917 0.499841 0.927980 0.130311
C29   C     C_R   0.160731 0.518385 0.037051 -0.183674
C30   C     C_R   0.834901 0.317701 0.884811 -0.171895
C31   C     C_R   0.126801 0.557487 0.160556 -0.213543
C32   C     C_R   0.870223 0.354074 0.764565 -0.133043
C33   C     C_R   0.108073 0.471044 0.254693 0.169103
C34   C     C_R   0.891913 0.478106 0.743055 0.166167
C35   C     C_R   0.122950 0.345705 0.224006 -0.148981
C36   C     C_R   0.877073 0.565829 0.842924 -0.218197
C37   C     C_R   0.154849 0.306957 0.100400 -0.198242
C38   C     C_R   0.840029 0.529107 0.963294 -0.196901
C39   C     C_R   0.173768 0.392956 0.006799 0.422012
C40   C     C_R   0.819806 0.404798 0.984312 0.434429
C41   C     C_R   0.931492 0.519019 0.387082 -0.196863
C42   C     C_R   0.068646 0.520770 0.613514 -0.191468
Cu1   Cu    Cu3+1 0.500000 0.500000 0.625300 1.011952
Cu2   Cu    Cu3+1 0.500000 0.500000 0.374700 1.005188
H1    H     H_    0.722852 0.019773 0.244143 0.118000
H2    H     H_    0.268641 0.919585 0.747613 0.129884
H3    H     H_    0.748120 0.056297 0.015274 0.111580
H4    H     H_    0.245078 0.844218 0.966403 0.120046
H5    H     H_    0.531257 0.873527 0.302844 0.158031
H6    H     H_    0.461145 0.124945 0.697594 0.176800
H7    H     H_    0.174657 0.585266 0.964539 0.147874
H8    H     H_    0.821412 0.221516 0.900590 0.139384
H9    H     H_    0.113285 0.654348 0.182222 0.130403
H10   H     H_    0.883693 0.285283 0.688855 0.138124
H11   H     H_    0.106360 0.277900 0.295002 0.139290
H12   H     H_    0.895544 0.661655 0.827966 0.129431
H13   H     H_    0.163701 0.209893 0.077148 0.149340
H14   H     H_    0.829072 0.596764 0.040452 0.141729
H15   H     H_    0.879089 0.523315 0.298616 0.210101
H16   H     H_    0.121084 0.525451 0.702420 0.208184
H17   H     H_    0.583661 0.161199 0.892142 0.121228
H18   H     H_    0.427562 0.776798 0.091362 0.128253
H19   H     H_    0.390687 0.222572 0.997950 0.174171
H20   H     H_    0.634427 0.782976 0.996628 0.116513
H21   H     H_    0.359697 0.179032 0.225916 0.119727
H22   H     H_    0.659647 0.858223 0.778055 0.108235
N1    N     N_1   0.500010 0.499990 0.186410 -0.122405
N2    N     N_1   0.499990 0.500010 0.813590 -0.121151
O1    O     O_R   0.499990 0.319650 0.605810 -0.570071
O2    O     O_R   0.500010 0.680350 0.394190 -0.598708
O3    O     O_R   0.499990 0.319640 0.394190 -0.561171
O4    O     O_R   0.500010 0.680360 0.605810 -0.577000
O5    O     O_R   0.319640 0.500010 0.605810 -0.543772
O6    O     O_R   0.680360 0.499990 0.394190 -0.540372
O7    O     O_R   0.319650 0.500010 0.394190 -0.587299
O8    O     O_R   0.680350 0.499990 0.605810 -0.585581
Cl1   Cl    Cl    0.211743 0.342143 0.851536 -0.714355
Cl2   Cl    Cl    0.777993 0.356850 0.135361 -0.684258

loop_
_geom_bond_atom_site_label_1
_geom_bond_atom_site_label_2
_ccdc_geom_bond_type
Cu1   O5    S    
C30   C32   A    
C5    C42   A    
Cu1   O4    S    
C15   H3    S    
C16   H4    S    
C28   N2    T    
C14   H2    S    
C1    O3    A    
C39   Cl1   S    
C38   C40   A    
C20   C25   A    
Cu2   O3    S    
C15   C17   A    
C19   C26   A    
C20   H6    S    
C17   H17   S    
C38   H14   S    
Cu1   N2    S    
C7    C17   A    
C6    C41   A    
C31   C33   A    
Cu2   O2    S    
C1    C22   S    
Cu1   O1    S    
C3    C24   S    
C23   O5    A    
C2    O4    A    
C32   H10   S    
C10   H22   S    
C37   C39   A    
C35   H11   S    
C41   H15   S    
C4    C6    A    
C42   H16   S    
C4    C23   S    
C18   H18   S    
C11   C26   S    
C1    O1    A    
C32   C34   A    
Cu2   O7    S    
Cu1   Cu2   S    
C36   H12   S    
C19   H5    S    
C5    C34   S    
C29   C39   A    
C2    C21   S    
C8    C18   A    
C30   C40   A    
C31   H9    S    
Cu2   O6    S    
C9    C11   A    
C7    H19   S    
C10   C12   A    
C8    H20   S    
C40   Cl2   S    
C8    C10   A    
C20   C22   A    
C13   C15   A    
C14   C16   A    
C35   C37   A    
C29   H7    S    
Cu1   O8    S    
C7    C9    A    
C21   C25   A    
C3    C41   A    
C19   C21   A    
C24   O8    A    
C23   O7    A    
C3    C5    A    
C6    C33   S    
C12   C25   S    
C36   C38   A    
C12   C14   A    
C29   C31   A    
C13   H1    S    
C11   C13   A    
C24   O6    A    
C4    C42   A    
C33   C35   A    
C34   C36   A    
C9    H21   S    
C27   N1    T    
C16   C18   A    
C22   C26   A    
C27   C28   S    
Cu2   N1    S    
C2    O2    A    
C37   H13   S    
C30   H8    S    
