data_mof_unit_54583.cif
_audit_creation_date              2012-12-10T19:50:04-0500
_audit_creation_method            fapswitch 2.2
_symmetry_space_group_name_H-M    P1
_symmetry_Int_Tables_number       1
_space_group_crystal_system       triclinic
_cell_length_a                    14.436228
_cell_length_b                    14.855335
_cell_length_c                    15.479214
_cell_angle_alpha                 91.98796
_cell_angle_beta                  66.885911
_cell_angle_gamma                 90.134704
_cell_volume                      3051.04760305

loop_
_atom_site_label
_atom_site_type_symbol
_atom_type_description
_atom_site_fract_x
_atom_site_fract_y
_atom_site_fract_z
_atom_type_partial_charge
C1    C     C_R   0.500212 0.671530 0.499548 0.861436
C2    C     C_R   0.499700 0.328384 0.500534 0.851560
C3    C     C_R   0.397769 0.409385 0.091298 -0.228823
C4    C     C_R   0.624974 0.480599 0.889099 -0.233393
C5    C     C_R   0.327234 0.401305 0.050855 -0.241501
C6    C     C_R   0.695466 0.490631 0.928926 -0.245157
C7    C     C_R   0.507409 0.907949 0.577199 -0.166555
C8    C     C_R   0.566576 0.089508 0.431231 -0.165562
C9    C     C_R   0.512633 0.815006 0.573680 -0.224007
C10   C     C_R   0.570082 0.182223 0.430188 -0.222699
C11   C     C_R   0.499341 0.767218 0.500379 -0.009685
C12   C     C_R   0.498179 0.232704 0.503412 -0.000775
C13   C     C_R   0.479597 0.810840 0.430927 -0.218734
C14   C     C_R   0.423045 0.191526 0.578212 -0.211701
C15   C     C_R   0.475597 0.903790 0.433636 -0.176061
C16   C     C_R   0.420367 0.098525 0.580004 -0.177389
C17   C     C_R   0.489765 0.951817 0.506652 0.105387
C18   C     C_R   0.491863 0.048135 0.506101 0.103963
C19   C     C_R   0.866217 0.544339 0.570484 -0.344726
C20   C     C_R   0.094549 0.420907 0.523890 -0.355786
C21   C     C_R   0.770676 0.551303 0.565434 0.221137
C22   C     C_R   0.198515 0.419836 0.506494 0.191412
C23   C     C_R   0.436284 0.499419 0.676130 0.851625
C24   C     C_R   0.563617 0.498381 0.323789 0.850526
C25   C     C_R   0.826522 0.451703 0.431243 0.187169
C26   C     C_R   0.198782 0.578874 0.499698 0.176143
C27   C     C_R   0.921234 0.438459 0.439748 0.125247
C28   C     C_R   0.105498 0.574701 0.486243 0.123818
C29   C     C_R   0.942965 0.489582 0.507740 0.081251
C30   C     C_R   0.048532 0.495736 0.506929 0.109214
C31   C     C_R   0.397614 0.487080 0.777477 -0.058790
C32   C     C_R   0.603177 0.490439 0.221049 -0.051366
C33   C     C_R   0.278022 0.424743 0.920020 -0.206182
C34   C     C_R   0.734164 0.507984 0.066897 -0.210149
C35   C     C_R   0.302544 0.451243 0.827890 -0.209109
C36   C     C_R   0.702512 0.511703 0.164350 -0.211980
C37   C     C_R   0.465609 0.498593 0.820445 -0.251895
C38   C     C_R   0.536782 0.463438 0.179593 -0.264279
C39   C     C_R   0.447257 0.463578 0.907881 0.096166
C40   C     C_R   0.565588 0.461692 0.082264 0.093727
C41   C     C_R   0.350232 0.429868 0.960054 0.174798
C42   C     C_R   0.665770 0.485827 0.025654 0.181485
C43   C     C_R   0.522645 0.463420 0.945033 0.069214
C44   C     C_R   0.495109 0.444018 0.040669 0.067773
H1    H     H_    0.253824 0.374023 0.091473 0.144251
H2    H     H_    0.772613 0.505932 0.884229 0.143759
H3    H     H_    0.882197 0.585156 0.622357 0.167476
H4    H     H_    0.050921 0.359888 0.541860 0.153733
H5    H     H_    0.460413 0.449227 0.225065 0.149594
H6    H     H_    0.534183 0.534034 0.783348 0.141613
H7    H     H_    0.754664 0.534029 0.194768 0.144929
H8    H     H_    0.248824 0.441490 0.795528 0.151207
H9    H     H_    0.204029 0.397697 0.958825 0.133634
H10   H     H_    0.810852 0.526258 0.023936 0.133783
H11   H     H_    0.374805 0.385242 0.161467 0.140929
H12   H     H_    0.653108 0.484765 0.813699 0.148817
H13   H     H_    0.518505 0.945612 0.633528 0.139909
H14   H     H_    0.621878 0.049956 0.374192 0.137873
H15   H     H_    0.524350 0.780085 0.628718 0.141231
H16   H     H_    0.626727 0.214043 0.371343 0.129713
H17   H     H_    0.468310 0.773021 0.374770 0.134167
H18   H     H_    0.367391 0.231294 0.634760 0.130993
H19   H     H_    0.461911 0.938365 0.379179 0.136837
H20   H     H_    0.362566 0.065849 0.637795 0.135673
N1    N     N_R   0.747530 0.500020 0.500000 -0.127386
N2    N     N_R   0.252470 0.499980 0.500000 -0.120937
O1    O     O_R   0.420530 0.630930 0.499990 -0.621742
O2    O     O_R   0.579470 0.369070 0.500010 -0.611202
O3    O     O_R   0.579480 0.630940 0.499990 -0.627855
O4    O     O_R   0.420520 0.369060 0.500010 -0.625910
O5    O     O_R   0.375120 0.499990 0.632240 -0.629826
O6    O     O_R   0.624880 0.500010 0.367760 -0.628855
O7    O     O_R   0.534080 0.500000 0.632240 -0.625800
O8    O     O_R   0.465920 0.500000 0.367760 -0.622116
Zn1   Zn    Zn3+2 0.393860 0.499990 0.500000 0.910891
Zn2   Zn    Zn3+2 0.606140 0.500010 0.500000 0.920535
C45   C     C_3   0.701525 0.623684 0.629772 -0.391107
C46   C     C_3   0.742877 0.718850 0.601958 -0.365606
C47   C     C_3   0.701281 0.786303 0.685288 -0.900971
H21   H     H_    0.618001 0.782945 0.719578 0.256185
H22   H     H_    0.733140 0.771517 0.738032 0.262446
H23   H     H_    0.722798 0.855601 0.660812 0.256363
H24   H     H_    0.826320 0.719979 0.575704 0.225187
H25   H     H_    0.721897 0.741182 0.544171 0.239005
H26   H     H_    0.625594 0.623224 0.630556 0.243876
H27   H     H_    0.693726 0.611385 0.702734 0.177415
C48   C     C_3   0.243522 0.325438 0.486561 -0.331432
C49   C     C_3   0.313089 0.310988 0.382138 -0.306836
C50   C     C_3   0.344873 0.212365 0.357383 -0.910347
H28   H     H_    0.381051 0.187231 0.403221 0.285000
H29   H     H_    0.278287 0.170357 0.365973 0.258127
H30   H     H_    0.399325 0.205515 0.283102 0.249598
H31   H     H_    0.272428 0.331751 0.337969 0.199286
H32   H     H_    0.381114 0.352772 0.363143 0.253226
H33   H     H_    0.273364 0.305617 0.538562 0.209070
H34   H     H_    0.183338 0.274486 0.499427 0.161747
C51   C     C_3   0.827335 0.435401 0.333850 -0.372508
C52   C     C_3   0.784781 0.343656 0.320161 -0.302600
C53   C     C_3   0.831055 0.309076 0.217865 -0.944993
H35   H     H_    0.818493 0.358516 0.171318 0.278502
H36   H     H_    0.913229 0.296998 0.195445 0.261346
H37   H     H_    0.795409 0.244576 0.210382 0.253879
H38   H     H_    0.798715 0.292771 0.364839 0.220645
H39   H     H_    0.702934 0.350163 0.340127 0.248080
H40   H     H_    0.791641 0.492509 0.315755 0.200444
H41   H     H_    0.905084 0.442066 0.280039 0.187425
C54   C     C_3   0.224599 0.671430 0.528574 -0.362548
C55   C     C_3   0.213248 0.674671 0.631676 -0.315312
C56   C     C_3   0.226005 0.770014 0.665178 -0.906576
H42   H     H_    0.299229 0.797862 0.618877 0.284433
H43   H     H_    0.164486 0.814755 0.665139 0.257585
H44   H     H_    0.223142 0.768856 0.737868 0.248386
H45   H     H_    0.136785 0.651287 0.676876 0.198882
H46   H     H_    0.267977 0.629333 0.642146 0.265613
H47   H     H_    0.295868 0.696224 0.476631 0.216525
H48   H     H_    0.171366 0.723967 0.526651 0.193145
C57   C     C_3   0.002057 0.375023 0.372657 -0.950786
H49   H     H_    0.069196 0.413815 0.329514 0.247610
H50   H     H_    0.024080 0.324759 0.412372 0.243189
H51   H     H_    0.976934 0.333919 0.325169 0.249926
C58   C     C_3   0.066573 0.653949 0.450597 -0.972540
H52   H     H_    0.022891 0.631198 0.408875 0.256654
H53   H     H_    0.017660 0.697862 0.510595 0.238946
H54   H     H_    0.130089 0.693351 0.402182 0.239749

loop_
_geom_bond_atom_site_label_1
_geom_bond_atom_site_label_2
_ccdc_geom_bond_type
C38   C40   A    
C48   C49   S    
C27   C29   A    
C57   H49   S    
C11   C13   A    
C1    C11   S    
O6    Zn2   S    
C2    C12   S    
C51   C52   S    
C39   C41   A    
C38   H5    S    
C20   C30   A    
C45   C46   S    
N1    Zn2   S    
C32   C36   A    
C19   C21   A    
C2    O2    A    
C56   H43   S    
C19   H3    S    
C52   H38   S    
C14   H18   S    
C55   C56   S    
O3    Zn2   S    
C15   C17   A    
C55   H46   S    
C22   N2    A    
C58   H54   S    
C8    H14   S    
C3    H11   S    
C46   H24   S    
C34   C42   A    
C7    C17   A    
C48   H33   S    
C54   C55   S    
C14   C16   A    
C32   C38   A    
C50   H29   S    
C51   H40   S    
C40   C42   A    
C45   H26   S    
C4    H12   S    
C23   O7    A    
C27   C57   S    
C33   H9    S    
C49   H32   S    
C3    C44   A    
O8    Zn1   S    
C26   N2    A    
C23   O5    A    
C25   N1    A    
C4    C6    A    
C56   H44   S    
C47   H22   S    
C46   C47   S    
C39   C43   A    
C5    H1    S    
C1    O3    A    
C31   C37   A    
C9    H15   S    
C23   C31   S    
C55   H45   S    
C10   H16   S    
C43   C44   A    
C24   C32   S    
C29   C30   S    
C53   H35   S    
C48   H34   S    
C17   C18   S    
C16   C18   A    
C22   C48   S    
C50   H30   S    
C9    C11   A    
C54   H47   S    
C58   H52   S    
C20   H4    S    
C36   H7    S    
C10   C12   A    
C51   H41   S    
C25   C51   S    
C53   H36   S    
C12   C14   A    
C45   H27   S    
C34   H10   S    
C13   C15   A    
O7    Zn2   S    
C31   C35   A    
C57   H51   S    
O1    Zn1   S    
C19   C29   A    
C35   H8    S    
C24   O6    A    
C7    C9    A    
C5    C41   A    
C49   H31   S    
C6    H2    S    
C21   N1    A    
C28   C58   S    
C20   C22   A    
C3    C5    A    
C26   C54   S    
C47   H23   S    
C1    O1    A    
C4    C43   A    
C25   C27   A    
C26   C28   A    
C33   C41   A    
C57   H50   S    
C37   C39   A    
C56   H42   S    
O5    Zn1   S    
C37   H6    S    
O2    Zn2   S    
C24   O8    A    
C52   H39   S    
N2    Zn1   S    
C28   C30   A    
C33   C35   A    
C34   C36   A    
C8    C18   A    
C54   H48   S    
C58   H53   S    
C47   H21   S    
C46   H25   S    
C40   C44   A    
C53   H37   S    
C13   H17   S    
C49   C50   S    
C8    C10   A    
C52   C53   S    
C6    C42   A    
C21   C45   S    
O4    Zn1   S    
C15   H19   S    
C16   H20   S    
C50   H28   S    
C2    O4    A    
C7    H13   S    
