data_mof_unit_62475.cif
_audit_creation_date              2012-10-26T17:19:10-0400
_audit_creation_method            fapswitch 2.2
_symmetry_space_group_name_H-M    P1
_symmetry_Int_Tables_number       1
_space_group_crystal_system       triclinic
_cell_length_a                    37.024527
_cell_length_b                    30.206414
_cell_length_c                    21.55893
_cell_angle_alpha                 89.997972
_cell_angle_beta                  54.567521
_cell_angle_gamma                 90.000026
_cell_volume                      19645.6559202

loop_
_atom_site_label
_atom_site_type_symbol
_atom_type_description
_atom_site_fract_x
_atom_site_fract_y
_atom_site_fract_z
_atom_type_partial_charge
C1    C     C_R   0.914383 0.499976 0.585854 0.587240
C2    C     C_R   0.343121 0.475314 0.111496 -0.099158
C3    C     C_R   0.972334 0.842984 0.068668 0.353484
C4    C     C_R   0.500001 0.365983 0.000001 -0.022270
C5    C     C_R   0.000002 0.865983 0.000001 -0.022270
C6    C     C_R   0.471754 0.296553 0.069249 0.024668
C7    C     C_R   0.528251 0.296557 0.930755 0.024669
C8    C     C_R   0.971754 0.796553 0.069249 0.024667
C9    C     C_R   0.028251 0.796557 0.930754 0.024669
C10   C     C_R   0.500003 0.273283 0.000002 -0.152271
C11   C     C_R   0.000003 0.773283 0.000001 -0.152271
C12   C     C_R   0.443543 0.272781 0.137345 0.432369
C13   C     C_R   0.156874 0.975256 0.888451 -0.099146
C14   C     C_R   0.556462 0.272788 0.862658 0.432368
C15   C     C_R   0.943544 0.772781 0.137345 0.432370
C16   C     C_R   0.056462 0.772788 0.862657 0.432368
C17   C     C_R   0.943309 0.726662 0.136755 -0.047737
C18   C     C_R   0.056697 0.726669 0.863247 -0.047740
C19   C     C_R   0.443309 0.226662 0.136755 -0.047737
C20   C     C_R   0.556697 0.226669 0.863248 -0.047742
C21   C     C_R   0.971293 0.703276 0.068714 -0.027315
C22   C     C_R   0.028712 0.703280 0.931288 -0.027314
C23   C     C_R   0.471293 0.203276 0.068714 -0.027315
C24   C     C_R   0.843120 0.975326 0.111483 -0.099160
C25   C     C_R   0.528713 0.203280 0.931288 -0.027313
C26   C     C_3   0.983065 0.544382 0.229797 -0.253469
C27   C     C_3   0.017008 0.544363 0.770122 -0.253442
C28   C     C_3   0.483096 0.044392 0.229765 -0.253475
C29   C     C_3   0.517134 0.044324 0.769992 -0.253417
C30   C     C_R   0.000003 0.726611 0.000001 -0.072529
C31   C     C_R   0.500003 0.226611 0.000001 -0.072528
C32   C     C_R   0.971164 0.656933 0.068198 0.312877
C33   C     C_R   0.028841 0.656936 0.931804 0.312874
C34   C     C_R   0.471164 0.156933 0.068198 0.312880
C35   C     C_R   0.633997 0.499681 0.866267 0.017472
C36   C     C_R   0.528841 0.156936 0.931804 0.312870
C37   C     C_R   0.000002 0.633879 0.000000 0.031700
C38   C     C_R   0.500002 0.133879 0.000000 0.031703
C39   C     C_R   0.527916 0.656900 0.012994 0.351100
C40   C     C_R   0.472086 0.656900 0.986997 0.351104
C41   C     C_R   0.027916 0.156900 0.012994 0.351098
C42   C     C_R   0.972086 0.156900 0.986997 0.351107
C43   C     C_R   0.500001 0.633907 0.999996 -0.024204
C44   C     C_R   0.000001 0.133908 0.999996 -0.024204
C45   C     C_R   0.471494 0.703330 0.987607 0.022681
C46   C     C_R   0.366001 0.499682 0.133735 0.017450
C47   C     C_R   0.528508 0.703330 0.012386 0.022676
C48   C     C_R   0.971494 0.203330 0.987607 0.022679
C49   C     C_R   0.028508 0.203330 0.012386 0.022677
C50   C     C_R   0.500000 0.726602 0.999997 -0.153058
C51   C     C_R   0.000000 0.226602 0.999997 -0.153058
C52   C     C_R   0.443020 0.727100 0.976313 0.432876
C53   C     C_R   0.556981 0.727099 0.023681 0.432881
C54   C     C_R   0.943021 0.227100 0.976313 0.432880
C55   C     C_R   0.056981 0.227099 0.023681 0.432881
C56   C     C_R   0.942776 0.273218 0.977405 -0.042737
C57   C     C_R   0.133996 0.999681 0.866267 0.017478
C58   C     C_R   0.057223 0.273217 0.022593 -0.042730
C59   C     C_R   0.442776 0.773218 0.977405 -0.042751
C60   C     C_R   0.557224 0.773217 0.022592 -0.042727
C61   C     C_R   0.971020 0.296606 0.989107 -0.028564
C62   C     C_R   0.028979 0.296605 0.010893 -0.028563
C63   C     C_R   0.471020 0.796605 0.989106 -0.028567
C64   C     C_R   0.528979 0.796605 0.010892 -0.028562
C65   C     C_3   0.046156 0.490128 0.241259 0.246507
C66   C     C_3   0.953830 0.490204 0.758753 0.246432
C67   C     C_3   0.546152 0.990094 0.241261 0.246530
C68   C     C_R   0.866001 0.999682 0.133736 0.017445
C69   C     C_3   0.453814 0.990347 0.758763 0.246369
C70   C     C_R   1.000000 0.273273 0.999999 -0.074050
C71   C     C_R   0.500000 0.773273 0.999999 -0.074048
C72   C     C_R   0.970885 0.342948 0.989902 0.316469
C73   C     C_R   0.029112 0.342948 0.010101 0.316478
C74   C     C_R   0.470885 0.842948 0.989902 0.316457
C75   C     C_R   0.529112 0.842948 0.010100 0.316482
C76   C     C_R   0.999999 0.366007 0.000002 0.029712
C77   C     C_R   0.499999 0.866007 0.000001 0.029710
C78   C     C_3   0.966783 0.462926 0.318346 -0.105403
C79   C     C_R   0.657251 0.523850 0.798364 -0.102899
C80   C     C_3   0.033162 0.462869 0.681717 -0.105401
C81   C     C_3   0.466758 0.962947 0.318373 -0.105413
C82   C     C_3   0.533060 0.962782 0.681829 -0.105376
C83   C     C_3   0.998504 0.499672 0.312337 0.028028
C84   C     C_3   0.001502 0.499670 0.687657 0.028069
C85   C     C_3   0.498506 0.999672 0.312335 0.028015
C86   C     C_3   0.501510 0.999670 0.687647 0.028105
C87   C     C_3   0.999876 0.499080 0.189202 -0.027804
C88   C     C_3   0.000125 0.499083 0.810797 -0.027771
C89   C     C_3   0.499876 0.999077 0.189202 -0.027796
C90   C     C_R   0.342748 0.523808 0.201677 -0.102907
C91   C     C_3   0.500126 0.999094 0.810796 -0.027793
C92   C     C_3   0.047102 0.490702 0.168786 -0.175528
C93   C     C_3   0.952883 0.490774 0.831226 -0.175523
C94   C     C_3   0.547098 0.990667 0.168789 -0.175530
C95   C     C_3   0.452866 0.990914 0.831237 -0.175519
C96   C     C_1   0.705282 0.422190 0.930935 0.216321
C97   C     C_1   0.294710 0.422328 0.068931 0.216309
C98   C     C_1   0.205281 0.922145 0.930885 0.216333
C99   C     C_1   0.794709 0.922369 0.068887 0.216304
C100  C     C_1   0.920784 0.468795 0.386384 0.171108
C101  C     C_R   0.157251 0.023864 0.798380 -0.102896
C102  C     C_1   0.079173 0.468659 0.613661 0.171125
C103  C     C_1   0.420764 0.968849 0.386408 0.171098
C104  C     C_1   0.579083 0.968432 0.613758 0.171164
C105  C     C_R   0.085617 0.499977 0.414148 0.587205
C106  C     C_R   0.842747 0.023795 0.201692 -0.102910
C107  C     C_R   0.703511 0.524433 0.752821 0.028030
C108  C     C_R   0.296488 0.524391 0.247223 0.028024
C109  C     C_R   0.203511 0.024447 0.752838 0.028031
C110  C     C_R   0.796487 0.024377 0.247239 0.028024
C111  C     C_R   0.726762 0.499325 0.774475 0.059206
C112  C     C_R   0.273236 0.499327 0.225528 0.059212
C113  C     C_R   0.226761 0.999325 0.774475 0.059208
C114  C     C_R   0.773235 0.999327 0.225530 0.059214
C115  C     C_R   0.703420 0.474161 0.842495 0.007168
C116  C     C_R   0.414383 0.999976 0.585855 0.587323
C117  C     C_R   0.296576 0.474206 0.157465 0.007164
C118  C     C_R   0.203419 0.974146 0.842479 0.007169
C119  C     C_R   0.796575 0.974220 0.157452 0.007163
C120  C     C_R   0.726867 0.549865 0.686092 -0.104303
C121  C     C_R   0.273134 0.549781 0.313995 -0.104313
C122  C     C_R   0.226866 0.049894 0.686125 -0.104300
C123  C     C_R   0.773134 0.049753 0.314027 -0.104312
C124  C     C_R   0.773073 0.550713 0.640865 -0.092346
C125  C     C_R   0.226928 0.550630 0.359225 -0.092359
C126  C     C_R   0.273073 0.050742 0.640899 -0.092337
C127  C     C_R   0.585616 0.999977 0.414149 0.587174
C128  C     C_R   0.726927 0.050602 0.359259 -0.092395
C129  C     C_R   0.796550 0.525671 0.661222 0.009768
C130  C     C_R   0.203450 0.525630 0.338826 0.009773
C131  C     C_R   0.296549 0.025685 0.661239 0.009767
C132  C     C_R   0.703449 0.025615 0.338846 0.009773
C133  C     C_R   0.998947 0.499985 0.380992 0.566661
C134  C     C_R   0.001059 0.499984 0.619001 0.566687
C135  C     C_R   0.498950 0.999985 0.380989 0.566653
C136  C     C_R   0.501069 0.999983 0.618991 0.566771
C137  C     C_R   0.773406 0.499497 0.727903 0.007364
C138  C     C_3   0.968476 0.462258 0.244801 -0.234492
C139  C     C_R   0.226592 0.499499 0.272101 0.007377
C140  C     C_R   0.273405 0.999496 0.727903 0.007355
C141  C     C_R   0.726591 0.999498 0.272104 0.007390
C142  C     C_R   0.796918 0.473564 0.747904 0.012240
C143  C     C_R   0.203078 0.473610 0.252055 0.012251
C144  C     C_R   0.296917 0.973549 0.747887 0.012223
C145  C     C_R   0.703077 0.973622 0.252042 0.012258
C146  C     C_R   0.773656 0.448348 0.814884 -0.083339
C147  C     C_R   0.226338 0.448437 0.185031 -0.083362
C148  C     C_R   0.273655 0.948319 0.814850 -0.083317
C149  C     C_3   0.031472 0.462212 0.755261 -0.234517
C150  C     C_R   0.726337 0.948463 0.185003 -0.083369
C151  C     C_R   0.727310 0.448651 0.862404 -0.027555
C152  C     C_R   0.272684 0.448740 0.137512 -0.027557
C153  C     C_R   0.227309 0.948621 0.862370 -0.027554
C154  C     C_R   0.772683 0.948767 0.137484 -0.027557
C155  C     C_R   0.842828 0.526231 0.615833 -0.167812
C156  C     C_R   0.157171 0.526191 0.384217 -0.167830
C157  C     C_R   0.342827 0.026245 0.615851 -0.167821
C158  C     C_R   0.657171 0.026176 0.384238 -0.167889
C159  C     C_R   0.866113 0.499894 0.634910 0.016699
C160  C     C_3   0.468450 0.962276 0.244829 -0.234479
C161  C     C_R   0.133886 0.499896 0.365093 0.016734
C162  C     C_R   0.366112 0.999893 0.634910 0.016687
C163  C     C_R   0.633885 0.999896 0.365096 0.016762
C164  C     C_R   0.843356 0.473410 0.700466 0.376210
C165  C     C_R   0.156640 0.473455 0.299492 0.376146
C166  C     C_R   0.343355 0.973395 0.700449 0.376309
C167  C     C_R   0.656639 0.973468 0.299479 0.376135
C168  C     C_R   0.000001 0.585557 1.000000 0.611303
C169  C     C_R   0.500000 0.085556 0.000000 0.611296
C170  C     C_R   0.000061 0.499280 0.120048 0.544585
C171  C     C_3   0.531370 0.962139 0.755372 -0.234574
C172  C     C_R   0.999939 0.499285 0.879952 0.544589
C173  C     C_R   0.500061 0.999277 0.120048 0.544584
C174  C     C_R   0.499939 0.999295 0.879952 0.544588
C175  C     C_R   0.999999 0.414334 0.000000 0.610065
C176  C     C_R   0.499999 0.914334 0.000000 0.610069
C177  C     C_3   0.983975 0.545502 0.300341 -0.291039
C178  C     C_3   0.016109 0.545480 0.699568 -0.291049
C179  C     C_3   0.484008 0.045512 0.300306 -0.291024
C180  C     C_3   0.516250 0.045435 0.699420 -0.291130
C181  C     C_R   0.500000 0.414368 0.000000 0.605451
C182  C     C_R   0.656875 0.475270 0.888467 -0.099149
C183  C     C_R   0.000000 0.914368 0.000000 0.605451
C184  C     C_R   0.585599 0.499941 0.914416 0.550009
C185  C     C_R   0.414401 0.499941 0.085584 0.550024
C186  C     C_R   0.085599 0.999942 0.914416 0.550004
C187  C     C_R   0.914400 0.999941 0.085584 0.550028
C188  C     C_R   0.500000 0.585529 0.999999 0.604821
C189  C     C_R   0.000000 0.085529 0.999999 0.604819
C190  C     C_R   0.527670 0.342987 0.931335 0.353479
C191  C     C_R   0.472334 0.342984 0.068668 0.353483
C192  C     C_R   0.027670 0.842987 0.931335 0.353477
Cu1   Cu    Cu3+1 1.000000 0.544430 0.500000 0.973660
Cu2   Cu    Cu3+1 0.500070 0.499950 0.062420 1.121306
Cu3   Cu    Cu3+1 0.999930 0.999950 0.937580 1.121317
Cu4   Cu    Cu3+1 0.000070 0.999950 0.062420 1.121306
Cu5   Cu    Cu3+1 0.500000 0.044430 0.500000 0.973670
Cu6   Cu    Cu3+1 1.000000 0.455520 0.500000 1.168496
Cu7   Cu    Cu3+1 0.500000 0.955520 0.500000 1.168438
Cu8   Cu    Cu3+1 0.955510 0.499950 0.044460 1.075554
Cu9   Cu    Cu3+1 0.044490 0.499950 0.955540 1.075533
Cu10  Cu    Cu3+1 0.455510 0.999950 0.044460 1.075581
Cu11  Cu    Cu3+1 0.544490 0.999950 0.955540 1.075519
Cu12  Cu    Cu3+1 0.499930 0.499950 0.937580 1.121311
F1    F     F_    0.061020 0.449426 0.247853 -0.567632
F2    F     F_    0.445249 0.366136 0.134242 -0.536597
F3    F     F_    0.054754 0.866143 0.865761 -0.536600
F4    F     F_    0.945249 0.866136 0.134242 -0.536596
F5    F     F_    0.415923 0.293849 0.204861 -0.535339
F6    F     F_    0.584083 0.293860 0.795142 -0.535343
F7    F     F_    0.915923 0.793849 0.204861 -0.535338
F8    F     F_    0.084083 0.793860 0.795142 -0.535341
F9    F     F_    0.943923 0.634163 0.134202 -0.632339
F10   F     F_    0.056080 0.634170 0.865799 -0.632347
F11   F     F_    0.443923 0.134163 0.134202 -0.632336
F12   F     F_    0.938893 0.449527 0.752226 -0.567641
F13   F     F_    0.556081 0.134170 0.865799 -0.632358
F14   F     F_    0.555220 0.633739 0.024105 -0.537209
F15   F     F_    0.444782 0.633740 0.975887 -0.537209
F16   F     F_    0.055220 0.133739 0.024105 -0.537209
F17   F     F_    0.944783 0.133740 0.975886 -0.537205
F18   F     F_    0.415146 0.706030 0.964397 -0.531355
F19   F     F_    0.584855 0.706028 0.035596 -0.531343
F20   F     F_    0.915146 0.206030 0.964396 -0.531346
F21   F     F_    0.084855 0.206028 0.035597 -0.531343
F22   F     F_    0.943364 0.365712 0.978806 -0.619778
F23   F     F_    0.560988 0.949381 0.247883 -0.567617
F24   F     F_    0.056634 0.365710 0.021197 -0.619774
F25   F     F_    0.443364 0.865711 0.978806 -0.619774
F26   F     F_    0.556634 0.865710 0.021196 -0.619776
F27   F     F_    0.438758 0.949721 0.752345 -0.567661
F28   F     F_    0.866511 0.448529 0.718833 -0.574104
F29   F     F_    0.133483 0.448615 0.281085 -0.574226
F30   F     F_    0.366509 0.948499 0.718799 -0.573925
F31   F     F_    0.633481 0.948641 0.281056 -0.574269
F32   F     F_    0.554755 0.366143 0.865761 -0.536599
H1    H     H_    0.007492 0.571719 0.292230 0.142102
H2    H     H_    0.939728 0.458744 0.862045 0.211055
H3    H     H_    0.560183 0.958613 0.138036 0.211060
H4    H     H_    0.439625 0.958920 0.862133 0.211040
H5    H     H_    0.638049 0.456566 0.941041 0.147189
H6    H     H_    0.361945 0.456642 0.058891 0.147221
H7    H     H_    0.138048 0.956542 0.941015 0.147179
H8    H     H_    0.861944 0.956664 0.058868 0.147230
H9    H     H_    0.639248 0.542939 0.781915 0.133523
H10   H     H_    0.360751 0.542866 0.218158 0.133553
H11   H     H_    0.139247 0.042965 0.781944 0.133514
H12   H     H_    0.992639 0.571739 0.707622 0.142138
H13   H     H_    0.860751 0.042843 0.218184 0.133561
H14   H     H_    0.709362 0.569305 0.669100 0.129669
H15   H     H_    0.290640 0.569188 0.331019 0.129665
H16   H     H_    0.209361 0.069345 0.669146 0.129671
H17   H     H_    0.790640 0.069150 0.331062 0.129660
H18   H     H_    0.790471 0.570779 0.589725 0.132271
H19   H     H_    0.209532 0.570662 0.410399 0.132254
H20   H     H_    0.290470 0.070819 0.589773 0.132280
H21   H     H_    0.709531 0.070624 0.410445 0.132207
H22   H     H_    0.860857 0.546346 0.564689 0.137918
H23   H     H_    0.507544 0.071714 0.292174 0.142090
H24   H     H_    0.139143 0.546273 0.435396 0.137830
H25   H     H_    0.360856 0.046371 0.564721 0.137952
H26   H     H_    0.639142 0.046247 0.435430 0.137683
H27   H     H_    0.791561 0.428451 0.830622 0.201814
H28   H     H_    0.208432 0.428575 0.169258 0.201801
H29   H     H_    0.291560 0.928411 0.830575 0.201833
H30   H     H_    0.708430 0.928611 0.169218 0.201795
H31   H     H_    0.950646 0.554773 0.351400 0.155981
H32   H     H_    0.049458 0.554693 0.648492 0.155884
H33   H     H_    0.450686 0.054808 0.351360 0.156014
H34   H     H_    0.492865 0.071762 0.707379 0.142195
H35   H     H_    0.549627 0.054544 0.648325 0.155749
H36   H     H_    0.921147 0.709299 0.189998 0.206117
H37   H     H_    0.078859 0.709309 0.810005 0.206114
H38   H     H_    0.421147 0.209299 0.189998 0.206118
H39   H     H_    0.578859 0.209309 0.810005 0.206110
H40   H     H_    0.920405 0.290580 0.968794 0.213585
H41   H     H_    0.079594 0.290578 0.031204 0.213590
H42   H     H_    0.420405 0.790580 0.968795 0.213575
H43   H     H_    0.579594 0.790578 0.031203 0.213592
H44   H     H_    0.948618 0.550404 0.247609 0.183631
H45   H     H_    0.980657 0.429391 0.216662 0.147102
H46   H     H_    0.051465 0.550338 0.752308 0.183592
H47   H     H_    0.448652 0.050437 0.247574 0.183641
H48   H     H_    0.551601 0.050208 0.752175 0.183557
H49   H     H_    0.004183 0.571513 0.190094 0.148872
H50   H     H_    0.995926 0.571528 0.809778 0.148906
H51   H     H_    0.504233 0.071509 0.190042 0.148850
H52   H     H_    0.496123 0.071545 0.809565 0.148989
H53   H     H_    0.069255 0.515884 0.236177 0.139860
H54   H     H_    0.930775 0.516003 0.763792 0.139764
H55   H     H_    0.569270 0.015834 0.236160 0.139888
H56   H     H_    0.019242 0.429361 0.783460 0.147138
H57   H     H_    0.430840 0.016215 0.763725 0.139703
H58   H     H_    0.070140 0.517200 0.130064 0.111255
H59   H     H_    0.929883 0.517307 0.869912 0.111221
H60   H     H_    0.570154 0.017151 0.130048 0.111274
H61   H     H_    0.429938 0.017505 0.869856 0.111160
H62   H     H_    0.978014 0.430000 0.324160 0.191773
H63   H     H_    0.021871 0.429959 0.675975 0.191801
H64   H     H_    0.477967 0.930013 0.324210 0.191755
H65   H     H_    0.521671 0.929906 0.676194 0.191869
H66   H     H_    0.934742 0.466570 0.258225 0.158638
H67   H     H_    0.480608 0.929400 0.216713 0.147079
H68   H     H_    0.065215 0.466479 0.741825 0.158599
H69   H     H_    0.434718 0.966610 0.258252 0.158654
H70   H     H_    0.565122 0.966318 0.741928 0.158540
H71   H     H_    0.519053 0.929325 0.783667 0.147214
H72   H     H_    0.060209 0.458657 0.138012 0.211057
N1    N     N_1   0.687665 0.400998 0.985791 -0.234350
N2    N     N_1   0.312325 0.401176 0.014035 -0.234351
N3    N     N_1   0.187664 0.900941 0.985726 -0.234346
N4    N     N_1   0.812324 0.901228 0.013979 -0.234351
N5    N     N_1   0.884804 0.473401 0.439673 -0.282483
N6    N     N_1   0.115163 0.473201 0.560357 -0.282406
N7    N     N_1   0.384787 0.973479 0.439695 -0.282522
N8    N     N_1   0.615083 0.972865 0.560441 -0.282215
O1    O     O_R   0.935120 0.537520 0.564840 -0.529108
O2    O     O_R   0.435120 0.499960 0.012170 -0.503929
O3    O     O_R   0.064880 0.999960 0.987830 -0.503908
O4    O     O_R   0.935120 0.999960 0.012170 -0.503933
O5    O     O_R   0.499950 0.564810 0.947310 -0.468954
O6    O     O_R   0.500050 0.564810 0.052690 -0.468945
O7    O     O_R   0.999950 0.064810 0.947310 -0.468954
O8    O     O_R   0.000050 0.064810 0.052690 -0.468944
O9    O     O_R   0.935080 0.462440 0.564870 -0.448389
O10   O     O_R   0.064920 0.462440 0.435130 -0.448431
O11   O     O_R   0.435080 0.962440 0.564870 -0.448381
O12   O     O_R   0.064880 0.537520 0.435160 -0.529105
O13   O     O_R   0.564920 0.962440 0.435130 -0.448425
O14   O     O_R   0.999990 0.537520 0.408860 -0.538458
O15   O     O_R   0.000010 0.537520 0.591140 -0.538468
O16   O     O_R   0.499990 0.037520 0.408860 -0.538456
O17   O     O_R   0.500010 0.037520 0.591140 -0.538470
O18   O     O_R   0.999950 0.462430 0.408890 -0.461189
O19   O     O_R   0.000050 0.462430 0.591110 -0.461271
O20   O     O_R   0.499950 0.962430 0.408890 -0.461159
O21   O     O_R   0.500050 0.962430 0.591110 -0.461403
O22   O     O_R   0.962420 0.564820 0.037570 -0.469431
O23   O     O_R   0.435120 0.037520 0.564840 -0.529088
O24   O     O_R   0.037580 0.564820 0.962430 -0.469435
O25   O     O_R   0.462420 0.064820 0.037570 -0.469431
O26   O     O_R   0.537580 0.064820 0.962430 -0.469442
O27   O     O_R   0.962440 0.499950 0.128690 -0.511268
O28   O     O_R   0.037560 0.499950 0.871310 -0.511277
O29   O     O_R   0.462440 0.999950 0.128690 -0.511268
O30   O     O_R   0.537560 0.999950 0.871310 -0.511279
O31   O     O_R   0.037530 0.500000 0.053640 -0.512502
O32   O     O_R   0.962470 0.500000 0.946360 -0.512502
O33   O     O_R   0.537530 0.000000 0.053640 -0.512504
O34   O     O_R   0.564880 0.037520 0.435160 -0.529117
O35   O     O_R   0.462470 0.000000 0.946360 -0.512497
O36   O     O_R   0.962440 0.435080 0.037530 -0.469952
O37   O     O_R   0.037560 0.435080 0.962470 -0.469955
O38   O     O_R   0.462440 0.935080 0.037530 -0.469941
O39   O     O_R   0.537560 0.935080 0.962470 -0.469954
O40   O     O_R   0.499930 0.435080 0.947280 -0.467466
O41   O     O_R   0.500070 0.435080 0.052720 -0.467472
O42   O     O_R   0.999930 0.935080 0.947280 -0.467465
O43   O     O_R   0.000070 0.935080 0.052720 -0.467473
O44   O     O_R   0.564810 0.499970 0.882380 -0.505192
O45   O     O_R   0.435190 0.499970 0.117620 -0.505211
O46   O     O_R   0.064810 0.999970 0.882380 -0.505187
O47   O     O_R   0.935190 0.999970 0.117620 -0.505217
O48   O     O_R   0.564880 0.499960 0.987830 -0.503914

loop_
_geom_bond_atom_site_label_1
_geom_bond_atom_site_label_2
_ccdc_geom_bond_type
C157  H25   S    
C166  F30   S    
C169  O25   A    
C142  C146  A    
C39   F14   S    
Cu1   O15   S    
C26   H44   S    
C100  N5    T    
C167  F31   S    
C39   C47   A    
Cu1   O1    S    
C34   F11   S    
C121  H15   S    
Cu8   O36   S    
C67   H55   S    
C176  O38   A    
C62   C70   A    
C118  C153  A    
C89   C94   S    
C125  H19   S    
C131  C140  A    
C28   H51   S    
Cu3   O42   S    
C49   C51   A    
C1    O1    A    
C67   C94   S    
C42   F17   S    
Cu5   O17   S    
C82   H65   S    
C141  C145  A    
C96   N1    T    
C47   C53   A    
C18   H37   S    
C173  O33   A    
C134  O15   A    
C127  O13   A    
C4    C191  A    
C42   C44   A    
Cu3   O7    S    
C41   C49   A    
C2    C117  A    
C37   C168  S    
C67   C85   S    
Cu10  Cu11  S    
C1    C159  S    
Cu5   O16   S    
C3    C8    A    
C155  H22   S    
Cu11  O30   S    
C17   C21   A    
C191  F2    S    
C23   C31   A    
C148  H29   S    
C19   C23   A    
C110  C123  A    
C146  H27   S    
C46   C90   A    
C63   C71   A    
C29   H52   S    
C104  N8    T    
C148  C153  A    
C136  O21   A    
C107  C120  A    
C29   C91   S    
C41   F16   S    
C111  C137  A    
C38   C169  S    
C177  H1    S    
C82   C171  S    
C76   C175  S    
C120  H14   S    
C69   C95   S    
C36   F13   S    
Cu9   O28   S    
C63   C74   A    
C53   F19   S    
C189  O7    A    
Cu11  O26   S    
C59   C63   A    
C91   C171  S    
C164  F28   S    
C27   H50   S    
C6    C12   A    
C87   C170  S    
C102  N6    T    
C45   C50   A    
C138  H45   S    
C97   C152  S    
C24   H8    S    
C160  H67   S    
C180  H35   S    
Cu12  O5    S    
C25   C36   A    
C122  H16   S    
Cu3   Cu4   S    
C94   H3    S    
Cu8   O27   S    
C129  C137  A    
Cu11  O33   S    
C59   H42   S    
C115  C151  A    
C82   C104  S    
C130  C156  A    
C157  C162  A    
C161  C165  A    
C25   C31   A    
C137  C142  A    
Cu12  O40   S    
C88   C149  S    
C27   C178  S    
C13   C118  A    
C12   F5    S    
C177  H31   S    
C178  H32   S    
C65   F1    S    
C99   C154  S    
C103  N7    T    
Cu5   Cu7   S    
C139  C143  A    
C26   C87   S    
Cu7   O21   S    
C60   H43   S    
C6    C191  A    
C56   H40   S    
C7    C190  A    
C28   C89   S    
C4    C181  S    
C110  C114  A    
C145  C150  A    
Cu4   O43   S    
C97   N2    T    
Cu10  O38   S    
C81   C160  S    
C183  O42   A    
C99   N4    T    
C74   F25   S    
C10   C31   A    
C53   C60   A    
C47   C50   A    
C40   C43   A    
C80   C149  S    
Cu8   O32   S    
C155  C159  A    
C114  C141  A    
C4    C190  A    
C165  F29   S    
C68   C187  S    
C26   H49   S    
Cu4   O8    S    
C179  H23   S    
C184  O48   A    
C45   C52   A    
C49   C55   A    
C80   C102  S    
C121  C125  A    
C173  O29   A    
C58   H41   S    
C67   F23   S    
C23   C34   A    
Cu2   Cu12  S    
C188  O6    A    
C42   C48   A    
C32   C37   A    
C75   C77   A    
Cu2   O41   S    
C158  C163  A    
C66   C93   S    
C156  C161  A    
C77   C176  S    
C181  O40   A    
C192  F3    S    
C105  C161  S    
C87   C138  S    
C182  H5    S    
C168  O22   A    
C115  C182  A    
Cu5   O34   S    
C81   C103  S    
C26   C177  S    
C132  C141  A    
C2    H6    S    
C150  H30   S    
C22   C30   A    
C18   C22   A    
C107  C111  A    
C187  O47   A    
Cu1   O14   S    
C126  H20   S    
C57   C101  A    
C128  H21   S    
C55   F21   S    
Cu11  O39   S    
C90   C108  A    
C29   H48   S    
C35   C79   A    
C105  O10   A    
C64   C75   A    
C66   F12   S    
C136  O17   A    
Cu12  O2    S    
Cu2   O45   S    
C91   C95   S    
C146  C151  A    
C78   H62   S    
C98   N3    T    
C159  C164  A    
C81   C85   S    
C61   C70   A    
C58   C62   A    
C7    C10   A    
C171  H70   S    
C181  O41   A    
C135  O16   A    
C174  O30   A    
C65   C92   S    
Cu1   O12   S    
C95   H61   S    
C175  O37   A    
C89   C173  S    
C108  C121  A    
C80   C84   S    
C27   H46   S    
C84   C134  S    
C79   H9    S    
Cu6   O9    S    
C69   F27   S    
Cu10  O25   S    
C142  C164  A    
C112  C117  A    
C160  H69   S    
C19   H38   S    
C20   C25   A    
C101  C109  A    
Cu1   Cu6   S    
C92   H58   S    
C93   H59   S    
C64   C71   A    
C94   H60   S    
C131  C157  A    
C143  C165  A    
C170  O27   A    
C80   H63   S    
C133  O18   A    
C162  C166  A    
C78   C83   S    
C11   C30   A    
Cu12  O44   S    
Cu6   O18   S    
C168  O24   A    
C72   C76   A    
C149  H56   S    
C72   F22   S    
C87   C92   S    
C169  O26   A    
C130  C139  A    
C179  H33   S    
C40   C45   A    
C83   C177  S    
C14   C20   A    
C124  H18   S    
C81   H64   S    
C129  C155  A    
Cu3   O4    S    
C92   H72   S    
Cu4   O3    S    
C35   C184  S    
C82   C86   S    
C105  O12   A    
C33   C37   A    
C174  O35   A    
C108  C112  A    
C91   C174  S    
C144  C166  A    
C138  H66   S    
C75   F26   S    
C143  C147  A    
C175  O36   A    
Cu4   O47   S    
C183  O43   A    
C44   C189  S    
C54   F20   S    
C79   C107  A    
C50   C71   A    
C57   C186  S    
C61   C72   A    
Cu7   O20   S    
C119  C154  A    
C40   F15   S    
C78   C100  S    
C73   C76   A    
C69   H57   S    
C190  F32   S    
C101  H11   S    
C184  O44   A    
C145  C167  A    
C65   H53   S    
C15   C17   A    
C24   C119  A    
C127  C163  S    
C140  C144  A    
C3    C5    A    
C6    C10   A    
C73   F24   S    
C33   F10   S    
Cu7   O11   S    
Cu5   O23   S    
C21   C30   A    
C36   C38   A    
C20   H39   S    
C43   C188  S    
C90   H10   S    
C12   C19   A    
C124  C129  A    
C116  O23   A    
C95   H4    S    
C46   C185  S    
C28   C179  S    
C132  C158  A    
C123  H17   S    
C24   C68   A    
C13   C57   A    
C55   C58   A    
C176  O39   A    
C56   C61   A    
C127  O34   A    
C147  H28   S    
C5    C183  S    
Cu2   O48   S    
C28   H47   S    
Cu3   O46   S    
C88   C172  S    
C144  C148  A    
C2    C46   A    
C35   C182  A    
C48   C54   A    
C189  O8    A    
C171  H71   S    
C134  O19   A    
C3    F4    S    
C106  H13   S    
C116  C162  S    
C9    C16   A    
C109  C122  A    
C65   C83   S    
C116  O11   A    
C15   F7    S    
Cu2   O6    S    
C172  O28   A    
C125  C130  A    
C7    C14   A    
Cu8   O22   S    
C135  O20   A    
C29   C180  S    
C185  O45   A    
C51   C70   A    
C9    C192  A    
C109  C113  A    
C98   C153  S    
C185  O2    A    
Cu9   O37   S    
C112  C139  A    
C187  O4    A    
C68   C106  A    
C17   H36   S    
C78   C138  S    
Cu10  O29   S    
C60   C64   A    
C48   C51   A    
C21   C32   A    
C54   C56   A    
C14   F6    S    
C16   F8    S    
C170  O31   A    
C133  O14   A    
Cu8   Cu9   S    
C39   C43   A    
C158  H26   S    
C96   C151  S    
C74   C77   A    
C122  C126  A    
C163  C167  A    
C52   C59   A    
Cu9   O24   S    
C172  O32   A    
C93   H2    S    
C85   C179  S    
C149  H68   S    
C86   C180  S    
C113  C140  A    
C62   C73   A    
C84   C178  S    
C9    C11   A    
C85   C135  S    
C178  H12   S    
C32   F9    S    
C86   C136  S    
Cu9   O31   S    
C89   C160  S    
C106  C110  A    
Cu7   O13   S    
C22   C33   A    
C88   C93   S    
C128  C132  A    
C34   C38   A    
C114  C119  A    
C5    C192  A    
C186  O46   A    
C8    C15   A    
C52   F18   S    
C147  C152  A    
Cu6   O10   S    
C123  C128  A    
C13   H7    S    
C126  C131  A    
C8    C11   A    
C41   C44   A    
C188  O5    A    
C117  C152  A    
C27   C88   S    
C180  H34   S    
C83   C133  S    
C66   C84   S    
C113  C118  A    
C66   H54   S    
C16   C18   A    
C150  C154  A    
C186  O3    A    
C111  C115  A    
Cu6   O19   S    
Cu10  O35   S    
C1    O9    A    
C69   C86   S    
C120  C124  A    
C156  H24   S    
