data_mof_unit_24462.cif
_audit_creation_date              2012-12-11T14:08:21-0500
_audit_creation_method            fapswitch 2.2
_symmetry_space_group_name_H-M    P1
_symmetry_Int_Tables_number       1
_space_group_crystal_system       triclinic
_cell_length_a                    10.899151
_cell_length_b                    10.940952
_cell_length_c                    18.664148
_cell_angle_alpha                 90.158922
_cell_angle_beta                  89.646175
_cell_angle_gamma                 60.510709
_cell_volume                      1937.22772069

loop_
_atom_site_label
_atom_site_type_symbol
_atom_type_description
_atom_site_fract_x
_atom_site_fract_y
_atom_site_fract_z
_atom_type_partial_charge
C1    C     C_R   0.236100 0.645510 0.608776 0.568456
C2    C     C_3   0.674916 0.548860 0.801523 -0.254377
C3    C     C_3   0.699108 0.674708 0.812785 0.014192
C4    C     C_3   0.667851 0.647845 0.677215 0.069382
C5    C     C_3   0.809828 0.643913 0.689068 -0.306404
C6    C     C_3   0.664827 0.527934 0.721112 -0.192240
C7    C     C_2   0.675406 0.155502 0.670541 -0.126582
C8    C     C_2   0.690053 0.166872 0.827688 -0.122532
C9    C     C_2   0.801875 0.120955 0.783311 -0.175380
C10   C     C_2   0.783087 0.153202 0.706351 -0.177474
C11   C     C_2   0.180729 0.662367 0.681515 -0.086772
C12   C     C_R   0.652922 0.621598 0.601806 0.548759
C13   C     C_2   0.195468 0.662701 0.839353 -0.121462
C14   C     C_2   0.192992 0.561096 0.800137 -0.181002
C15   C     C_2   0.221360 0.548674 0.722985 -0.173294
C16   C     C_2   0.650488 0.646666 0.317182 -0.103577
C17   C     C_2   0.633137 0.664877 0.159583 -0.082659
C18   C     C_2   0.707564 0.545470 0.195282 -0.162881
C19   C     C_2   0.692477 0.536550 0.272171 -0.159435
C20   C     C_2   0.600346 0.264790 0.312837 -0.109448
C21   C     C_2   0.630457 0.213208 0.160576 -0.103777
C22   C     C_2   0.508557 0.254852 0.195506 -0.151996
C23   C     C_R   0.628185 0.227368 0.601936 0.556233
C24   C     C_2   0.489530 0.304579 0.269643 -0.166578
C25   C     C_2   0.191012 0.659617 0.325808 -0.142162
C26   C     C_2   0.185299 0.643041 0.172346 -0.064423
C27   C     C_2   0.247366 0.705347 0.205676 0.343854
C28   C     C_2   0.275111 0.682878 0.281346 -0.115581
C29   C     C_R   0.703521 0.102390 0.897545 0.542659
C30   C     C_R   0.723733 0.688379 0.888485 0.543714
C31   C     C_R   0.119556 0.706309 0.907488 0.542230
C32   C     C_R   0.672235 0.115114 0.101190 0.555921
C33   C     C_R   0.691933 0.688437 0.094573 0.558558
C34   C     C_R   0.225045 0.647893 0.400274 0.540469
C35   C     C_R   0.100514 0.705057 0.110161 0.582154
C36   C     C_R   0.641702 0.621183 0.392659 0.536450
C37   C     C_R   0.578973 0.297085 0.388164 0.562815
C38   C     C_3   0.569408 0.810086 0.784106 -0.173010
C39   C     C_3   0.546251 0.791531 0.704799 0.240074
C40   C     C_3   0.831851 0.651581 0.769608 -0.245722
Cr1   Cr    Cr6+3 0.393010 0.398050 0.501480 1.022432
Cr2   Cr    Cr6+3 0.398820 0.707980 0.501630 1.067039
Cr3   Cr    Cr6+3 0.708140 0.393940 0.496850 1.021949
Cr4   Cr    Cr6+3 0.937950 0.938450 0.008940 1.060890
Cr5   Cr    Cr6+3 0.626180 0.937030 0.994750 1.037631
Cr6   Cr    Cr6+3 0.937790 0.625760 0.001410 1.019477
H1    H     H_    0.587044 0.901656 0.789841 0.098275
H2    H     H_    0.755437 0.424891 0.705102 0.129058
H3    H     H_    0.925371 0.551685 0.786104 0.150294
H4    H     H_    0.899126 0.545697 0.666667 0.152384
H5    H     H_    0.908231 0.055038 0.802840 0.159155
H6    H     H_    0.856060 0.179292 0.679833 0.155345
H7    H     H_    0.584214 0.233743 0.807649 0.109597
H8    H     H_    0.608326 0.121025 0.696650 0.103346
H9    H     H_    0.162681 0.489269 0.823882 0.151920
H10   H     H_    0.276433 0.443421 0.700242 0.156910
H11   H     H_    0.233127 0.729265 0.816037 0.143720
H12   H     H_    0.473281 0.833743 0.815861 0.170927
H13   H     H_    0.123573 0.767610 0.704189 0.124740
H14   H     H_    0.793338 0.453906 0.169368 0.157506
H15   H     H_    0.729412 0.431645 0.292895 0.150893
H16   H     H_    0.542005 0.753714 0.183947 0.164193
H17   H     H_    0.612626 0.753023 0.298512 0.105621
H18   H     H_    0.427136 0.236525 0.173214 0.163053
H19   H     H_    0.382964 0.360114 0.291345 0.145862
H20   H     H_    0.708354 0.239279 0.180245 0.102448
H21   H     H_    0.708352 0.203896 0.293854 0.112270
H22   H     H_    0.359374 0.698692 0.301958 0.166015
H23   H     H_    0.181098 0.554793 0.196499 0.036806
H24   H     H_    0.105112 0.644169 0.307731 0.085132
H25   H     H_    0.544254 0.878687 0.673242 0.117368
H26   H     H_    0.855011 0.738319 0.780526 0.128451
H27   H     H_    0.809990 0.733843 0.661395 0.104743
H28   H     H_    0.762992 0.451526 0.824469 0.137894
H29   H     H_    0.575880 0.568419 0.829037 0.128391
H30   H     H_    0.566740 0.523459 0.710171 0.165138
O1    O     O_R   0.507110 0.256280 0.580300 -0.513521
O2    O     O_R   0.524640 0.695370 0.425100 -0.504895
O3    O     O_R   0.735890 0.504390 0.415980 -0.514876
O4    O     O_R   0.690560 0.277820 0.422350 -0.498199
O5    O     O_3   0.499990 0.499990 0.499980 -0.284841
O6    O     O_R   0.089190 0.825870 0.932320 -0.514095
O7    O     O_R   0.819070 0.053960 0.931440 -0.499357
O8    O     O_R   0.607070 0.076440 0.916460 -0.520288
O9    O     O_R   0.647110 0.806550 0.917690 -0.511237
O10   O     O_R   0.837080 0.593860 0.915300 -0.524079
O11   O     O_R   0.064770 0.636080 0.932550 -0.502827
O12   O     O_R   0.280830 0.527190 0.577940 -0.510667
O13   O     O_R   0.068250 0.829200 0.092940 -0.431306
O14   O     O_R   0.799650 0.057040 0.080330 -0.496590
O15   O     O_R   0.586130 0.079760 0.077080 -0.508936
O16   O     O_R   0.627700 0.809630 0.066580 -0.481508
O17   O     O_R   0.816140 0.597180 0.075920 -0.512829
O18   O     O_R   0.045360 0.639170 0.081440 -0.517538
O19   O     O_3   0.833980 0.833750 0.001700 -0.260219
O20   O     O_R   0.261360 0.738990 0.584270 -0.452489
O21   O     O_R   0.532590 0.694780 0.574370 -0.443398
O22   O     O_R   0.744470 0.503750 0.577000 -0.538277
O23   O     O_R   0.698520 0.277230 0.571620 -0.492846
O24   O     O_R   0.498530 0.256920 0.419280 -0.494274
O25   O     O_R   0.272880 0.527780 0.428680 -0.517407
O26   O     O_R   0.252780 0.739630 0.423250 -0.504843
F1    F     F_    0.270352 0.803295 0.172816 -0.622640
F2    F     F_    0.416303 0.798330 0.697765 -0.640044

loop_
_geom_bond_atom_site_label_1
_geom_bond_atom_site_label_2
_ccdc_geom_bond_type
C7    C10   D    
C23   O23   A    
C21   H20   S    
C20   H21   S    
C1    C11   S    
Cr3   O22   S    
Cr4   O7    S    
C10   H6    S    
C39   F2    S    
C25   C28   D    
C26   C27   D    
C34   O26   A    
C31   O6    A    
C6    H2    S    
Cr2   O20   S    
C8    C29   S    
C28   H22   S    
Cr3   O23   S    
C29   O7    A    
Cr4   O6    S    
C16   C19   D    
Cr1   O1    S    
C38   C39   S    
C32   O15   A    
C13   H11   S    
Cr3   O3    S    
C40   H3    S    
C18   C19   S    
Cr5   O16   S    
C38   H12   S    
C11   C15   D    
C32   O14   A    
Cr6   O19   S    
C20   C24   D    
C3    C38   S    
C8    C9    D    
C9    H5    S    
C16   H17   S    
C30   O10   A    
C9    C10   S    
C12   O22   A    
C2    H28   S    
C25   C34   S    
C1    O12   A    
C14   H9    S    
C21   C22   D    
C2    C6    S    
Cr2   O5    S    
C17   C33   S    
C11   H13   S    
Cr2   O26   S    
C37   O4    A    
C21   C32   S    
C34   O25   A    
C31   O11   A    
C29   O8    A    
C4    C6    S    
Cr2   O21   S    
Cr3   O4    S    
C3    C30   S    
Cr5   O9    S    
C17   H16   S    
Cr6   O18   S    
C4    C39   S    
Cr1   O5    S    
C17   C18   D    
C12   O21   A    
Cr1   O24   S    
C23   O1    A    
C30   O9    A    
C38   H1    S    
C24   H19   S    
C35   O13   A    
C18   H14   S    
C3    C40   S    
Cr2   O2    S    
Cr3   O5    S    
C22   C24   S    
C5    H4    S    
C33   O16   A    
Cr5   O8    S    
C4    C12   S    
Cr5   O19   S    
Cr4   O14   S    
Cr6   O11   S    
C35   O18   A    
Cr1   O12   S    
C40   H26   S    
C13   C31   S    
C4    C5    S    
C36   O3    A    
C33   O17   A    
C8    H7    S    
C6    H30   S    
C15   H10   S    
C2    C3    S    
Cr4   O19   S    
C36   O2    A    
C16   C36   S    
C20   C37   S    
Cr6   O17   S    
C19   H15   S    
C1    O20   A    
C7    C23   S    
C27   F1    S    
Cr1   O25   S    
C5    H27   S    
Cr5   O15   S    
C2    H29   S    
C22   H18   S    
C26   C35   S    
C5    C40   S    
C27   C28   S    
C26   H23   S    
C39   H25   S    
C14   C15   S    
C25   H24   S    
C7    H8    S    
C13   C14   D    
C37   O24   A    
Cr4   O13   S    
Cr6   O10   S    
