data_mof_unit_35217.cif
_audit_creation_date              2013-03-05T15:49:05-0500
_audit_creation_method            fapswitch 2.2
_symmetry_space_group_name_H-M    P1
_symmetry_Int_Tables_number       1
_space_group_crystal_system       triclinic
_cell_length_a                    10.645437
_cell_length_b                    12.994542
_cell_length_c                    11.717246
_cell_angle_alpha                 100.033239
_cell_angle_beta                  93.877796
_cell_angle_gamma                 90.789743
_cell_volume                      1591.89514166

loop_
_atom_site_label
_atom_site_type_symbol
_atom_site_description
_atom_site_fract_x
_atom_site_fract_y
_atom_site_fract_z
_atom_type_partial_charge
O1    O     O_R   0.506670 0.354460 0.582000 -0.592602
O2    O     O_R   0.493330 0.645540 0.418000 -0.592603
O3    O     O_R   0.490800 0.341410 0.386200 -0.561750
O4    O     O_R   0.509200 0.658590 0.613800 -0.561750
C1    C     C_R   0.498954 0.299125 0.478526 0.838481
C2    C     C_R   0.501046 0.700874 0.521474 0.838480
O5    O     O_R   0.324790 0.506500 0.597880 -0.611402
O6    O     O_R   0.675210 0.493500 0.402120 -0.611403
O7    O     O_R   0.308910 0.493440 0.402080 -0.526586
O8    O     O_R   0.691090 0.506560 0.597920 -0.526587
C3    C     C_R   0.259487 0.499527 0.500306 0.874334
C4    C     C_R   0.740512 0.500473 0.499694 0.874335
Cu1   Cu    Cu3+1 0.509400 0.507730 0.615930 1.028608
Cu2   Cu    Cu3+1 0.490600 0.492270 0.384070 1.028608
C5    C     C_3   0.035848 0.407190 0.440655 -0.223419
C6    C     C_3   0.964152 0.592810 0.559345 -0.223420
C7    C     C_3   0.950831 0.486410 0.388347 -0.187775
C8    C     C_3   0.049169 0.513590 0.611653 -0.187776
H1    H     H_    0.909225 0.477160 0.297532 0.204646
H2    H     H_    0.090775 0.522840 0.702468 0.204647
H3    H     H_    0.067065 0.330785 0.394748 0.213167
H4    H     H_    0.932935 0.669215 0.605252 0.213167
C9    C     C_3   0.876873 0.500924 0.498697 -0.165328
C10   C     C_3   0.123127 0.499076 0.501303 -0.165328
C11   C     C_3   0.960686 0.423690 0.549506 0.373194
C12   C     C_3   0.039314 0.576310 0.450494 0.373192
C13   C     C_R   0.499324 0.814332 0.533729 -0.032925
C14   C     C_R   0.500676 0.185668 0.466270 -0.032926
C15   C     C_R   0.519915 0.015325 0.347464 -0.169600
C16   C     C_R   0.480086 0.984675 0.652536 -0.169600
C17   C     C_R   0.516429 0.123418 0.357903 -0.108563
C18   C     C_R   0.483571 0.876582 0.642097 -0.108565
C19   C     C_R   0.488510 0.139197 0.564313 -0.205930
C20   C     C_R   0.511490 0.860803 0.435687 -0.205930
C21   C     C_R   0.492094 0.031207 0.554646 0.159925
C22   C     C_R   0.507907 0.968793 0.445354 0.159925
H5    H     H_    0.523975 0.813133 0.351741 0.158379
H6    H     H_    0.476026 0.186866 0.648259 0.158379
H7    H     H_    0.472614 0.841795 0.718468 0.189768
H8    H     H_    0.527387 0.158205 0.281532 0.189769
H9    H     H_    0.532385 0.968287 0.263250 0.154619
H10   H     H_    0.467617 0.031713 0.736750 0.154619
N1    N     N_R   0.523540 0.519360 0.790140 -0.246302
N2    N     N_R   0.476460 0.480640 0.209860 -0.246302
C23   C     C_R   0.371151 0.411472 0.021242 -0.311339
C24   C     C_R   0.628849 0.588527 0.978758 -0.311339
C25   C     C_R   0.383896 0.418107 0.142838 0.559031
C26   C     C_R   0.616105 0.581893 0.857162 0.559030
C27   C     C_R   0.557316 0.537006 0.156734 -0.007277
C28   C     C_R   0.442684 0.462994 0.843266 -0.007278
C29   C     C_R   0.547142 0.531757 0.034258 0.003912
C30   C     C_R   0.452858 0.468244 0.965742 0.003912
H11   H     H_    0.370488 0.413427 0.790399 0.146392
H12   H     H_    0.629511 0.586573 0.209601 0.146392
H13   H     H_    0.297253 0.361833 0.970740 0.182388
H14   H     H_    0.702748 0.638166 0.029260 0.182389
N3    N     N_R   0.913257 0.339212 0.603047 0.138666
O9    O     O_R   0.945236 0.335817 0.711410 -0.318319
O10   O     O_R   0.837835 0.267217 0.542727 -0.361503
N4    N     N_R   0.086742 0.660788 0.396952 0.138665
O11   O     O_R   0.054765 0.664180 0.288587 -0.318320
O12   O     O_R   0.162163 0.732784 0.457271 -0.361501
N5    N     N_R   0.703357 0.640757 0.805345 0.130950
O13   O     O_R   0.677450 0.736405 0.795440 -0.377072
O14   O     O_R   0.820347 0.613147 0.805274 -0.348763
N6    N     N_R   0.296646 0.359239 0.194655 0.130949
O15   O     O_R   0.322555 0.263591 0.204555 -0.377073
O16   O     O_R   0.179655 0.386849 0.194730 -0.348763

loop_
_geom_bond_atom_site_label_1
_geom_bond_atom_site_label_2
_geom_bond_distance
_ccdc_geom_bond_type
N2    C27   1.370700 A    
N6    O16   1.300826 A    
O7    Cu2   1.959763 S    
N5    O14   1.300822 A    
N1    C28   1.370701 A    
O3    Cu2   1.964887 S    
C1    C14   1.456689 S    
N1    C26   1.378010 A    
C25   N6    1.426533 S    
C28   C30   1.421443 A    
C21   C22   1.413191 A    
C15   C22   1.398897 A    
N2    C25   1.378011 A    
Cu1   N1    2.015582 S    
C19   H6    1.084674 S    
O6    C4    1.285794 A    
C23   C25   1.409444 A    
N6    O15   1.299888 A    
C29   C30   1.403709 A    
C15   C17   1.389782 A    
C7    C9    1.544052 S    
Cu1   Cu2   2.682607 S    
C16   C18   1.389781 A    
O7    C3    1.288044 A    
C4    C9    1.452391 S    
N3    O9    1.300572 A    
O2    C2    1.294175 A    
C8    C11   1.537106 S    
C11   N3    1.456398 S    
C16   C21   1.398899 A    
N4    O11   1.300575 A    
O1    C1    1.294175 A    
C7    C12   1.537105 S    
O8    C4    1.288043 A    
N4    O12   1.300601 A    
C5    C10   1.542215 S    
C19   C21   1.389307 A    
C10   C12   1.522750 S    
C14   C19   1.400289 A    
O5    C3    1.285795 A    
C6    C9    1.542214 S    
C20   C22   1.389308 A    
C9    C11   1.522749 S    
C13   C20   1.400289 A    
C6    C12   1.536351 S    
O2    Cu2   1.961277 S    
C8    C10   1.544053 S    
C5    H3    1.110274 S    
N3    O10   1.300599 A    
C28   H11   1.082682 S    
C5    C11   1.536350 S    
C7    H1    1.110476 S    
C27   H12   1.082682 S    
C20   H5    1.084674 S    
C24   C26   1.409444 A    
O3    C1    1.294411 A    
C3    C10   1.452391 S    
O5    Cu1   1.961873 S    
O1    Cu1   1.961277 S    
C17   H8    1.082741 S    
C23   H13   1.084044 S    
C8    H2    1.110475 S    
C6    C8    1.557233 S    
O4    C2    1.294411 A    
C18   H7    1.082741 S    
C24   H14   1.084044 S    
O4    Cu1   1.964886 S    
C5    C7    1.557233 S    
C16   H10   1.083845 S    
C26   N5    1.426532 S    
O6    Cu2   1.961875 S    
C23   C30   1.396310 A    
C15   H9    1.083845 S    
C13   C18   1.403355 A    
C12   N4    1.456400 S    
C24   C29   1.396308 A    
O8    Cu1   1.959764 S    
C14   C17   1.403355 A    
C2    C13   1.456689 S    
C6    H4    1.110274 S    
N5    O13   1.299883 A    
C27   C29   1.421443 A    
Cu2   N2    2.015583 S    
