data_mof_unit_59779.cif
_audit_creation_date              2013-03-05T15:41:56-0500
_audit_creation_method            fapswitch 2.2
_symmetry_space_group_name_H-M    P1
_symmetry_Int_Tables_number       1
_space_group_crystal_system       triclinic
_cell_length_a                    24.876977
_cell_length_b                    16.683301
_cell_length_c                    15.649586
_cell_angle_alpha                 90.161696
_cell_angle_beta                  49.715665
_cell_angle_gamma                 89.829531
_cell_volume                      4954.59885949

loop_
_atom_site_label
_atom_site_type_symbol
_atom_site_description
_atom_site_fract_x
_atom_site_fract_y
_atom_site_fract_z
_atom_type_partial_charge
C1    C     C_R   0.351392 0.147606 0.755646 -0.067831
C2    C     C_R   0.666168 0.884182 0.200037 -0.157576
C3    C     C_R   0.641219 0.152569 0.259620 -0.122081
C4    C     C_R   0.334062 0.884398 0.799324 -0.154884
C5    C     C_R   0.851420 0.647613 0.755763 -0.079195
C6    C     C_R   0.166135 0.384072 0.200116 -0.156750
C7    C     C_R   0.148920 0.646629 0.243303 -0.059905
C8    C     C_R   0.833690 0.387492 0.800677 -0.110719
H1    H     H_    0.304443 0.163061 0.768421 0.130215
H2    H     H_    0.719071 0.885194 0.171243 0.141505
H3    H     H_    0.685535 0.171475 0.252241 0.123495
H4    H     H_    0.281239 0.885347 0.827791 0.142566
H5    H     H_    0.804515 0.663203 0.768469 0.131641
H6    H     H_    0.219073 0.385161 0.171180 0.142358
H7    H     H_    0.195964 0.661654 0.230220 0.127625
H8    H     H_    0.781463 0.387571 0.826941 0.152344
N1    N     N_R   0.389620 0.081040 0.705440 -0.072203
N2    N     N_R   0.610380 0.918960 0.294560 -0.073132
N3    N     N_R   0.610380 0.081040 0.294560 -0.052882
N4    N     N_R   0.389620 0.918960 0.705440 -0.073801
N5    N     N_R   0.889620 0.581040 0.705440 -0.075727
N6    N     N_R   0.110380 0.418960 0.294560 -0.073683
N7    N     N_R   0.110380 0.581040 0.294560 -0.071705
N8    N     N_R   0.889620 0.418960 0.705440 -0.085226
C9    C     C_R   0.617056 0.104780 0.590019 -0.034600
C10   C     C_R   0.413840 0.849122 0.408452 -0.079880
C11   C     C_R   0.382151 0.103971 0.410992 -0.046519
C12   C     C_R   0.585214 0.848199 0.590413 -0.079442
C13   C     C_R   0.116707 0.606251 0.589888 -0.002364
C14   C     C_R   0.914312 0.348560 0.408757 -0.084386
C15   C     C_R   0.883018 0.605405 0.410218 -0.039211
C16   C     C_R   0.084812 0.347812 0.590241 -0.062293
H9    H     H_    0.598900 0.100778 0.673764 0.200190
H10   H     H_    0.442090 0.830566 0.322968 0.158626
H11   H     H_    0.399431 0.098428 0.327902 0.198054
H12   H     H_    0.556572 0.829168 0.675515 0.160024
H13   H     H_    0.098673 0.602909 0.673612 0.192058
H14   H     H_    0.942849 0.329425 0.323448 0.160371
H15   H     H_    0.901137 0.601260 0.326458 0.197881
H16   H     H_    0.055530 0.328362 0.675376 0.161193
N9    N     N_R   0.582320 0.079840 0.556630 -0.069803
N10   N     N_R   0.417680 0.920160 0.443370 -0.041219
N11   N     N_R   0.417680 0.079840 0.443370 -0.075682
N12   N     N_R   0.582320 0.920160 0.556630 -0.038799
N13   N     N_R   0.082320 0.579840 0.556630 -0.066886
N14   N     N_R   0.917680 0.420160 0.443370 -0.040757
N15   N     N_R   0.917680 0.579840 0.443370 -0.064067
N16   N     N_R   0.082320 0.420160 0.556630 -0.041570
C17   C     C_R   0.690440 0.105550 0.404737 -0.167165
C18   C     C_R   0.336567 0.852618 0.594559 -0.113577
C19   C     C_R   0.309367 0.106218 0.596107 -0.125739
C20   C     C_R   0.662914 0.851651 0.404733 -0.103466
C21   C     C_R   0.190083 0.606768 0.404270 -0.129234
C22   C     C_R   0.837115 0.352146 0.594608 -0.098212
C23   C     C_R   0.809668 0.606926 0.595709 -0.117549
C24   C     C_R   0.162768 0.351498 0.404710 -0.115451
H17   H     H_    0.738258 0.103991 0.318002 0.132699
H18   H     H_    0.292832 0.839286 0.680969 0.112350
H19   H     H_    0.261687 0.105181 0.682916 0.122788
H20   H     H_    0.706865 0.837883 0.318255 0.114092
H21   H     H_    0.237860 0.605380 0.317526 0.121495
H22   H     H_    0.793602 0.338542 0.681052 0.126329
H23   H     H_    0.761806 0.605781 0.682364 0.122850
H24   H     H_    0.206722 0.337783 0.318225 0.115453
N17   N     N_R   0.627920 0.078930 0.443400 -0.057050
N18   N     N_R   0.372080 0.921070 0.556600 -0.048548
N19   N     N_R   0.372080 0.078930 0.556600 -0.055088
N20   N     N_R   0.627920 0.921070 0.443400 -0.048096
N21   N     N_R   0.127920 0.578930 0.443400 -0.052556
N22   N     N_R   0.872080 0.421070 0.556600 -0.053683
N23   N     N_R   0.872080 0.578930 0.556600 -0.051786
N24   N     N_R   0.127920 0.421070 0.443400 -0.051566
C25   C     C_R   0.554606 0.148625 0.253517 0.379265
C26   C     C_R   0.421067 0.889871 0.803753 0.299304
C27   C     C_R   0.437529 0.144069 0.762745 0.312134
C28   C     C_R   0.578994 0.889800 0.195992 0.310516
C29   C     C_R   0.062749 0.643234 0.236257 0.323999
C30   C     C_R   0.920637 0.393248 0.805344 0.268360
C31   C     C_R   0.937360 0.643718 0.763407 0.305527
C32   C     C_R   0.078899 0.389418 0.196211 0.303127
N25   N     N_R   0.555090 0.077730 0.294590 -0.089933
N26   N     N_R   0.444910 0.922270 0.705410 -0.102781
N27   N     N_R   0.444910 0.077730 0.705410 -0.095772
N28   N     N_R   0.555090 0.922270 0.294590 -0.103872
N29   N     N_R   0.055090 0.577730 0.294590 -0.095456
N30   N     N_R   0.944910 0.422270 0.705410 -0.102960
N31   N     N_R   0.944910 0.577730 0.705410 -0.096656
N32   N     N_R   0.055090 0.422270 0.294590 -0.102558
C33   C     C_R   0.381379 0.190429 0.790540 0.067001
C34   C     C_R   0.648373 0.864686 0.135766 0.040209
C35   C     C_R   0.606093 0.197088 0.235453 -0.039562
C36   C     C_R   0.351894 0.864811 0.863427 0.045759
C37   C     C_R   0.881300 0.690192 0.791067 0.068394
C38   C     C_R   0.148223 0.364195 0.136123 0.044545
C39   C     C_R   0.119169 0.688949 0.207607 0.071846
C40   C     C_R   0.850905 0.371485 0.866602 0.069644
C41   C     C_R   0.684292 0.121942 0.496113 0.043383
C42   C     C_R   0.362425 0.806322 0.502323 0.030426
C43   C     C_R   0.315042 0.121833 0.505239 0.036226
C44   C     C_R   0.636228 0.804613 0.496251 0.020105
C45   C     C_R   0.183686 0.623886 0.495566 0.039356
C46   C     C_R   0.863427 0.305291 0.502569 0.031863
C47   C     C_R   0.815892 0.623423 0.504425 0.026758
C48   C     C_R   0.135974 0.304173 0.496097 0.036792
Ni1   Ni    Ni4+2 0.382970 0.000000 0.629840 0.228732
Ni2   Ni    Ni4+2 0.617030 0.000000 0.370160 0.234384
Ni3   Ni    Ni4+2 0.882970 0.500000 0.629840 0.232091
Ni4   Ni    Ni4+2 0.117030 0.500000 0.370160 0.236268
Ni5   Ni    Ni4+2 0.514540 0.000000 0.629840 0.310066
Ni6   Ni    Ni4+2 0.485460 0.000000 0.370160 0.313239
Ni7   Ni    Ni4+2 0.014540 0.500000 0.629840 0.313661
Ni8   Ni    Ni4+2 0.985460 0.500000 0.370160 0.316165
C49   C     C_3   0.280157 0.238094 0.445860 0.660863
C50   C     C_3   0.657982 0.666832 0.562862 0.666873
C51   C     C_3   0.718241 0.237352 0.558944 0.669406
C52   C     C_3   0.339665 0.665274 0.443270 0.657113
C53   C     C_3   0.781620 0.737564 0.440781 0.661525
C54   C     C_3   0.158360 0.164259 0.558507 0.661991
C55   C     C_3   0.218564 0.741952 0.551739 0.654900
C56   C     C_3   0.842222 0.165740 0.437483 0.667168
C57   C     C_3   0.713233 0.775739 0.542675 -0.330325
C58   C     C_3   0.229608 0.127477 0.455664 -0.359467
C59   C     C_3   0.289223 0.774525 0.448616 -0.365864
C60   C     C_3   0.772830 0.127219 0.540437 -0.339392
C61   C     C_3   0.210180 0.273422 0.547973 -0.339230
C62   C     C_3   0.727546 0.627133 0.460399 -0.348047
C63   C     C_3   0.786442 0.274407 0.456460 -0.345315
C64   C     C_3   0.267959 0.631252 0.546720 -0.356097
H25   H     H_    0.707231 0.836800 0.576453 0.182916
H26   H     H_    0.238433 0.066799 0.419193 0.174866
H27   H     H_    0.298402 0.833456 0.408373 0.179118
H28   H     H_    0.766835 0.066076 0.573305 0.181739
H29   H     H_    0.202408 0.333479 0.585412 0.183832
H30   H     H_    0.733815 0.565380 0.428370 0.167479
H31   H     H_    0.792237 0.334825 0.421842 0.174054
H32   H     H_    0.258758 0.571564 0.585130 0.179170
C65   C     C_3   0.677459 0.744419 0.497520 -0.066111
C66   C     C_3   0.262082 0.158362 0.506117 -0.048931
C67   C     C_3   0.321111 0.746484 0.501393 -0.055087
C68   C     C_3   0.737116 0.158516 0.495415 -0.049977
C69   C     C_3   0.177288 0.243794 0.497381 -0.056475
C70   C     C_3   0.762980 0.659767 0.505228 -0.047059
C71   C     C_3   0.822509 0.244477 0.501687 -0.067219
C72   C     C_3   0.236378 0.660610 0.494324 -0.035805
C73   C     C_3   0.248553 0.209114 0.393719 -0.223300
C74   C     C_3   0.693468 0.697079 0.608792 -0.230609
C75   C     C_3   0.753095 0.207953 0.605716 -0.216795
C76   C     C_3   0.308004 0.692134 0.389794 -0.219027
C77   C     C_3   0.747086 0.706796 0.394044 -0.232748
C78   C     C_3   0.190944 0.192792 0.609915 -0.231079
C79   C     C_3   0.249264 0.714503 0.605870 -0.226991
C80   C     C_3   0.806523 0.194635 0.391312 -0.243202
H33   H     H_    0.272313 0.216839 0.305066 0.174648
H34   H     H_    0.671472 0.692029 0.696870 0.178275
H35   H     H_    0.731077 0.214428 0.693732 0.193352
H36   H     H_    0.331960 0.681598 0.301390 0.174494
H37   H     H_    0.769106 0.711867 0.305958 0.171929
H38   H     H_    0.167406 0.184878 0.698436 0.177006
H39   H     H_    0.225040 0.724594 0.694475 0.172734
H40   H     H_    0.828615 0.188116 0.303267 0.171924
C81   C     C_2   0.630585 0.274021 0.180340 -0.160877
C82   C     C_2   0.301554 0.837106 0.979762 -0.222929
C83   C     C_2   0.350168 0.262933 0.860446 -0.253612
C84   C     C_2   0.698894 0.837915 0.018589 -0.222113
C85   C     C_2   0.150637 0.760470 0.136871 -0.251170
C86   C     C_2   0.801031 0.342782 0.981647 -0.109229
C87   C     C_2   0.850002 0.762544 0.861226 -0.268697
C88   C     C_2   0.198647 0.337020 0.019184 -0.223461
C89   C     C_2   0.690270 0.276809 0.073931 0.246069
C90   C     C_2   0.235698 0.867603 0.054905 0.270056
C91   C     C_2   0.317800 0.319611 0.846045 0.257645
C92   C     C_2   0.763965 0.869443 0.943736 0.265674
C93   C     C_2   0.182300 0.817662 0.151761 0.256428
C94   C     C_2   0.732029 0.350504 0.035757 0.126682
C95   C     C_2   0.818254 0.819660 0.846202 0.257252
C96   C     C_2   0.263400 0.369123 0.943835 0.272294
H41   H     H_    0.315484 0.782501 0.999408 0.154390
H42   H     H_    0.611808 0.326793 0.233837 0.139509
H43   H     H_    0.686058 0.782981 0.997801 0.153881
H44   H     H_    0.343896 0.263646 0.935954 0.167760
H45   H     H_    0.819501 0.291372 0.999078 0.158910
H46   H     H_    0.157161 0.760287 0.061143 0.166651
H47   H     H_    0.186074 0.281559 0.998961 0.153605
H48   H     H_    0.843197 0.762886 0.937208 0.168070
N33   N     N_R   0.520617 0.163268 0.208429 0.230817
O1    O     O_R   0.505251 0.236319 0.201773 -0.345241
O2    O     O_R   0.520669 0.107354 0.150394 -0.275825
N34   N     N_R   0.453936 0.902073 0.851579 0.246035
O3    O     O_R   0.428680 0.868640 0.945895 -0.325324
O4    O     O_R   0.509624 0.946623 0.800952 -0.360522
N35   N     N_R   0.473443 0.157995 0.804605 0.217113
O5    O     O_R   0.487652 0.230981 0.813449 -0.363794
O6    O     O_R   0.476410 0.101272 0.858134 -0.299912
N36   N     N_R   0.546073 0.902727 0.148398 0.247735
O7    O     O_R   0.570595 0.868119 0.054702 -0.322271
O8    O     O_R   0.491260 0.949445 0.198401 -0.363841
N37   N     N_R   0.026533 0.657064 0.194879 0.215850
O9    O     O_R   0.012272 0.730094 0.186011 -0.365976
O10   O     O_R   0.023589 0.600046 0.141375 -0.304517
N38   N     N_R   0.954482 0.405976 0.851544 0.245970
O11   O     O_R   0.927310 0.377648 0.949370 -0.343721
O12   O     O_R   0.012647 0.446472 0.796433 -0.366051
N39   N     N_R   0.972177 0.656411 0.807423 0.218550
O13   O     O_R   0.984800 0.729015 0.820467 -0.366094
O14   O     O_R   0.975588 0.598302 0.858806 -0.309567
N40   N     N_R   0.045789 0.401559 0.148760 0.245377
O15   O     O_R   0.070891 0.367388 0.054526 -0.326931
O16   O     O_R   0.989919 0.446607 0.199804 -0.368342
O17   O     O_3   0.346417 0.276243 0.381221 -0.607196
C97   C     C_3   0.358788 0.309827 0.450326 0.312608
H49   H     H_    0.411854 0.290253 0.417560 0.156233
H50   H     H_    0.321136 0.290572 0.539598 0.113641
C98   C     C_3   0.358089 0.400861 0.445293 -0.800992
H51   H     H_    0.305657 0.422667 0.477612 0.232608
H52   H     H_    0.369549 0.426800 0.497364 0.235853
H53   H     H_    0.398790 0.421173 0.357497 0.278902
O18   O     O_3   0.590877 0.630993 0.634435 -0.613486
C99   C     C_3   0.568381 0.611981 0.574124 0.164881
H54   H     H_    0.606612 0.571306 0.502282 0.102290
H55   H     H_    0.561172 0.667173 0.542768 0.101553
C100  C     C_3   0.497632 0.569835 0.652057 -0.702932
H56   H     H_    0.458140 0.609692 0.723837 0.261622
H57   H     H_    0.478730 0.554519 0.606436 0.190266
H58   H     H_    0.502858 0.513815 0.684362 0.270782
O19   O     O_3   0.650735 0.273720 0.629080 -0.596492
C101  C     C_3   0.635715 0.311096 0.565435 0.300251
H59   H     H_    0.581842 0.293465 0.600835 0.159623
H60   H     H_    0.671445 0.293170 0.475278 0.052258
C102  C     C_3   0.636916 0.401802 0.575020 -0.848153
H61   H     H_    0.689793 0.421751 0.541880 0.238570
H62   H     H_    0.624274 0.430762 0.526101 0.204058
H63   H     H_    0.597239 0.420772 0.664064 0.291546
O20   O     O_3   0.405827 0.626385 0.378730 -0.616002
C103  C     C_3   0.423563 0.609151 0.445997 0.206372
H64   H     H_    0.383712 0.569410 0.516803 0.115174
H65   H     H_    0.428188 0.665079 0.479632 0.096322
C104  C     C_3   0.494651 0.566470 0.374586 -0.765889
H66   H     H_    0.535755 0.605644 0.304447 0.261763
H67   H     H_    0.509503 0.551944 0.426071 0.188338
H68   H     H_    0.492105 0.509947 0.339700 0.269765
O21   O     O_3   0.848802 0.773781 0.371099 -0.610757
C105  C     C_3   0.863771 0.810587 0.435285 0.310082
H69   H     H_    0.917473 0.791764 0.400186 0.171581
H70   H     H_    0.827749 0.793351 0.525409 0.110522
C106  C     C_3   0.863019 0.901348 0.426238 -0.803053
H71   H     H_    0.810288 0.922419 0.459211 0.231980
H72   H     H_    0.875565 0.929783 0.475655 0.232567
H73   H     H_    0.902948 0.919744 0.337354 0.278692
O22   O     O_3   0.091232 0.128465 0.625184 -0.615516
C107  C     C_3   0.078390 0.096643 0.556358 0.170812
H74   H     H_    0.114235 0.044980 0.506581 0.120151
H75   H     H_    0.085177 0.142880 0.498869 0.100840
C108  C     C_3   0.002859 0.066765 0.630176 -0.697448
H76   H     H_    0.965567 0.117583 0.678119 0.262778
H77   H     H_    0.992448 0.038823 0.577749 0.196554
H78   H     H_    0.994035 0.021337 0.689805 0.275685
O23   O     O_3   0.151680 0.779528 0.614272 -0.607909
C109  C     C_3   0.147367 0.824689 0.542623 0.214532
H79   H     H_    0.168285 0.790883 0.464951 0.145210
H80   H     H_    0.177157 0.881472 0.519652 0.109525
C110  C     C_3   0.070763 0.845745 0.603027 -0.614739
H81   H     H_    0.046888 0.876759 0.683487 0.257672
H82   H     H_    0.067620 0.886048 0.550024 0.215572
H83   H     H_    0.040711 0.790416 0.619618 0.254631
O24   O     O_3   0.909482 0.129231 0.366751 -0.617382
C111  C     C_3   0.931365 0.111181 0.428175 0.164143
H84   H     H_    0.893085 0.071206 0.499968 0.123040
H85   H     H_    0.937920 0.166851 0.459778 0.107119
C112  C     C_3   0.002356 0.068413 0.351457 -0.690724
H86   H     H_    0.041888 0.107338 0.279426 0.259509
H87   H     H_    0.020791 0.054309 0.398065 0.192828
H88   H     H_    0.997679 0.011672 0.319495 0.270783
N41   N     N_R   0.215514 0.944512 0.041339 0.247562
O25   O     O_R   0.149227 0.961016 0.096856 -0.384988
O26   O     O_R   0.261287 0.002017 0.988308 -0.378841
N42   N     N_R   0.715664 0.208307 0.998920 0.258515
O27   O     O_R   0.671288 0.159448 0.008859 -0.273830
O28   O     O_R   0.781767 0.201701 0.909878 -0.393959
N43   N     N_R   0.782820 0.946500 0.959160 0.253980
O29   O     O_R   0.848880 0.964123 0.902482 -0.372899
O30   O     O_R   0.735730 0.003056 0.015752 -0.314424
N44   N     N_R   0.330012 0.328344 0.743033 0.237867
O31   O     O_R   0.284195 0.366353 0.743184 -0.395065
O32   O     O_R   0.390771 0.309307 0.647397 -0.437614
N45   N     N_R   0.702172 0.425743 0.038242 0.241009
O33   O     O_R   0.640888 0.427766 0.063956 -0.364849
O34   O     O_R   0.734484 0.492878 0.020380 -0.385898
N46   N     N_R   0.169235 0.827706 0.255384 0.237220
O35   O     O_R   0.214216 0.866412 0.256255 -0.403862
O36   O     O_R   0.108312 0.809379 0.350516 -0.412275
N47   N     N_R   0.281685 0.446833 0.958612 0.247981
O37   O     O_R   0.347606 0.465160 0.901950 -0.386499
O38   O     O_R   0.234218 0.503141 0.014370 -0.380916
N48   N     N_R   0.831243 0.828850 0.742596 0.240495
O39   O     O_R   0.785966 0.867336 0.741873 -0.382243
O40   O     O_R   0.892198 0.809668 0.647373 -0.409656

loop_
_geom_bond_atom_site_label_1
_geom_bond_atom_site_label_2
_geom_bond_distance
_ccdc_geom_bond_type
N36   O8    1.299828 A    
N14   Ni8   1.858435 S    
C70   C74   1.538894 S    
N47   O37   1.301212 A    
C21   N21   1.327940 A    
C31   N31   1.357832 A    
N39   O14   1.298382 A    
C11   C43   1.364433 A    
N44   O31   1.301324 A    
N22   Ni3   1.875168 S    
C62   C77   1.561999 S    
C107  H75   1.114097 S    
N44   O32   1.301757 A    
C14   H14   1.076510 S    
C50   C65   1.525251 S    
C26   C36   1.391556 A    
N37   O10   1.298673 A    
C82   H41   1.087198 S    
C30   C40   1.383949 A    
C24   N24   1.332895 A    
C52   O20   1.410773 S    
C105  H70   1.115507 S    
C89   C94   1.468632 S    
C16   C48   1.372646 A    
C43   C66   1.441923 S    
C3    N3    1.333525 A    
N11   Ni6   1.846571 S    
C4    H4    1.080898 S    
C75   H35   1.110013 S    
C68   C80   1.540339 S    
C41   C68   1.444138 S    
C5    H5    1.080106 S    
C92   C95   1.471052 S    
C69   C73   1.542377 S    
C107  C108  1.521646 S    
C7    H7    1.080088 S    
C8    H8    1.080016 S    
C106  H71   1.109727 S    
C19   C43   1.361145 A    
C30   N38   1.436703 S    
C25   N25   1.351462 A    
C22   C46   1.373154 A    
C98   H52   1.109841 S    
C60   C75   1.561591 S    
C86   C94   1.341132 D    
C105  C106  1.522392 S    
N13   N21   1.351802 A    
N35   O5    1.300628 A    
C9    N9    1.333301 A    
N40   O15   1.300763 A    
N19   Ni1   1.878576 S    
C11   H11   1.077228 S    
C12   N12   1.333520 A    
C34   C84   1.467461 S    
C103  C104  1.521714 S    
C102  H61   1.109698 S    
C74   H34   1.109962 S    
C14   C46   1.373696 A    
N8    Ni3   1.875062 S    
C63   C71   1.541375 S    
C64   C72   1.537048 S    
C50   C74   1.540055 S    
C84   H43   1.087262 S    
C112  H87   1.109336 S    
C108  H77   1.109458 S    
N13   Ni7   1.858435 S    
C55   C59   1.527025 S    
C53   C70   1.524136 S    
C32   N32   1.354850 A    
N43   O30   1.301535 A    
N14   N22   1.351801 A    
C3    H3    1.079748 S    
C44   C65   1.442674 S    
C17   C41   1.363014 A    
C4    N4    1.336017 A    
N3    Ni2   1.875062 S    
C28   N36   1.435511 S    
C5    N5    1.333348 A    
N25   Ni6   1.858409 S    
C62   H30   1.109950 S    
N38   O12   1.299725 A    
C106  H73   1.110495 S    
C48   C69   1.446391 S    
C53   C77   1.532836 S    
C23   N23   1.329881 A    
C79   H39   1.109846 S    
C32   N40   1.435887 S    
N4    N26   1.376415 A    
N29   Ni8   1.858409 S    
O22   C107  1.409546 S    
N47   O38   1.301775 A    
C51   O19   1.414080 S    
C102  H63   1.110509 S    
C110  H81   1.110564 S    
C50   C62   1.550291 S    
N33   O2    1.299508 A    
C59   C67   1.541945 S    
C17   H17   1.081551 S    
C60   H28   1.109954 S    
N34   O4    1.299764 A    
O21   C105  1.416428 S    
C54   C58   1.551583 S    
C57   C65   1.542188 S    
C20   H20   1.078432 S    
C21   H21   1.081289 S    
N24   Ni4   1.878574 S    
C61   C69   1.542316 S    
C23   H23   1.081356 S    
C24   H24   1.078328 S    
O20   C103  1.409661 S    
C81   C89   1.335386 D    
C29   N29   1.358616 A    
N9    Ni5   1.858435 S    
C104  H66   1.110922 S    
C89   N42   1.453392 S    
N16   N24   1.351991 A    
N41   O25   1.301214 A    
C18   C42   1.372565 A    
N26   Ni5   1.858409 S    
C38   C88   1.466796 S    
N45   O34   1.302033 A    
C6    C38   1.373870 A    
O18   C99   1.409625 S    
C20   C44   1.373930 A    
N46   O36   1.301687 A    
C27   N35   1.427814 S    
N2    Ni2   1.870952 S    
C100  H56   1.110838 S    
C6    H6    1.081077 S    
C99   H55   1.111834 S    
C87   H48   1.087309 S    
C88   H47   1.087279 S    
O17   C97   1.416408 S    
C19   N19   1.330518 A    
C111  H85   1.111934 S    
C9    C41   1.365974 A    
C97   H50   1.115544 S    
C84   C92   1.351172 D    
N18   Ni1   1.875168 S    
C13   H13   1.077755 S    
C10   N10   1.332977 A    
C99   C100  1.521806 S    
C87   C95   1.350555 D    
C88   C96   1.350742 D    
C14   N14   1.335268 A    
C111  C112  1.521568 S    
C108  H78   1.110617 S    
C25   N33   1.429625 S    
C97   C98   1.521646 S    
C91   C96   1.470979 S    
C101  H60   1.115553 S    
C42   C67   1.441689 S    
N30   Ni7   1.858409 S    
N10   Ni6   1.858435 S    
C49   O17   1.413869 S    
N2    N28   1.376090 A    
C77   H37   1.109940 S    
C7    N7    1.332932 A    
C67   C79   1.544053 S    
N41   O26   1.301811 A    
N37   O9    1.300629 A    
C92   N43   1.441950 S    
C27   C33   1.394464 A    
C59   C76   1.545287 S    
N11   N19   1.351989 A    
C101  H59   1.110260 S    
C104  H68   1.110627 S    
C95   N48   1.442552 S    
C57   C74   1.545360 S    
N3    N25   1.376418 A    
C90   N41   1.441912 S    
N8    N30   1.376415 A    
C9    H9    1.077625 S    
N23   Ni3   1.878576 S    
C54   C69   1.525089 S    
C28   N28   1.354524 A    
N5    N31   1.376086 A    
C98   H51   1.110189 S    
C103  H65   1.112245 S    
C85   H46   1.087239 S    
C63   H31   1.110515 S    
C100  H58   1.110368 S    
C64   H32   1.110011 S    
N48   O39   1.301268 A    
C45   C72   1.437329 S    
N40   O16   1.299736 A    
N31   Ni7   1.846521 S    
C6    N6    1.336581 A    
C51   C75   1.532425 S    
C3    C35   1.372356 A    
C49   C73   1.532104 S    
C54   C78   1.540894 S    
C21   C45   1.360728 A    
N43   O29   1.301230 A    
N6    N32   1.376090 A    
C91   N44   1.442432 S    
C83   C91   1.350789 D    
C52   C67   1.523954 S    
N12   Ni5   1.846571 S    
N36   O7    1.300752 A    
C15   N15   1.331247 A    
C112  H86   1.110822 S    
C55   C72   1.523133 S    
C16   N16   1.335165 A    
C56   C71   1.525491 S    
C26   N26   1.355983 A    
C39   C85   1.467777 S    
C26   N34   1.435904 S    
C18   H18   1.078154 S    
C1    H1    1.080066 S    
C24   C48   1.374703 A    
C52   C76   1.540753 S    
C22   H22   1.078359 S    
C107  H74   1.112760 S    
C62   C70   1.538191 S    
N35   O6    1.298745 A    
N45   O33   1.301412 A    
C110  H83   1.110334 S    
C82   C90   1.351301 D    
C105  H69   1.110257 S    
C13   C45   1.366215 A    
C96   N47   1.441896 S    
C58   C66   1.538368 S    
C55   O23   1.415562 S    
C106  H72   1.109718 S    
C103  H64   1.112537 S    
C32   C38   1.389884 A    
N4    Ni1   1.875062 S    
C98   H53   1.110631 S    
C36   C82   1.468452 S    
C78   H38   1.109921 S    
C59   H27   1.110968 S    
C1    N1    1.333249 A    
C60   C68   1.538583 S    
C57   H25   1.110607 S    
C54   O22   1.410737 S    
C31   C37   1.394445 A    
C102  H62   1.109479 S    
C27   N27   1.357876 A    
N33   O1    1.300666 A    
C108  H76   1.110854 S    
C93   N46   1.442233 S    
N6    Ni4   1.870952 S    
N7    Ni4   1.875062 S    
C109  H79   1.114818 S    
C61   C78   1.545792 S    
N32   Ni8   1.846521 S    
C11   N11   1.333488 A    
C51   C68   1.524480 S    
C12   H12   1.076487 S    
C2    C34   1.374119 A    
C112  H88   1.110452 S    
C13   N13   1.331740 A    
C49   C66   1.524179 S    
C35   C81   1.447007 S    
C76   H36   1.109909 S    
C81   H42   1.087157 S    
C29   N37   1.427698 S    
C33   C83   1.466747 S    
C28   C34   1.390167 A    
C4    C36   1.373454 A    
C90   C93   1.471826 S    
N39   O13   1.300471 A    
C80   H40   1.109927 S    
C2    N2    1.336586 A    
C8    C40   1.375248 A    
C72   C76   1.539044 S    
C66   C78   1.540016 S    
C71   C75   1.542734 S    
C17   N17   1.330799 A    
O23   C109  1.412906 S    
C49   C61   1.524034 S    
C85   C93   1.351173 D    
N15   Ni8   1.846571 S    
C23   C47   1.362710 A    
C51   C63   1.525115 S    
C58   C73   1.561186 S    
C53   C57   1.523931 S    
C8    N8    1.326643 A    
C10   H10   1.077029 S    
N38   O11   1.300694 A    
C22   N22   1.331683 A    
N27   Ni5   1.846521 S    
O24   C111  1.410103 S    
C20   N20   1.331962 A    
C73   H33   1.109883 S    
C30   N30   1.352678 A    
C65   C77   1.541782 S    
C86   H45   1.087289 S    
N20   Ni2   1.878574 S    
N21   Ni4   1.875166 S    
C55   C79   1.532117 S    
C56   C80   1.540271 S    
C25   C35   1.383251 A    
C110  H82   1.110385 S    
N9    N17   1.351802 A    
C94   N45   1.444158 S    
C29   C39   1.395419 A    
N28   Ni6   1.846521 S    
N34   O3    1.300747 A    
N1    N27   1.376086 A    
C15   C47   1.365029 A    
C109  H80   1.112413 S    
N1    Ni1   1.870953 S    
C63   C80   1.545945 S    
C64   C79   1.560252 S    
N15   N23   1.351989 A    
O19   C101  1.415584 S    
N42   O27   1.300524 A    
C18   N18   1.329929 A    
N5    Ni3   1.870953 S    
C10   C42   1.373120 A    
N42   O28   1.301109 A    
C31   N39   1.428771 S    
C104  H67   1.109050 S    
N7    N29   1.376418 A    
C40   C86   1.459416 S    
N12   N20   1.351991 A    
C109  C110  1.520921 S    
C19   H19   1.081328 S    
C46   C71   1.445669 S    
C50   O18   1.410889 S    
C2    H2    1.081052 S    
C47   C70   1.440218 S    
N17   Ni2   1.875166 S    
C61   H29   1.110668 S    
C1    C33   1.375811 A    
C56   O24   1.411019 S    
C5    C37   1.376365 A    
C101  C102  1.522571 S    
C7    C39   1.375528 A    
N46   O35   1.301268 A    
C100  H57   1.109046 S    
N48   O40   1.301825 A    
C12   C44   1.371463 A    
C99   H54   1.112725 S    
C15   H15   1.077687 S    
C16   H16   1.076950 S    
C111  H84   1.112819 S    
N16   Ni7   1.846571 S    
C37   C87   1.466346 S    
C97   H49   1.110592 S    
C52   C64   1.549806 S    
C83   H44   1.087334 S    
N10   N18   1.351801 A    
C58   H26   1.110004 S    
C56   C60   1.550695 S    
C53   O21   1.414337 S    
