data_mof_unit_8491.cif
_audit_creation_date              2013-03-05T15:45:34-0500
_audit_creation_method            fapswitch 2.2
_symmetry_space_group_name_H-M    P1
_symmetry_Int_Tables_number       1
_space_group_crystal_system       triclinic
_cell_length_a                    27.722068
_cell_length_b                    10.738634
_cell_length_c                    10.001653
_cell_angle_alpha                 90.034333
_cell_angle_beta                  90.348545
_cell_angle_gamma                 89.78674
_cell_volume                      2977.38730191

loop_
_atom_site_label
_atom_site_type_symbol
_atom_site_description
_atom_site_fract_x
_atom_site_fract_y
_atom_site_fract_z
_atom_type_partial_charge
O1    O     O_R   0.499990 0.319060 0.613040 -0.615499
O2    O     O_R   0.500010 0.319100 0.386900 -0.615286
C1    C     C_R   0.501159 0.262605 0.499837 0.941739
O3    O     O_R   0.428750 0.500000 0.613050 -0.621448
O4    O     O_R   0.428760 0.500040 0.386920 -0.620255
C2    C     C_R   0.405995 0.500378 0.499512 0.906893
Zn1   Zn    Zn3+2 0.499990 0.499970 0.650990 0.951652
Zn2   Zn    Zn3+2 0.500010 0.500030 0.349010 0.949190
O5    O     O_R   0.499990 0.680900 0.613100 -0.613475
O6    O     O_R   0.500010 0.680940 0.386960 -0.613792
O7    O     O_R   0.571240 0.499960 0.613080 -0.621777
O8    O     O_R   0.571250 0.500000 0.386950 -0.618247
C3    C     C_R   0.498963 0.737405 0.499916 0.937335
C4    C     C_R   0.593993 0.499442 0.500437 0.900154
C5    C     C_R   0.178105 0.395867 0.462513 0.495097
O9    O     O_2   0.203764 0.290685 0.441154 -0.568430
N1    N     N_R   0.201360 0.505070 0.488639 -0.340044
C6    C     C_R   0.176844 0.613746 0.509587 0.602991
C7    C     C_R   0.278288 0.500052 0.372936 -0.180483
C8    C     C_R   0.328314 0.497875 0.375271 -0.205375
C9    C     C_R   0.327459 0.507637 0.617965 -0.310802
C10   C     C_R   0.277067 0.507405 0.615979 0.586655
C11   C     C_R   0.252717 0.505505 0.492650 0.215941
C12   C     C_R   0.101516 0.502991 0.483596 -0.055482
C13   C     C_R   0.127739 0.392870 0.458383 0.000892
C14   C     C_R   0.103319 0.282532 0.429790 -0.145268
C15   C     C_R   0.126325 0.614729 0.507768 -0.091410
C16   C     C_R   0.353261 0.501713 0.497762 -0.109525
H1    H     H_    0.346145 0.512470 0.713246 0.178117
H2    H     H_    0.122725 0.196554 0.411095 0.188449
C17   C     C_R   0.646698 0.496637 0.501646 -0.103298
C18   C     C_R   0.975056 0.390170 0.442364 0.049480
C19   C     C_R   0.974289 0.601325 0.538801 0.059945
C20   C     C_R   0.949463 0.494132 0.493144 0.066601
C21   C     C_R   0.948621 0.289610 0.388023 -0.227995
C22   C     C_R   0.898558 0.288867 0.390406 -0.130075
C23   C     C_R   0.873197 0.387967 0.447448 -0.042190
C24   C     C_R   0.898552 0.490494 0.499825 -0.057217
C25   C     C_R   0.872984 0.589266 0.559450 -0.016109
C26   C     C_R   0.822616 0.585761 0.561328 0.490181
N2    N     N_R   0.798728 0.486658 0.506939 -0.344153
C27   C     C_R   0.822785 0.387813 0.452392 0.578801
C28   C     C_R   0.721884 0.479441 0.624282 -0.166938
C29   C     C_R   0.671844 0.484188 0.623168 -0.214300
C30   C     C_R   0.672252 0.504849 0.381294 -0.314266
C31   C     C_R   0.722550 0.502824 0.382386 0.530108
C32   C     C_R   0.747275 0.488161 0.504363 0.210441
O10   O     O_2   0.797905 0.289926 0.403317 -0.534980
C33   C     C_R   0.026032 0.389786 0.449096 0.074336
C34   C     C_R   0.050611 0.501273 0.483855 0.012729
C35   C     C_R   0.024689 0.610882 0.518406 -0.053526
C36   C     C_R   0.053380 0.281102 0.423741 -0.229067
H3    H     H_    0.652914 0.477261 0.717267 0.174764
H4    H     H_    0.741064 0.469223 0.718328 0.165679
H5    H     H_    0.879815 0.209901 0.347442 0.191452
H6    H     H_    0.965619 0.211381 0.339587 0.147740
H7    H     H_    0.037189 0.192149 0.402844 0.150086
O11   O     O_2   0.201375 0.720145 0.532136 -0.539840
C37   C     C_R   0.100543 0.725540 0.524458 -0.266445
H8    H     H_    0.347372 0.493387 0.281176 0.175962
H9    H     H_    0.259236 0.497317 0.278119 0.163481
H10   H     H_    0.120125 0.812281 0.529944 0.185174
C38   C     C_R   0.948075 0.692663 0.609508 -0.143715
C39   C     C_R   0.898186 0.688029 0.617476 -0.165819
O12   O     O_2   0.797588 0.681327 0.615136 -0.571722
C40   C     C_R   0.049811 0.726163 0.529071 0.460718
H11   H     H_    0.965702 0.765844 0.664674 0.186442
H12   H     H_    0.653456 0.513499 0.286452 0.176800
H13   H     H_    0.879513 0.761806 0.670234 0.191452
C41   C     C_2   0.502121 0.932916 0.387240 -0.153640
C42   C     C_2   0.494588 0.869000 0.499565 -0.323149
H14   H     H_    0.509924 0.886878 0.292969 0.173154
H15   H     H_    0.483874 0.912028 0.592897 0.153100
C43   C     C_2   0.499304 0.066852 0.386916 -0.150032
C44   C     C_2   0.505968 0.131094 0.499719 -0.324581
H16   H     H_    0.492035 0.112560 0.291954 0.174507
H17   H     H_    0.516255 0.088336 0.593864 0.151954
C45   C     C_2   0.531430 0.560429 0.925440 -0.124111
N3    N     N_2   0.500520 0.501330 0.852150 -0.192565
H18   H     H_    0.560183 0.610571 0.876155 0.160730
H19   H     H_    0.471568 0.460107 0.897394 0.163281
C46   C     C_2   0.529439 0.566843 0.075596 -0.125368
N4    N     N_2   0.500540 0.501360 0.147810 -0.193347
H20   H     H_    0.554508 0.628769 0.125870 0.155903
H21   H     H_    0.478804 0.437058 0.101669 0.161540
O13   O     O_3   0.747684 0.508179 0.263703 -0.592801
C47   C     C_3   0.752864 0.634219 0.226935 0.060090
H22   H     H_    0.770949 0.688658 0.307816 0.163084
H23   H     H_    0.717081 0.676847 0.203750 0.142582
C48   C     C_3   0.783948 0.641774 0.102445 -0.749861
H24   H     H_    0.766687 0.589658 0.019038 0.258823
H25   H     H_    0.788241 0.740575 0.072199 0.213810
H26   H     H_    0.820152 0.601201 0.123208 0.255632
O14   O     O_3   0.023912 0.837561 0.519786 -0.614827
C49   C     C_3   0.043535 0.933429 0.600452 0.061617
H27   H     H_    0.072129 0.983041 0.544343 0.160969
H28   H     H_    0.058492 0.897347 0.696765 0.144167
C50   C     C_3   0.004086 0.027495 0.633155 -0.811333
H29   H     H_    0.977066 0.985194 0.700608 0.241715
H30   H     H_    0.020089 0.109800 0.683734 0.220747
H31   H     H_    0.985612 0.058469 0.540140 0.263595
O15   O     O_3   0.251324 0.516469 0.733504 -0.596244
C51   C     C_3   0.251030 0.398730 0.795734 -0.307103
H32   H     H_    0.287892 0.370675 0.828826 0.159540
H33   H     H_    0.235217 0.326323 0.728923 0.186581
H34   H     H_    0.228116 0.404419 0.886097 0.202619

loop_
_geom_bond_atom_site_label_1
_geom_bond_atom_site_label_2
_geom_bond_distance
_ccdc_geom_bond_type
C47   H22   1.115431 S    
Zn2   N4    2.012536 S    
N2    C27   1.366589 A    
C7    C8    1.387000 A    
C12   C15   1.405356 A    
C4    C17   1.461278 S    
C49   C50   1.522841 S    
C30   C31   1.394432 A    
Zn1   O7    2.013524 S    
C25   C39   1.396283 A    
N1    C11   1.424082 S    
C43   H16   1.086790 S    
C22   C23   1.396753 A    
C37   C40   1.407427 A    
O4    C2    1.294234 A    
O7    C4    1.294504 A    
C45   H18   1.084713 S    
C5    C13   1.397102 A    
C5    O9    1.350184 S    
Zn1   O5    1.979777 S    
C23   C27   1.398691 A    
C33   C34   1.421674 A    
O5    C3    1.284832 A    
C46   H20   1.084803 S    
C29   H3    1.083076 S    
C6    O11   1.349985 S    
C2    C16   1.461908 S    
C49   H27   1.111775 S    
C41   C43   1.440126 S    
C41   C42   1.334786 D    
C8    H8    1.083022 S    
C1    C44   1.418039 S    
C19   C38   1.410815 A    
C40   O14   1.395728 S    
C20   C24   1.414017 A    
C9    C10   1.397011 A    
O15   C51   1.409653 S    
O3    Zn1   2.008775 S    
C19   C20   1.417292 A    
C12   C34   1.411391 A    
C38   H11   1.076972 S    
C17   C29   1.403652 A    
C18   C21   1.413832 A    
C12   C13   1.409237 A    
O3    C2    1.295656 A    
C43   C44   1.334311 D    
C25   C26   1.397176 A    
C42   H15   1.083953 S    
O13   C47   1.410860 S    
C8    C16   1.403824 A    
C34   C35   1.420385 A    
C13   C14   1.395434 A    
C9    H1    1.083206 S    
O1    C1    1.284517 A    
C21   C22   1.388230 A    
C18   C20   1.416167 A    
C7    C11   1.396234 A    
C28   C29   1.387939 A    
C23   C24   1.407592 A    
C14   C36   1.385500 A    
C45   C46   1.504685 S    
C28   H4    1.083110 S    
C48   H25   1.110473 S    
Zn2   O8    2.008778 S    
C33   C36   1.413028 A    
C30   H12   1.083364 S    
N1    C6    1.365028 A    
N2    C32   1.426483 S    
C51   H33   1.114284 S    
C27   O10   1.349906 S    
C39   H13   1.083439 S    
C44   H17   1.084006 S    
C26   N2    1.366461 A    
N4    H21   1.025770 S    
C9    C16   1.403950 A    
O8    C4    1.295055 A    
C46   N4    1.292216 D    
C50   H30   1.110635 S    
C26   O12   1.350112 S    
C47   H23   1.114149 S    
C48   H26   1.111128 S    
Zn1   N3    2.011941 S    
C5    N1    1.364665 A    
C31   C32   1.404355 A    
C37   H10   1.081057 S    
C21   H6    1.077877 S    
O1    Zn1   1.979235 S    
O2    Zn2   1.979778 S    
C6    C15   1.400494 A    
O6    C3    1.282296 A    
O4    Zn2   2.013521 S    
C49   H28   1.115526 S    
C14   H2    1.083597 S    
C19   C35   1.417333 A    
C50   H31   1.109823 S    
C3    C42   1.417898 S    
N3    H19   1.025769 S    
C10   O15   1.382023 S    
O2    C1    1.282654 A    
C22   H5    1.083447 S    
C15   C37   1.396268 A    
C45   N3    1.292359 D    
C48   H24   1.111165 S    
C24   C25   1.407782 A    
C7    H9    1.083105 S    
C51   H34   1.109373 S    
O14   C49   1.415811 S    
C18   C33   1.414334 A    
C36   H7    1.076772 S    
C38   C39   1.386884 A    
Zn2   O6    1.979234 S    
C50   H29   1.109800 S    
C17   C30   1.403395 A    
C47   C48   1.520882 S    
C51   H32   1.112778 S    
C10   C11   1.402675 A    
C41   H14   1.086893 S    
C28   C32   1.397741 A    
C35   C40   1.426291 A    
C31   O13   1.381394 S    
