data_mof_unit_47696.cif
_audit_creation_date              2012-10-26T19:58:20-0400
_audit_creation_method            fapswitch 2.2
_symmetry_space_group_name_H-M    P1
_symmetry_Int_Tables_number       1
_space_group_crystal_system       triclinic
_cell_length_a                    7.42335
_cell_length_b                    8.70717
_cell_length_c                    13.413399
_cell_angle_alpha                 94.490306
_cell_angle_beta                  77.294342
_cell_angle_gamma                 103.119846
_cell_volume                      823.319368651

loop_
_atom_site_label
_atom_site_type_symbol
_atom_type_description
_atom_site_fract_x
_atom_site_fract_y
_atom_site_fract_z
_atom_type_partial_charge
C1    C     C_R   0.547888 0.799803 0.497407 0.593708
C2    C     C_R   0.335488 0.495050 0.806877 -0.008713
C3    C     C_2   0.571494 0.967573 0.496413 -0.118439
C4    C     C_R   0.399259 0.498535 0.694581 0.546937
C5    C     C_2   0.447251 0.034965 0.466503 -0.040164
C6    C     C_R   0.458798 0.200306 0.490032 0.516928
C7    C     C_R   0.601559 0.508693 0.305760 0.551299
C8    C     C_R   0.880745 0.665306 0.052461 -0.121378
C9    C     C_R   0.662914 0.528808 0.195191 0.003917
C10   C     C_R   0.153672 0.407982 0.846744 -0.131944
C11   C     C_R   0.102599 0.367006 0.948468 -0.133468
C12   C     C_R   0.418860 0.495662 0.974129 0.023844
C13   C     C_R   0.234224 0.405406 0.010811 -0.114728
C14   C     C_2   0.308361 0.954496 0.403545 0.241701
C15   C     C_1   0.646373 0.788227 0.769999 0.203879
C16   C     C_R   0.462499 0.554494 0.873609 0.011937
C17   C     C_R   0.560171 0.532299 0.034475 0.030300
C18   C     C_R   0.739209 0.629297 0.994660 0.032832
C19   C     C_R   0.770498 0.700156 0.901249 -0.137844
C20   C     C_R   0.629977 0.672098 0.844385 -0.007557
C21   C     C_R   0.528041 0.479516 0.134467 -0.110178
C22   C     C_R   0.842463 0.615970 0.152630 -0.130986
Cu1   Cu    Cu3+1 0.321300 0.483160 0.488710 0.991349
Cu2   Cu    Cu3+1 0.678700 0.516840 0.511290 0.985683
H1    H     H_    0.948839 0.654024 0.198422 0.150462
H2    H     H_    0.683786 0.037116 0.531548 0.132027
H3    H     H_    0.172544 0.987087 0.414016 0.118666
H4    H     H_    0.010897 0.618154 0.579380 0.240611
H5    H     H_    0.989082 0.381892 0.420614 0.234959
H6    H     H_    0.900496 0.786587 0.875870 0.112662
H7    H     H_    0.018087 0.738410 0.021884 0.123828
H8    H     H_    0.395726 0.405544 0.169397 0.115666
H9    H     H_    0.053108 0.364938 0.798044 0.144982
H10   H     H_    0.184982 0.364029 0.087614 0.107146
H11   H     H_    0.962027 0.298901 0.978237 0.131394
N1    N     N_2   0.947230 0.542220 0.528320 -0.249582
N2    N     N_2   0.052770 0.457780 0.471680 -0.250358
N3    N     N_1   0.660226 0.884353 0.712360 -0.319483
O1    O     O_R   0.383920 0.714220 0.492660 -0.466049
O2    O     O_R   0.685730 0.742660 0.511730 -0.490664
O3    O     O_R   0.275440 0.478800 0.636790 -0.511944
O4    O     O_R   0.577250 0.507240 0.655860 -0.487175
O5    O     O_R   0.314270 0.257340 0.488270 -0.518143
O6    O     O_R   0.616080 0.285780 0.507340 -0.510925
O7    O     O_R   0.422750 0.492760 0.344140 -0.482540
O8    O     O_R   0.724560 0.521200 0.363210 -0.512937
O9    O     O_2   0.349161 0.859066 0.335342 -0.491518

loop_
_geom_bond_atom_site_label_1
_geom_bond_atom_site_label_2
_ccdc_geom_bond_type
C12   C17   A    
C8    C22   A    
Cu1   Cu2   S    
C15   N3    T    
C14   O9    D    
Cu1   O7    S    
C14   H3    S    
C2    C16   A    
C2    C4    S    
C19   C20   A    
Cu1   O3    S    
C19   H6    S    
C16   C20   A    
Cu2   O8    S    
C11   H11   S    
C17   C18   A    
Cu1   O5    S    
C13   H10   S    
C6    O6    A    
C11   C13   A    
C9    C21   A    
C5    C14   S    
Cu2   N1    S    
C4    O4    A    
Cu1   O1    S    
C7    O7    A    
N1    N2    D    
Cu2   O2    S    
C10   H9    S    
C6    O5    A    
C5    C6    S    
Cu2   O6    S    
C21   H8    S    
C17   C21   A    
C9    C22   A    
C10   C11   A    
C1    O1    A    
C2    C10   A    
C7    O8    A    
Cu2   O4    S    
C12   C13   A    
H4    N1    S    
C18   C19   A    
C4    O3    A    
H5    N2    S    
C7    C9    S    
C1    O2    A    
C3    C5    D    
Cu1   N2    S    
C8    H7    S    
C3    H2    S    
C8    C18   A    
C12   C16   A    
C15   C20   S    
C1    C3    S    
C22   H1    S    
