data_mof_unit_36142.cif
_audit_creation_date              2012-12-10T17:24:53-0500
_audit_creation_method            fapswitch 2.2
_symmetry_space_group_name_H-M    P1
_symmetry_Int_Tables_number       1
_space_group_crystal_system       triclinic
_cell_length_a                    10.147982
_cell_length_b                    10.828298
_cell_length_c                    19.272659
_cell_angle_alpha                 90.564891
_cell_angle_beta                  80.016923
_cell_angle_gamma                 95.253276
_cell_volume                      2076.91827191

loop_
_atom_site_label
_atom_site_type_symbol
_atom_type_description
_atom_site_fract_x
_atom_site_fract_y
_atom_site_fract_z
_atom_type_partial_charge
C1    C     C_R   0.556044 0.732676 0.497079 0.928307
C2    C     C_R   0.443806 0.267467 0.506516 0.925669
C3    C     C_2   0.587563 0.864567 0.501644 -0.385787
C4    C     C_2   0.411448 0.135894 0.515795 -0.374122
C5    C     C_2   0.486205 0.934392 0.521019 -0.149949
C6    C     C_2   0.511033 0.066263 0.520518 -0.164848
C7    C     C_2   0.924899 0.506900 0.507692 0.053021
C8    C     C_2   0.071897 0.486680 0.496876 0.029841
C9    C     C_R   0.498123 0.497223 0.634706 0.921998
C10   C     C_R   0.501764 0.500552 0.365267 0.921122
C11   C     C_R   0.372190 0.477884 0.759138 0.118234
C12   C     C_R   0.627498 0.489396 0.241481 0.104254
C13   C     C_R   0.374884 0.479460 0.831540 0.372705
C14   C     C_R   0.624192 0.469402 0.170032 0.366239
C15   C     C_R   0.498298 0.475786 0.855160 -0.178059
C16   C     C_R   0.502114 0.471715 0.145010 -0.163296
C17   C     C_R   0.618982 0.477202 0.806695 0.453821
C18   C     C_R   0.381860 0.486812 0.191528 0.463047
C19   C     C_R   0.616746 0.488742 0.735266 -0.368568
C20   C     C_R   0.383816 0.493245 0.263724 -0.380602
C21   C     C_R   0.494583 0.488659 0.710773 -0.200974
C22   C     C_R   0.505283 0.496214 0.289064 -0.203407
C23   C     C_R   0.502747 0.468713 0.069615 0.338221
C24   C     C_R   0.501493 0.470309 0.930194 0.324793
H1    H     H_    0.711547 0.495124 0.699001 0.183704
H2    H     H_    0.289897 0.496861 0.299925 0.195935
H3    H     H_    0.613862 0.105904 0.519250 0.176567
H4    H     H_    0.382236 0.895017 0.533046 0.208593
H5    H     H_    0.308700 0.095822 0.517355 0.154529
H6    H     H_    0.691221 0.904518 0.489053 0.154064
H7    H     H_    0.106931 0.409049 0.465083 0.140262
H8    H     H_    0.883790 0.565460 0.550520 0.115293
N1    N     N_R   0.600099 0.537341 0.956932 -0.129982
N2    N     N_R   0.404431 0.401012 0.042936 -0.129527
N3    N     N_R   0.600761 0.536485 0.025617 -0.131895
N4    N     N_R   0.403888 0.401759 0.974152 -0.127516
N5    N     N_2   0.842710 0.448880 0.471430 0.038282
N6    N     N_2   0.157290 0.551120 0.528570 0.053938
O1    O     O_R   0.431050 0.692470 0.505750 -0.582412
O2    O     O_R   0.568950 0.307530 0.494250 -0.654486
O3    O     O_R   0.651120 0.659650 0.487410 -0.616279
O4    O     O_R   0.348880 0.340350 0.512590 -0.633103
O5    O     O_R   0.389930 0.516430 0.611030 -0.594692
O6    O     O_R   0.610070 0.483570 0.388970 -0.589846
O7    O     O_R   0.610000 0.483610 0.592700 -0.648428
O8    O     O_R   0.390000 0.516390 0.407300 -0.622147
Zn1   Zn    Zn3+2 0.353060 0.521920 0.512240 0.980687
Zn2   Zn    Zn3+2 0.646940 0.478080 0.487760 0.953192
N7    N     N_2   0.246423 0.462511 0.735520 -0.283650
H9    H     H_    0.170932 0.506574 0.765821 0.236900
C25   C     C_3   0.203738 0.335430 0.720353 -0.748748
H10   H     H_    0.108714 0.332276 0.698933 0.214809
H11   H     H_    0.186097 0.278294 0.769244 0.246301
H12   H     H_    0.280832 0.295718 0.680456 0.243012
N8    N     N_2   0.753873 0.503179 0.264894 -0.258150
H13   H     H_    0.825685 0.450180 0.238406 0.250608
C26   C     C_3   0.805679 0.630754 0.272084 -0.676673
H14   H     H_    0.828215 0.677514 0.219762 0.226341
H15   H     H_    0.899329 0.633506 0.294695 0.233886
H16   H     H_    0.731832 0.681711 0.308045 0.231205
O9    O     O_3   0.255270 0.477638 0.878832 -0.595008
C27   C     C_3   0.232759 0.600911 0.898851 0.069905
H17   H     H_    0.237551 0.662060 0.852077 0.121634
H18   H     H_    0.308031 0.639468 0.930891 0.152032
C28   C     C_3   0.093727 0.602384 0.943399 -0.778087
H19   H     H_    0.083529 0.538221 0.988922 0.272501
H20   H     H_    0.078374 0.697523 0.963253 0.208595
H21   H     H_    0.015481 0.573265 0.911379 0.266004
O10   O     O_3   0.742799 0.454339 0.124300 -0.599988
C29   C     C_3   0.754189 0.326011 0.114149 0.062937
H22   H     H_    0.685161 0.287927 0.078603 0.156341
H23   H     H_    0.731221 0.273040 0.164877 0.124729
C30   C     C_3   0.897431 0.306210 0.080179 -0.790566
H24   H     H_    0.967797 0.337051 0.116387 0.261020
H25   H     H_    0.905678 0.206259 0.068681 0.210569
H26   H     H_    0.925752 0.359681 0.030234 0.264049
O11   O     O_3   0.740034 0.469298 0.829350 -0.594840
C31   C     C_3   0.774927 0.346099 0.820195 0.080412
H27   H     H_    0.807852 0.326773 0.763289 0.135636
H28   H     H_    0.689393 0.277489 0.842259 0.138817
C32   C     C_3   0.890335 0.328510 0.858815 -0.794024
H29   H     H_    0.859387 0.346603 0.915811 0.263252
H30   H     H_    0.918845 0.231990 0.851954 0.206022
H31   H     H_    0.978578 0.393423 0.837476 0.270985
O12   O     O_3   0.263116 0.491283 0.165358 -0.591988
C33   C     C_3   0.200102 0.599037 0.189013 0.095395
H32   H     H_    0.273803 0.680078 0.194674 0.134928
H33   H     H_    0.132786 0.579694 0.240411 0.157650
C34   C     C_3   0.115835 0.635185 0.135800 -0.812519
H34   H     H_    0.036950 0.559409 0.130444 0.281541
H35   H     H_    0.066946 0.720375 0.153496 0.205470
H36   H     H_    0.181204 0.653973 0.083860 0.256481
O13   O     O_3   0.119033 0.660648 0.554956 -0.541765
C35   C     C_3   0.102806 0.653302 0.629113 0.180161
H37   H     H_    0.118977 0.561034 0.649370 0.148457
H38   H     H_    0.997615 0.670466 0.651330 0.120310
C36   C     C_3   0.196198 0.753044 0.656456 -0.816335
H39   H     H_    0.176704 0.846060 0.638969 0.240059
H40   H     H_    0.178646 0.750161 0.714944 0.192835
H41   H     H_    0.302562 0.737484 0.636639 0.268842
O14   O     O_3   0.903049 0.400019 0.410672 -0.557852
C37   C     C_3   0.830680 0.286661 0.399831 0.241682
H42   H     H_    0.735922 0.302341 0.381653 0.190142
H43   H     H_    0.809507 0.228608 0.448586 0.118019
C38   C     C_3   0.914315 0.215443 0.342526 -0.930860
H44   H     H_    0.010500 0.197156 0.358845 0.263204
H45   H     H_    0.858250 0.125555 0.333254 0.215086
H46   H     H_    0.936304 0.269995 0.292679 0.265899

loop_
_geom_bond_atom_site_label_1
_geom_bond_atom_site_label_2
_ccdc_geom_bond_type
N1    N3    A    
N8    H13   S    
C9    O7    A    
O13   C35   S    
C30   H24   S    
C36   H41   S    
C36   H39   S    
C7    C8    S    
O11   C31   S    
C10   C22   S    
C38   H45   S    
C24   N4    A    
C19   C21   A    
O10   C29   S    
C5    C6    S    
C37   H43   S    
C31   H28   S    
C26   H15   S    
C12   C22   A    
C37   C38   S    
O2    Zn2   S    
C27   H18   S    
C36   H40   S    
N7    C25   S    
C10   O8    A    
C29   H22   S    
C34   H35   S    
N2    N4    A    
C4    H5    S    
C23   N2    A    
C30   H25   S    
O9    C27   S    
C8    N6    D    
C32   H30   S    
C32   H29   S    
C38   H46   S    
C9    O5    A    
C18   O12   S    
C33   H33   S    
C10   O6    A    
C37   H42   S    
O14   C37   S    
C4    C6    D    
C31   H27   S    
C26   H16   S    
C35   C36   S    
C28   H20   S    
O12   C33   S    
C11   C21   A    
C25   H10   S    
N5    Zn2   S    
C3    H6    S    
C2    C4    S    
C27   H17   S    
C11   N7    S    
C5    H4    S    
C6    H3    S    
C28   H21   S    
C29   C30   S    
C17   O11   S    
C7    N5    D    
C34   H36   S    
C35   H38   S    
N6    Zn1   S    
C1    O3    A    
C15   C24   S    
C12   C14   A    
C28   H19   S    
C16   C23   S    
C23   N3    A    
N8    C26   S    
C14   O10   S    
C14   C16   A    
C32   H31   S    
O1    Zn1   S    
O7    Zn2   S    
C15   C17   A    
O8    Zn1   S    
C7    H8    S    
C27   C28   S    
C33   H32   S    
C8    H7    S    
C20   C22   A    
C3    C5    D    
C33   C34   S    
C38   H44   S    
C24   N1    A    
C25   H12   S    
C13   C15   A    
N5    O14   S    
C11   C13   A    
C31   C32   S    
C9    C21   S    
C26   H14   S    
C20   H2    S    
C2    O4    A    
N6    O13   S    
C17   C19   A    
O3    Zn2   S    
C18   C20   A    
O4    Zn1   S    
C35   H37   S    
C19   H1    S    
C12   N8    S    
C1    O1    A    
C25   H11   S    
C2    O2    A    
C13   O9    S    
C30   H26   S    
C16   C18   A    
N7    H9    S    
C29   H23   S    
C1    C3    S    
C34   H34   S    
O5    Zn1   S    
O6    Zn2   S    
