data_mof_unit_6558.cif
_audit_creation_date              2012-12-10T18:11:44-0500
_audit_creation_method            fapswitch 2.2
_symmetry_space_group_name_H-M    P1
_symmetry_Int_Tables_number       1
_space_group_crystal_system       triclinic
_cell_length_a                    10.514358
_cell_length_b                    12.841645
_cell_length_c                    12.913484
_cell_angle_alpha                 81.884952
_cell_angle_beta                  94.762459
_cell_angle_gamma                 102.237138
_cell_volume                      1684.37739703

loop_
_atom_site_label
_atom_site_type_symbol
_atom_type_description
_atom_site_fract_x
_atom_site_fract_y
_atom_site_fract_z
_atom_type_partial_charge
C1    C     C_R   0.484046 0.439594 0.691241 0.851547
C2    C     C_R   0.484921 0.434220 0.980209 0.038611
C3    C     C_R   0.536535 0.439631 0.882102 0.011443
C4    C     C_R   0.741393 0.501897 0.498159 0.879818
C5    C     C_R   0.554384 0.505610 0.048847 0.066067
C6    C     C_R   0.687976 0.553127 0.034563 0.109792
C7    C     C_R   0.747429 0.533456 0.947442 0.093518
C8    C     C_R   0.669690 0.481948 0.869368 -0.162647
C9    C     C_R   0.492199 0.535485 0.127769 -0.237678
C10   C     C_R   0.696389 0.635402 0.193726 -0.175183
C11   C     C_R   0.453870 0.400722 0.799465 -0.087585
C12   C     C_3   0.063859 0.557719 0.570902 0.100070
C13   C     C_R   0.284898 0.092082 0.360209 -0.236549
C14   C     C_R   0.654060 0.802963 0.636649 0.311118
C15   C     C_R   0.660117 0.897025 0.680611 0.032823
C16   C     C_R   0.518387 0.559670 0.309189 0.829931
C17   C     C_R   0.586635 0.970093 0.634315 -0.241915
C18   C     C_R   0.514446 0.955303 0.539446 -0.033663
C19   C     C_R   0.494078 0.852395 0.504447 0.138492
C20   C     C_R   0.456373 0.038662 0.482731 -0.006541
C21   C     C_R   0.353692 0.013299 0.406756 0.077615
C22   C     C_R   0.325581 0.911866 0.374634 0.035806
C23   C     C_3   0.953526 0.458737 0.595151 -0.249703
C24   C     C_R   0.397759 0.834130 0.418795 0.049921
C25   C     C_R   0.501196 0.148724 0.493833 0.198712
C26   C     C_R   0.325197 0.196046 0.382020 -0.032490
C27   C     C_R   0.258480 0.498216 0.501194 0.883234
C28   C     C_3   0.935633 0.442691 0.426686 0.088284
C29   C     C_3   0.013070 0.398974 0.521888 0.126548
C30   C     C_3   0.123230 0.496698 0.500041 -0.057158
C31   C     C_3   0.046145 0.541358 0.402438 -0.314486
C32   C     C_3   0.986499 0.601298 0.475498 0.105479
C33   C     C_3   0.876406 0.503638 0.497682 -0.048433
C34   C     C_R   0.757581 0.618904 0.107578 -0.208358
C35   C     C_R   0.564234 0.590589 0.204946 -0.043469
C36   C     C_R   0.331205 0.336150 0.819294 -0.222834
C37   C     C_R   0.290593 0.311520 0.921058 -0.116074
C38   C     C_R   0.365733 0.359304 0.002720 0.111214
H1    H     H_    0.388617 0.509257 0.135765 0.127608
H2    H     H_    0.754339 0.675499 0.255494 0.172496
H3    H     H_    0.860128 0.653982 0.101416 0.156232
H4    H     H_    0.937871 0.240178 0.558947 0.189177
H5    H     H_    0.061516 0.266684 0.478921 0.195345
H6    H     H_    0.409175 0.326854 0.161157 0.212022
H7    H     H_    0.256004 0.352392 0.127183 0.166620
H8    H     H_    0.688576 0.227609 0.489186 0.228564
H9    H     H_    0.613334 0.235370 0.599671 0.216892
H10   H     H_    0.820087 0.430449 0.293155 0.197861
H11   H     H_    0.929203 0.350469 0.310290 0.174580
H12   H     H_    0.266965 0.304719 0.755909 0.170930
H13   H     H_    0.806512 0.991340 0.756151 0.197191
H14   H     H_    0.681746 0.927544 0.831063 0.199951
H15   H     H_    0.396414 0.759856 0.292162 0.206849
H16   H     H_    0.272435 0.706146 0.371395 0.195323
H17   H     H_    0.064886 0.759722 0.444704 0.203500
H18   H     H_    0.932151 0.733423 0.513157 0.221701
H19   H     H_    0.069220 0.645861 0.690511 0.211190
H20   H     H_    0.192070 0.690514 0.610501 0.199957
H21   H     H_    0.934510 0.533649 0.999125 0.175463
H22   H     H_    0.909418 0.651582 0.931438 0.218486
H23   H     H_    0.199517 0.255541 0.936554 0.157790
H24   H     H_    0.714152 0.473097 0.799206 0.155062
H25   H     H_    0.272118 0.257193 0.347732 0.137840
H26   H     H_    0.200533 0.075678 0.307049 0.192636
H27   H     H_    0.585432 0.037435 0.675443 0.176364
H28   H     H_    0.083866 0.573192 0.323971 0.154863
H29   H     H_    0.913981 0.426045 0.672882 0.149489
I1    I     I_    0.186014 0.878329 0.243827 -0.480541
I2    I     I_    0.786609 0.706846 0.703173 -0.406336
N1    N     N_R   0.432930 0.222190 0.444670 -0.116009
N2    N     N_3   0.136835 0.621003 0.649718 -0.431866
N3    N     N_3   0.884653 0.568043 0.934218 -0.447091
N4    N     N_R   0.566370 0.776980 0.554790 -0.143036
N5    N     N_3   0.029985 0.288292 0.546009 -0.445821
N6    N     N_3   0.329138 0.316164 0.107303 -0.465850
N7    N     N_3   0.624842 0.185343 0.545565 -0.485209
N8    N     N_3   0.862127 0.378573 0.348798 -0.450817
N9    N     N_3   0.741027 0.918390 0.773215 -0.425646
N10   N     N_3   0.371990 0.739484 0.370451 -0.354210
N11   N     N_3   0.971327 0.712218 0.449605 -0.428795
O1    O     O_R   0.467970 0.366730 0.627150 -0.625297
O2    O     O_R   0.510820 0.544830 0.662520 -0.570199
O3    O     O_R   0.664630 0.410960 0.482340 -0.629187
O4    O     O_R   0.707470 0.589060 0.517710 -0.593013
O5    O     O_R   0.489180 0.455170 0.337480 -0.610846
O6    O     O_R   0.532030 0.633270 0.372850 -0.592668
O7    O     O_R   0.292530 0.410940 0.482290 -0.624890
O8    O     O_R   0.335370 0.589040 0.517660 -0.602950
Zn1   Zn    Zn3+2 0.471390 0.381080 0.476380 0.924756
Zn2   Zn    Zn3+2 0.528610 0.618920 0.523620 0.978261

loop_
_geom_bond_atom_site_label_1
_geom_bond_atom_site_label_2
_ccdc_geom_bond_type
C31   H28   S    
C1    C11   S    
H8    N7    S    
C7    C8    A    
C13   H26   S    
C12   C23   S    
C37   C38   A    
C23   C29   S    
C36   C37   A    
H15   N10   S    
H9    N7    S    
C16   C35   S    
C30   C31   S    
H20   N2    S    
C15   N9    S    
C20   C25   A    
H22   N3    S    
C1    O1    A    
C9    H1    S    
C10   H2    S    
C18   C19   A    
C23   H29   S    
C23   C33   S    
C10   C35   A    
H21   N3    S    
O1    Zn1   S    
H5    N5    S    
C21   C22   A    
C12   C32   S    
C27   C30   S    
C16   O6    A    
C34   H3    S    
O4    Zn2   S    
H14   N9    S    
C38   N6    S    
O3    Zn1   S    
H4    N5    S    
C14   N4    A    
C19   N4    A    
C3    C8    A    
O6    Zn2   S    
C7    N3    S    
O5    Zn1   S    
C29   N5    S    
C1    O2    A    
C6    C34   A    
C11   C36   A    
H10   N8    S    
H6    N6    S    
C26   H25   S    
C5    C9    A    
C29   C30   S    
C32   N11   S    
C2    C38   A    
C24   N10   S    
C31   C32   S    
C4    O4    A    
C17   C18   A    
C13   C21   A    
C10   C34   A    
H19   N2    S    
C27   O7    A    
C28   N8    S    
C22   I1    S    
C12   N2    S    
O8    Zn2   S    
C28   C33   S    
O7    Zn1   S    
C16   O5    A    
C26   N1    A    
C14   I2    S    
C22   C24   A    
C13   C26   A    
N1    Zn1   S    
C36   H12   S    
H16   N10   S    
C15   C17   A    
C4    C33   S    
C28   C29   S    
C12   C30   S    
C28   C31   S    
O2    Zn2   S    
N4    Zn2   S    
C37   H23   S    
C6    C7    A    
C17   H27   S    
H18   N11   S    
H7    N6    S    
C25   N7    S    
C32   C33   S    
C2    C3    A    
H13   N9    S    
H17   N11   S    
C5    C6    A    
C4    O3    A    
H11   N8    S    
C19   C24   A    
C18   C20   A    
C27   O8    A    
C3    C11   A    
C2    C5    A    
C20   C21   A    
C9    C35   A    
C14   C15   A    
C25   N1    A    
C8    H24   S    
