data_mof_unit_18881.cif
_audit_creation_date              2012-12-11T17:06:37-0500
_audit_creation_method            fapswitch 2.2
_symmetry_space_group_name_H-M    P1
_symmetry_Int_Tables_number       1
_space_group_crystal_system       triclinic
_cell_length_a                    6.959872
_cell_length_b                    14.519658
_cell_length_c                    15.966977
_cell_angle_alpha                 90.445494
_cell_angle_beta                  90.054726
_cell_angle_gamma                 90.006889
_cell_volume                      1613.49271768

loop_
_atom_site_label
_atom_site_type_symbol
_atom_type_description
_atom_site_fract_x
_atom_site_fract_y
_atom_site_fract_z
_atom_type_partial_charge
O1    O     O_R   0.494400 0.415450 0.412630 -0.537373
O2    O     O_R   0.823940 0.405730 0.586760 -0.544465
O3    O     O_R   0.994240 0.584550 0.587370 -0.520471
C1    C     C_R   0.655232 0.383528 0.615251 0.692810
O4    O     O_R   0.824110 0.404430 0.413240 -0.545653
O5    O     O_R   0.994420 0.583240 0.412620 -0.539943
C2    C     C_R   0.655307 0.382388 0.384115 0.694079
O6    O     O_R   0.494230 0.416760 0.587380 -0.538174
O7    O     O_3   0.660800 0.558670 0.500000 -0.359106
V1    V     V_3+5 0.935650 0.489120 0.500000 1.399889
O8    O     O_R   0.324140 0.594270 0.413240 -0.540276
C3    C     C_R   0.155064 0.615921 0.384116 0.690847
O9    O     O_R   0.323960 0.595570 0.586760 -0.536860
C4    C     C_R   0.155205 0.616288 0.616514 0.704650
V2    V     V_3+5 0.435660 0.510880 0.500000 1.409486
O10   O     O_3   0.160640 0.441330 0.500000 -0.376685
C5    C     C_3   0.965271 0.705670 0.740411 0.338774
C6    C     C_3   0.084525 0.704743 0.821649 -0.224393
H1    H     H_    0.044470 0.670350 0.880970 0.114062
C7    C     C_3   0.121369 0.808966 0.810938 -0.100184
C8    C     C_3   0.001088 0.808742 0.730468 0.286849
C9    C     C_3   0.181290 0.789541 0.677005 -0.223582
C10   C     C_3   0.303939 0.788677 0.758649 -0.150120
C11   C     C_3   0.266539 0.683546 0.768186 -0.177739
C12   C     C_3   0.143954 0.684951 0.687226 -0.066147
H2    H     H_    0.220537 0.824608 0.617907 0.113955
H3    H     H_    0.443966 0.824138 0.767037 0.152697
H4    H     H_    0.373181 0.630051 0.784585 0.125446
C13   C     C_R   0.272894 0.815199 0.239355 0.097609
C14   C     C_R   0.118571 0.815054 0.182894 -0.110824
C15   C     C_R   0.966924 0.753291 0.198596 -0.181340
H5    H     H_    0.844473 0.750721 0.157023 0.132470
C16   C     C_R   0.977945 0.689645 0.264652 -0.179304
H6    H     H_    0.863091 0.640241 0.272100 0.127215
C17   C     C_R   0.141259 0.685581 0.316852 -0.111474
C18   C     C_R   0.284228 0.751966 0.304483 0.099518
C19   C     C_3   0.494919 0.739441 0.292671 -0.407676
C20   C     C_3   0.482701 0.808694 0.222028 -0.399521
H7    H     H_    0.530904 0.668659 0.270842 0.165525
H8    H     H_    0.579013 0.764830 0.347385 0.174620
H9    H     H_    0.512371 0.778319 0.159244 0.170057
H10   H     H_    0.559030 0.874296 0.236039 0.165917
C21   C     C_R   0.496604 0.317831 0.743084 0.090491
C22   C     C_R   0.648074 0.317538 0.685338 -0.113634
C23   C     C_R   0.798238 0.254181 0.698455 -0.178547
H11   H     H_    0.919444 0.251985 0.656218 0.128914
C24   C     C_R   0.786803 0.188384 0.762573 -0.173537
H12   H     H_    0.900075 0.137772 0.768015 0.120248
C25   C     C_R   0.624753 0.183989 0.815307 -0.109264
C26   C     C_R   0.485070 0.252649 0.806373 0.098208
C27   C     C_3   0.272664 0.244240 0.797158 -0.398968
C28   C     C_3   0.285205 0.315793 0.728361 -0.401848
H13   H     H_    0.194743 0.269162 0.853693 0.176335
H14   H     H_    0.229475 0.174955 0.773885 0.165394
H15   H     H_    0.215311 0.382216 0.745303 0.159519
H16   H     H_    0.248495 0.288270 0.665211 0.172414
C29   C     C_R   0.499795 0.318835 0.253298 0.038751
C30   C     C_R   0.647707 0.316333 0.312932 -0.096847
C31   C     C_R   0.795710 0.251486 0.299773 -0.188789
H17   H     H_    0.915527 0.247997 0.342813 0.124876
C32   C     C_R   0.784113 0.186167 0.234118 -0.190747
H18   H     H_    0.895649 0.134575 0.228563 0.128070
C33   C     C_R   0.624857 0.184133 0.179374 -0.151785
C34   C     C_R   0.489136 0.254546 0.188257 0.102211
C35   C     C_3   0.274595 0.250819 0.193314 0.150308
C36   C     C_3   0.286739 0.322204 0.263935 -0.443420
H19   H     H_    0.221219 0.182598 0.214101 0.089679
H20   H     H_    0.241264 0.294936 0.325635 0.150004
H21   H     H_    0.226227 0.390799 0.248353 0.172868
O11   O     O_R   0.771650 0.079500 0.908680 -0.539920
O12   O     O_R   0.441690 0.091800 0.082800 -0.532868
O13   O     O_R   0.271460 0.912980 0.083410 -0.539038
C37   C     C_R   0.610775 0.113765 0.111982 0.702409
O14   O     O_R   0.441930 0.090510 0.909280 -0.538811
O15   O     O_R   0.271690 0.911670 0.908660 -0.539398
C38   C     C_R   0.610957 0.112715 0.880783 0.700624
O16   O     O_R   0.771410 0.080810 0.083440 -0.537039
O17   O     O_3   0.605100 0.937580 0.996050 -0.372086
V3    V     V_3+5 0.330220 0.007110 0.996030 1.424565
O18   O     O_R   0.941980 0.900620 0.909250 -0.537205
C39   C     C_R   0.110724 0.878979 0.880343 0.694863
O19   O     O_R   0.941740 0.901920 0.082770 -0.545925
C40   C     C_R   0.110574 0.880076 0.111727 0.685224
V4    V     V_3+5 0.830220 0.985300 0.996000 1.409419
O20   O     O_3   0.105210 0.054870 0.996020 -0.360655
N1    N     N_2   0.780572 0.661199 0.731007 -0.509595
H22   H     H_    0.670582 0.701040 0.754219 0.257939
C41   C     C_3   0.771756 0.567169 0.760145 -0.532622
H23   H     H_    0.637249 0.534546 0.737314 0.185617
H24   H     H_    0.772333 0.565886 0.829695 0.167733
H25   H     H_    0.895122 0.526256 0.736273 0.195898
N2    N     N_2   0.174708 0.283455 0.118764 -0.485249
H26   H     H_    0.030031 0.294417 0.128364 0.265847
C42   C     C_3   0.264062 0.352481 0.066354 -0.524947
H27   H     H_    0.167995 0.368105 0.012738 0.178430
H28   H     H_    0.401726 0.326255 0.040397 0.195127
H29   H     H_    0.289478 0.416994 0.102453 0.183341
N3    N     N_2   0.855610 0.876976 0.712105 -0.531456
H30   H     H_    0.900795 0.943322 0.724503 0.244535
C43   C     C_3   0.764524 0.867535 0.631079 -0.580687
H31   H     H_    0.646554 0.918646 0.625875 0.194326
H32   H     H_    0.701737 0.797751 0.623134 0.226811
H33   H     H_    0.870378 0.880163 0.580412 0.188721

loop_
_geom_bond_atom_site_label_1
_geom_bond_atom_site_label_2
_ccdc_geom_bond_type
C35   N2    S    
C36   H20   S    
C17   C18   A    
C29   C36   S    
O18   V4    S    
O12   V3    S    
C24   C25   A    
C23   H11   S    
C13   C18   A    
C19   C20   S    
O14   C38   A    
C6    C11   S    
C18   C19   S    
C20   H10   S    
C19   H8    S    
O5    C3    A    
C14   C15   A    
N1    C41   S    
C21   C28   S    
C36   H21   S    
V2    O10   S    
C6    H1    S    
C14   C40   S    
C32   C33   A    
N2    H26   S    
O9    C4    A    
O8    V2    S    
C15   H5    S    
C35   H19   S    
C9    C12   S    
C13   C20   S    
C10   C11   S    
C15   C16   A    
O1    V2    S    
C10   H3    S    
O11   V4    S    
O7    V1    S    
C2    C30   S    
C28   H15   S    
C1    O6    A    
C41   H23   S    
C31   H17   S    
C8    C9    S    
C42   H27   S    
C43   H32   S    
C16   H6    S    
C23   C24   A    
C31   C32   A    
C5    N1    S    
C11   C12   S    
C20   H9    S    
O12   C37   A    
O17   V3    S    
O15   C39   A    
C1    C22   S    
C42   H29   S    
C26   C27   S    
C30   C31   A    
C7    C10   S    
O19   C40   A    
C43   H33   S    
C5    C8    S    
C27   C28   S    
C27   H13   S    
O2    C1    A    
C21   C22   A    
C13   C14   A    
C24   H12   S    
C41   H25   S    
N2    C42   S    
C5    C6    S    
C25   C38   S    
V4    O20   S    
C3    C17   S    
C42   H28   S    
O3    C4    A    
C41   H24   S    
N3    H30   S    
O6    V2    S    
N3    C43   S    
O14   V3    S    
O9    V2    S    
O11   C38   A    
O2    V1    S    
V3    O20   S    
C22   C23   A    
N1    H22   S    
C29   C34   A    
O4    C2    A    
O1    C2    A    
C11   H4    S    
O18   C39   A    
O5    V1    S    
O8    C3    A    
C21   C26   A    
O13   V3    S    
C33   C37   S    
O19   V4    S    
O16   V4    S    
C27   H14   S    
C5    C12   S    
C34   C35   S    
O7    V2    S    
O4    V1    S    
C19   H7    S    
O3    V1    S    
V1    O10   S    
C8    N3    S    
C29   C30   A    
C43   H31   S    
C16   C17   A    
C6    C7    S    
C35   C36   S    
C4    C12   S    
C32   H18   S    
O13   C40   A    
C33   C34   A    
O17   V4    S    
C7    C8    S    
C25   C26   A    
C9    H2    S    
C37   O16   A    
C9    C10   S    
C7    C39   S    
O15   V3    S    
C28   H16   S    
