data_mof_unit_41823.cif
_audit_creation_date              2012-10-26T20:23:41-0400
_audit_creation_method            fapswitch 2.2
_symmetry_space_group_name_H-M    P1
_symmetry_Int_Tables_number       1
_space_group_crystal_system       triclinic
_cell_length_a                    12.742527
_cell_length_b                    13.899026
_cell_length_c                    15.893856
_cell_angle_alpha                 90.216068
_cell_angle_beta                  92.708619
_cell_angle_gamma                 98.062746
_cell_volume                      2783.84715786

loop_
_atom_site_label
_atom_site_type_symbol
_atom_type_description
_atom_site_fract_x
_atom_site_fract_y
_atom_site_fract_z
_atom_type_partial_charge
C1    C     C_R   0.483447 0.315823 0.499290 0.547320
C2    C     C_1   0.145316 0.479929 0.483305 0.187707
C3    C     C_R   0.500727 0.500025 0.339589 0.542048
C4    C     C_R   0.499273 0.499975 0.660411 0.542048
C5    C     C_3   0.462650 0.409911 0.971239 0.208553
C6    C     C_3   0.537350 0.590089 0.028761 0.208553
C7    C     C_3   0.563389 0.436471 0.028917 0.209011
C8    C     C_3   0.436611 0.563529 0.971083 0.209011
C9    C     C_1   0.502111 0.500127 0.250170 0.008799
C10   C     C_1   0.497890 0.499873 0.749830 0.008799
C11   C     C_3   0.400463 0.473532 0.024373 0.208414
C12   C     C_R   0.516553 0.684177 0.500710 0.547320
C13   C     C_3   0.599537 0.526468 0.975627 0.208414
C14   C     C_3   0.501243 0.500098 0.083348 -0.005757
C15   C     C_3   0.498757 0.499902 0.916652 -0.005757
C16   C     C_1   0.502183 0.500149 0.174815 0.048469
C17   C     C_1   0.497817 0.499851 0.825185 0.048469
C18   C     C_1   0.526323 0.787466 0.500061 -0.025990
C19   C     C_1   0.473677 0.212534 0.499939 -0.025991
C20   C     C_3   0.680240 0.327559 0.002910 -0.008080
C21   C     C_3   0.730623 0.243936 0.041253 -0.389039
C22   C     C_3   0.319759 0.672441 0.997089 -0.008079
C23   C     C_2   0.544860 0.979755 0.498200 0.290709
C24   C     C_3   0.269378 0.756065 0.958747 -0.389039
C25   C     C_3   0.403194 0.248214 0.997884 -0.008834
C26   C     C_3   0.341478 0.156133 0.958561 -0.391699
C27   C     C_3   0.596806 0.751786 0.002116 -0.008834
C28   C     C_3   0.658521 0.843867 0.041439 -0.391700
C29   C     C_3   0.777159 0.579063 0.009905 -0.006592
C30   C     C_3   0.887665 0.585165 0.976258 -0.390898
C31   C     C_3   0.222841 0.420937 0.990095 -0.006588
C32   C     C_3   0.112335 0.414843 0.023741 -0.390895
C33   C     C_3   0.270514 0.011254 0.510838 -0.013894
C34   C     C_2   0.455140 0.020245 0.501800 0.290709
C35   C     C_3   0.169467 0.939302 0.515926 -0.352558
C36   C     C_3   0.729485 0.988746 0.489160 -0.013893
C37   C     C_3   0.830532 0.060698 0.484072 -0.352558
C38   C     C_1   0.464670 0.125471 0.500737 -0.019813
C39   C     C_1   0.535330 0.874529 0.499263 -0.019813
C40   C     C_2   0.027274 0.470957 0.477213 0.244430
C41   C     C_2   0.972726 0.529043 0.522787 0.244430
C42   C     C_1   0.854684 0.520071 0.516695 0.187707
Cu1   Cu    Cu3+1 0.395330 0.493960 0.494680 1.020578
Cu2   Cu    Cu3+1 0.604670 0.506040 0.505320 1.020578
H1    H     H_    0.744401 0.380252 0.977868 0.168290
H2    H     H_    0.331508 0.811310 0.933915 0.152694
H3    H     H_    0.355681 0.273343 0.048441 0.167085
H4    H     H_    0.478299 0.229370 0.027041 0.168102
H5    H     H_    0.388172 0.127522 0.909279 0.163138
H6    H     H_    0.325491 0.100058 0.007674 0.096539
H7    H     H_    0.264707 0.171783 0.929655 0.152245
H8    H     H_    0.521700 0.770629 0.972959 0.168103
H9    H     H_    0.644319 0.726657 0.951560 0.167086
H10   H     H_    0.735292 0.828218 0.070346 0.152246
H11   H     H_    0.674510 0.899942 0.992327 0.096539
H12   H     H_    0.625477 0.298248 0.949414 0.167081
H13   H     H_    0.611827 0.872479 0.090721 0.163137
H14   H     H_    0.771109 0.525569 0.061951 0.171178
H15   H     H_    0.768514 0.651379 0.036157 0.167502
H16   H     H_    0.897564 0.640193 0.925708 0.164613
H17   H     H_    0.948361 0.606555 0.027874 0.094896
H18   H     H_    0.899928 0.513488 0.950353 0.151717
H19   H     H_    0.231483 0.348618 0.963847 0.167498
H20   H     H_    0.228895 0.474427 0.938046 0.171178
H21   H     H_    0.100075 0.486522 0.049642 0.151713
H22   H     H_    0.051639 0.393452 0.972125 0.094897
H23   H     H_    0.668494 0.188691 0.066087 0.152695
H24   H     H_    0.102432 0.359817 0.074294 0.164613
H25   H     H_    0.262641 0.056055 0.453543 0.134640
H26   H     H_    0.278963 0.058319 0.568311 0.135810
H27   H     H_    0.174428 0.893684 0.572818 0.176117
H28   H     H_    0.100135 0.979165 0.519732 0.086782
H29   H     H_    0.158103 0.891615 0.459045 0.170699
H30   H     H_    0.721036 0.941681 0.431687 0.135809
H31   H     H_    0.737360 0.943944 0.546455 0.134640
H32   H     H_    0.841898 0.108384 0.540953 0.170699
H33   H     H_    0.899865 0.020835 0.480264 0.086782
H34   H     H_    0.773048 0.209301 0.992537 0.095507
H35   H     H_    0.825571 0.106317 0.427180 0.176117
H36   H     H_    0.978477 0.634012 0.604008 0.316467
H37   H     H_    0.021523 0.365988 0.395991 0.316467
H38   H     H_    0.788238 0.271289 0.093460 0.168335
H39   H     H_    0.374522 0.701750 0.050587 0.167081
H40   H     H_    0.255597 0.619748 0.022130 0.168290
H41   H     H_    0.211764 0.728713 0.906539 0.168335
H42   H     H_    0.226952 0.790700 0.007462 0.095508
N1    N     N_1   0.238040 0.484880 0.486690 -0.194607
N2    N     N_1   0.761960 0.515120 0.513310 -0.194607
O1    O     O_R   0.399110 0.356330 0.494860 -0.505655
O2    O     O_3   0.372620 0.628698 0.934153 -0.572081
O3    O     O_3   0.423664 0.318422 0.934443 -0.575302
O4    O     O_3   0.576336 0.681578 0.065557 -0.575302
O5    O     O_3   0.700914 0.552594 0.943323 -0.574830
O6    O     O_3   0.299086 0.447406 0.056676 -0.574830
O7    O     O_3   0.357965 0.959537 0.506172 -0.575362
O8    O     O_3   0.642035 0.040463 0.493827 -0.575362
O9    O     O_3   0.029605 0.598350 0.576035 -0.726121
O10   O     O_3   0.970395 0.401650 0.423965 -0.726121
O11   O     O_R   0.600890 0.643670 0.505140 -0.505655
O12   O     O_R   0.575890 0.366540 0.503840 -0.470992
O13   O     O_R   0.424110 0.633460 0.496160 -0.470992
O14   O     O_R   0.411620 0.494890 0.374590 -0.493646
O15   O     O_R   0.588380 0.505110 0.625410 -0.493646
O16   O     O_R   0.588400 0.505100 0.383570 -0.483728
O17   O     O_R   0.411600 0.494900 0.616430 -0.483728
O18   O     O_3   0.627380 0.371302 0.065847 -0.572081

loop_
_geom_bond_atom_site_label_1
_geom_bond_atom_site_label_2
_ccdc_geom_bond_type
C3    O16   A    
H36   O9    S    
C41   C42   S    
C20   H12   S    
Cu2   O16   S    
C28   H13   S    
C37   H35   S    
Cu1   O1    S    
C36   C37   S    
C19   C38   T    
C9    C16   T    
C5    C11   S    
C26   H6    S    
C40   O10   S    
C11   C14   S    
C23   C39   S    
H37   O10   S    
C10   C17   T    
C4    O15   A    
C23   O8    S    
Cu1   O17   S    
C12   O11   A    
C33   C35   S    
Cu2   O15   S    
C7    C14   S    
C29   H15   S    
C30   H16   S    
C21   H34   S    
C24   H41   S    
C25   H3    S    
C20   H1    S    
C33   H25   S    
C32   H24   S    
C35   H27   S    
C21   H23   S    
C33   O7    S    
C1    O12   A    
C28   H11   S    
C20   O18   S    
C25   O3    S    
C1    C19   S    
C31   H19   S    
C2    N1    T    
C34   O7    S    
C26   H5    S    
C5    C7    S    
C28   H10   S    
C6    C8    S    
C25   C26   S    
C37   H33   S    
C13   O5    S    
C22   H40   S    
C18   C39   T    
Cu1   O13   S    
C29   C30   S    
C3    C9    S    
C36   H31   S    
C6    C14   S    
C36   O8    S    
C31   C32   S    
C23   C34   D    
C41   O9    S    
C22   O2    S    
C7    O18   S    
C27   O4    S    
C29   H14   S    
C25   H4    S    
C5    O3    S    
C36   H30   S    
C33   H26   S    
C3    O14   A    
C40   C41   D    
C37   H32   S    
C35   H28   S    
C8    C15   S    
C13   C15   S    
Cu1   Cu2   S    
C14   C16   S    
C8    O2    S    
C4    C10   S    
C27   H8    S    
C11   O6    S    
C32   H22   S    
C15   C17   S    
C35   H29   S    
C1    O1    A    
C34   C38   S    
C31   H20   S    
C27   H9    S    
C31   O6    S    
C4    O17   A    
C24   H2    S    
C22   H39   S    
C30   H18   S    
Cu1   O14   S    
Cu1   N1    S    
C12   O13   A    
C26   H7    S    
C6    C13   S    
C29   O5    S    
C21   H38   S    
Cu2   O12   S    
C8    C11   S    
C6    O4    S    
Cu2   O11   S    
C22   C24   S    
C5    C15   S    
C2    C40   S    
C7    C13   S    
C42   N2    T    
C20   C21   S    
C30   H17   S    
C12   C18   S    
C27   C28   S    
Cu2   N2    S    
C24   H42   S    
C32   H21   S    
