data_mof_unit_62387.cif
_audit_creation_date              2012-12-10T19:06:09-0500
_audit_creation_method            fapswitch 2.2
_symmetry_space_group_name_H-M    P1
_symmetry_Int_Tables_number       1
_space_group_crystal_system       triclinic
_cell_length_a                    13.070635
_cell_length_b                    13.626869
_cell_length_c                    15.730016
_cell_angle_alpha                 90.025167
_cell_angle_beta                  92.622467
_cell_angle_gamma                 85.776031
_cell_volume                      2791.15351483

loop_
_atom_site_label
_atom_site_type_symbol
_atom_type_description
_atom_site_fract_x
_atom_site_fract_y
_atom_site_fract_z
_atom_type_partial_charge
Br1   Br    Br    0.015660 0.617510 0.607351 -0.495301
Br2   Br    Br    0.984340 0.382489 0.392649 -0.495301
C1    C     C_R   0.481266 0.685129 0.499099 0.888183
C2    C     C_1   0.145439 0.480470 0.482515 0.212810
C3    C     C_R   0.499338 0.500000 0.662379 0.900244
C4    C     C_R   0.500662 0.500000 0.337621 0.900243
C5    C     C_3   0.448787 0.582652 0.026617 -0.159397
C6    C     C_3   0.551213 0.417348 0.973383 -0.159398
C7    C     C_3   0.545346 0.578968 0.973078 -0.158147
C8    C     C_3   0.454654 0.421032 0.026922 -0.158146
C9    C     C_1   0.497980 0.499927 0.751270 -0.157927
C10   C     C_1   0.502019 0.500073 0.248730 -0.157927
C11   C     C_3   0.402136 0.503630 0.969189 -0.149928
C12   C     C_R   0.518734 0.314871 0.500901 0.888182
C13   C     C_3   0.597864 0.496370 0.030811 -0.149927
C14   C     C_3   0.498701 0.499946 0.917446 0.189527
C15   C     C_3   0.501299 0.500054 0.082554 0.189527
C16   C     C_1   0.497804 0.499912 0.826563 -0.057741
C17   C     C_1   0.502196 0.500088 0.173437 -0.057741
C18   C     C_1   0.533557 0.211709 0.501622 -0.155097
C19   C     C_1   0.466443 0.788291 0.498378 -0.155097
C20   C     C_2   0.544488 0.020548 0.502151 -0.155445
C21   C     C_2   0.455512 0.979452 0.497849 -0.155445
C22   C     C_1   0.457611 0.875705 0.497950 0.028166
C23   C     C_1   0.542389 0.124295 0.502050 0.028166
C24   C     C_2   0.033482 0.473204 0.475632 0.124462
C25   C     C_2   0.966518 0.526796 0.524368 0.124462
C26   C     C_1   0.854561 0.519530 0.517485 0.212811
H1    H     H_    0.582330 0.643532 0.948869 0.149006
H2    H     H_    0.417670 0.356468 0.051131 0.149006
H3    H     H_    0.382270 0.022948 0.494306 0.172161
H4    H     H_    0.617730 0.977052 0.505694 0.172161
H5    H     H_    0.407013 0.650227 0.050574 0.147905
H6    H     H_    0.592987 0.349773 0.949426 0.147905
H7    H     H_    0.677850 0.493409 0.058174 0.154067
H8    H     H_    0.322150 0.506591 0.941825 0.154067
N1    N     N_1   0.234530 0.484780 0.486590 -0.082606
N2    N     N_1   0.765470 0.515220 0.513410 -0.082606
O1    O     O_R   0.402510 0.634760 0.495090 -0.599880
O2    O     O_R   0.597490 0.365240 0.504910 -0.599880
O3    O     O_R   0.572960 0.644530 0.503700 -0.604179
O4    O     O_R   0.427040 0.355470 0.496300 -0.604179
O5    O     O_R   0.414790 0.495120 0.618920 -0.600857
O6    O     O_R   0.585210 0.504880 0.381080 -0.600857
O7    O     O_R   0.585240 0.504900 0.627530 -0.606841
O8    O     O_R   0.414760 0.495100 0.372470 -0.606840
Zn1   Zn    Zn3+2 0.386190 0.493480 0.494250 1.016813
Zn2   Zn    Zn3+2 0.613810 0.506520 0.505750 1.016813

loop_
_geom_bond_atom_site_label_1
_geom_bond_atom_site_label_2
_ccdc_geom_bond_type
C2    C24   S    
C21   C22   S    
C9    C16   T    
C13   C15   S    
C26   N2    T    
N1    Zn1   S    
C4    O8    A    
C8    H2    S    
N2    Zn2   S    
C7    H1    S    
C12   O4    A    
C7    C13   S    
C1    O1    A    
Br2   C24   S    
C4    O6    A    
C4    C10   S    
C5    H5    S    
C24   C25   D    
C20   H4    S    
C10   C17   T    
C13   H7    S    
C15   C17   S    
O3    Zn2   S    
C3    C9    S    
C6    C13   S    
C5    C7    S    
O4    Zn1   S    
C3    O5    A    
C1    C19   S    
C18   C23   T    
C19   C22   T    
C8    C15   S    
C12   O2    A    
C12   C18   S    
C5    C11   S    
C2    N1    T    
C20   C23   S    
C11   H8    S    
C14   C16   S    
C6    C14   S    
C11   C14   S    
C25   C26   S    
Br1   C25   S    
O2    Zn2   S    
C20   C21   D    
C1    O3    A    
C6    H6    S    
C3    O7    A    
O7    Zn2   S    
O8    Zn1   S    
O1    Zn1   S    
O5    Zn1   S    
C7    C14   S    
C6    C8    S    
O6    Zn2   S    
C5    C15   S    
C8    C11   S    
C21   H3    S    
