data_mof_unit_64542.cif
_audit_creation_date              2012-12-10T19:07:08-0500
_audit_creation_method            fapswitch 2.2
_symmetry_space_group_name_H-M    P1
_symmetry_Int_Tables_number       1
_space_group_crystal_system       triclinic
_cell_length_a                    34.753015
_cell_length_b                    35.994473
_cell_length_c                    35.015099
_cell_angle_alpha                 89.92139
_cell_angle_beta                  89.99604
_cell_angle_gamma                 89.99596
_cell_volume                      43800.9222521

loop_
_atom_site_label
_atom_site_type_symbol
_atom_type_description
_atom_site_fract_x
_atom_site_fract_y
_atom_site_fract_z
_atom_type_partial_charge
C1    C     C_R   0.500019 0.349373 0.249977 0.517554
C2    C     C_R   0.999986 0.349373 0.250012 0.517395
C3    C     C_3   0.499229 0.963236 0.249911 -0.016736
C4    C     C_3   0.499271 0.536766 0.749906 -0.017082
C5    C     C_3   0.499222 0.536765 0.250085 -0.016833
C6    C     C_3   0.499276 0.463237 0.250084 -0.016868
C7    C     C_3   0.499230 0.463236 0.749911 -0.016832
C8    C     C_3   0.999271 0.036766 0.749906 -0.017070
C9    C     C_3   0.999221 0.036765 0.250092 -0.016785
C10   C     C_3   0.999267 0.963236 0.250054 -0.016870
C11   C     C_3   0.999229 0.963236 0.749912 -0.016793
C12   C     C_3   0.999272 0.536766 0.249905 -0.017081
C13   C     C_R   0.000021 0.650628 0.250022 0.517665
C14   C     C_3   0.999222 0.536765 0.750087 -0.016830
C15   C     C_3   0.999276 0.463236 0.750085 -0.016878
C16   C     C_3   0.999230 0.463236 0.249911 -0.016835
C17   C     C_3   0.969654 0.478089 0.280055 -0.104337
C18   C     C_3   0.970006 0.478147 0.719617 -0.104079
C19   C     C_3   0.969938 0.521919 0.719658 -0.104476
C20   C     C_3   0.969689 0.521862 0.280053 -0.104239
C21   C     C_3   0.969693 0.978088 0.780094 -0.104345
C22   C     C_3   0.970370 0.978167 0.219252 -0.104585
C23   C     C_3   0.970576 0.021938 0.219061 -0.103925
C24   C     C_R   0.999989 0.650627 0.749989 0.517369
C25   C     C_3   0.969729 0.021862 0.780092 -0.104250
C26   C     C_3   0.469671 0.478089 0.780072 -0.104346
C27   C     C_3   0.470062 0.478147 0.219560 -0.104080
C28   C     C_3   0.469989 0.521918 0.219606 -0.104516
C29   C     C_3   0.469706 0.521862 0.780070 -0.104253
C30   C     C_3   0.469673 0.978088 0.280073 -0.104333
C31   C     C_3   0.470097 0.978141 0.719541 -0.103890
C32   C     C_3   0.469935 0.021913 0.719662 -0.104648
C33   C     C_3   0.469708 0.021862 0.280072 -0.104245
C34   C     C_1   0.999616 0.422323 0.250015 -0.021086
C35   C     C_R   0.000019 0.849373 0.249977 0.517505
C36   C     C_1   0.999709 0.422323 0.749966 -0.021086
C37   C     C_1   0.999615 0.577678 0.749989 -0.021420
C38   C     C_1   0.999711 0.577678 0.250025 -0.021322
C39   C     C_1   0.999615 0.922323 0.750016 -0.021140
C40   C     C_1   0.999704 0.922323 0.249951 -0.021060
C41   C     C_1   0.999615 0.077678 0.249992 -0.021495
C42   C     C_1   0.999711 0.077678 0.750026 -0.021330
C43   C     C_1   0.499615 0.422323 0.750016 -0.021094
C44   C     C_1   0.499709 0.422323 0.249966 -0.021097
C45   C     C_1   0.499615 0.577678 0.249988 -0.021414
C46   C     C_R   0.999986 0.849373 0.750012 0.517167
C47   C     C_1   0.499711 0.577678 0.750026 -0.021324
C48   C     C_1   0.499615 0.922323 0.250016 -0.021216
C49   C     C_1   0.499709 0.922323 0.749969 -0.021098
C50   C     C_1   0.499615 0.077678 0.749985 -0.021409
C51   C     C_1   0.499711 0.077678 0.250026 -0.021333
C52   C     C_R   0.521417 0.276061 0.042897 -0.110400
C53   C     C_R   0.526445 0.271106 0.957056 -0.110198
C54   C     C_R   0.521177 0.723789 0.957117 -0.110385
C55   C     C_R   0.526578 0.729067 0.042905 -0.110179
C56   C     C_R   0.521417 0.776060 0.542897 -0.110384
C57   C     C_R   0.000021 0.150628 0.750022 0.517630
C58   C     C_R   0.526449 0.771101 0.457056 -0.110191
C59   C     C_R   0.521200 0.223791 0.457118 -0.110447
C60   C     C_R   0.526587 0.229092 0.542916 -0.110192
C61   C     C_R   0.021417 0.276061 0.542897 -0.110422
C62   C     C_R   0.026446 0.271104 0.457056 -0.110242
C63   C     C_R   0.021192 0.723790 0.457118 -0.110426
C64   C     C_R   0.026584 0.729083 0.542912 -0.110195
C65   C     C_R   0.021417 0.776060 0.042897 -0.110345
C66   C     C_R   0.026449 0.771101 0.957056 -0.110152
C67   C     C_R   0.021200 0.223790 0.957117 -0.110403
C68   C     C_R   0.999989 0.150627 0.249989 0.517046
C69   C     C_R   0.026588 0.229093 0.042917 -0.110083
C70   C     C_R   0.499777 0.250274 0.355137 0.501552
C71   C     C_R   0.499694 0.250226 0.644857 0.501598
C72   C     C_R   0.499759 0.749743 0.644871 0.501682
C73   C     C_R   0.499707 0.749757 0.355135 0.501550
C74   C     C_R   0.499780 0.750280 0.855136 0.501526
C75   C     C_R   0.499754 0.750272 0.144858 0.501826
C76   C     C_R   0.499758 0.249745 0.144871 0.501679
C77   C     C_R   0.499711 0.249753 0.855135 0.501576
C78   C     C_R   0.999777 0.250274 0.855137 0.501567
C79   C     C_R   0.832717 0.225951 0.274042 -0.113526
C80   C     C_R   0.999692 0.250225 0.144856 0.501635
C81   C     C_R   0.999759 0.749743 0.144871 0.501691
C82   C     C_R   0.999707 0.749757 0.855135 0.501570
C83   C     C_R   0.999777 0.750275 0.355136 0.501539
C84   C     C_R   0.999716 0.750243 0.644857 0.501669
C85   C     C_R   0.999758 0.249745 0.644871 0.501669
C86   C     C_R   0.999711 0.249753 0.355135 0.501466
C87   C     C_R   0.521418 0.274782 0.082665 -0.124741
C88   C     C_R   0.525470 0.270771 0.917278 -0.124741
C89   C     C_R   0.521244 0.725106 0.917348 -0.124810
C90   C     C_R   0.832725 0.225969 0.726015 -0.115140
C91   C     C_R   0.525673 0.729417 0.082690 -0.124807
C92   C     C_R   0.521419 0.774780 0.582665 -0.124701
C93   C     C_R   0.525468 0.770770 0.417277 -0.124728
C94   C     C_R   0.521251 0.225096 0.417348 -0.124767
C95   C     C_R   0.525596 0.229386 0.582698 -0.124698
C96   C     C_R   0.021418 0.274782 0.582665 -0.124762
C97   C     C_R   0.025471 0.270770 0.417278 -0.124790
C98   C     C_R   0.021249 0.725099 0.417348 -0.124793
C99   C     C_R   0.025623 0.729397 0.582695 -0.124728
C100  C     C_R   0.021419 0.774780 0.082665 -0.124667
C101  C     C_R   0.832717 0.774054 0.725967 -0.113137
C102  C     C_R   0.025468 0.770770 0.917277 -0.124698
C103  C     C_R   0.021251 0.225096 0.917348 -0.124738
C104  C     C_R   0.025593 0.229384 0.082698 -0.124505
C105  C     C_R   0.498607 0.249022 0.102680 0.005588
C106  C     C_R   0.498680 0.248851 0.897344 0.005790
C107  C     C_R   0.498638 0.751042 0.897341 0.005409
C108  C     C_R   0.498797 0.751227 0.102636 0.005910
C109  C     C_R   0.498612 0.749017 0.602680 0.005583
C110  C     C_R   0.498669 0.748861 0.397344 0.005792
C111  C     C_R   0.498639 0.251030 0.397341 0.005438
C112  C     C_R   0.499986 0.349373 0.750012 0.517360
C113  C     C_R   0.832718 0.774039 0.273980 -0.115128
C114  C     C_R   0.498629 0.251110 0.602633 0.005783
C115  C     C_R   0.998607 0.249023 0.602680 0.005587
C116  C     C_R   0.998679 0.248852 0.397344 0.005725
C117  C     C_R   0.998637 0.751031 0.397341 0.005427
C118  C     C_R   0.998689 0.751152 0.602634 0.005803
C119  C     C_R   0.998611 0.749017 0.102680 0.005587
C120  C     C_R   0.998668 0.748861 0.897344 0.005794
C121  C     C_R   0.998640 0.251030 0.897342 0.005441
C122  C     C_R   0.998622 0.251105 0.102633 0.005789
C123  C     C_R   0.475659 0.223307 0.081572 0.007552
C124  C     C_R   0.832717 0.725951 0.774042 -0.113498
C125  C     C_R   0.471602 0.227308 0.918467 0.009555
C126  C     C_R   0.475884 0.776905 0.918450 0.007574
C127  C     C_R   0.471540 0.772527 0.081551 0.009538
C128  C     C_R   0.475667 0.723298 0.581570 0.007539
C129  C     C_R   0.471581 0.727324 0.418470 0.009556
C130  C     C_R   0.475908 0.276907 0.418452 0.007430
C131  C     C_R   0.471366 0.272418 0.581522 0.009810
C132  C     C_R   0.975658 0.223309 0.581572 0.007537
C133  C     C_R   0.971601 0.227309 0.418467 0.009398
C134  C     C_R   0.975897 0.776902 0.418451 0.007462
C135  C     C_R   0.832725 0.725969 0.226015 -0.115137
C136  C     C_R   0.971428 0.772457 0.581532 0.009711
C137  C     C_R   0.975667 0.723298 0.081570 0.007547
C138  C     C_R   0.971581 0.727324 0.918470 0.009572
C139  C     C_R   0.975910 0.276908 0.918452 0.007443
C140  C     C_R   0.971359 0.272413 0.081520 0.009815
C141  C     C_R   0.477819 0.224269 0.041742 -0.075987
C142  C     C_R   0.472012 0.230012 0.958280 -0.074495
C143  C     C_R   0.478009 0.775910 0.958302 -0.075773
C144  C     C_R   0.471826 0.769776 0.041729 -0.075405
C145  C     C_R   0.477828 0.724261 0.541740 -0.075952
C146  C     C_R   0.832717 0.274054 0.225967 -0.113436
C147  C     C_R   0.472005 0.730023 0.458283 -0.074455
C148  C     C_R   0.478070 0.275945 0.458302 -0.075920
C149  C     C_R   0.471781 0.269716 0.541688 -0.074435
C150  C     C_R   0.977818 0.224270 0.541741 -0.076013
C151  C     C_R   0.972010 0.230014 0.458280 -0.074544
C152  C     C_R   0.978046 0.775931 0.458301 -0.075902
C153  C     C_R   0.971798 0.769739 0.541703 -0.074745
C154  C     C_R   0.977828 0.724262 0.041740 -0.075939
C155  C     C_R   0.972004 0.730023 0.958283 -0.074444
C156  C     C_R   0.978073 0.275946 0.958302 -0.075906
C157  C     C_R   0.832718 0.274039 0.773980 -0.115126
C158  C     C_R   0.971779 0.269712 0.041687 -0.074385
C159  C     C_R   0.499756 0.250610 0.021495 0.010045
C160  C     C_R   0.499560 0.250846 0.978489 0.010737
C161  C     C_R   0.499716 0.749380 0.978514 0.010025
C162  C     C_R   0.499513 0.749118 0.021512 0.010816
C163  C     C_R   0.499760 0.750607 0.521495 0.010023
C164  C     C_R   0.499561 0.750846 0.478489 0.010718
C165  C     C_R   0.499761 0.249400 0.478510 0.009787
C166  C     C_R   0.499538 0.249130 0.521505 0.010491
C167  C     C_R   0.999755 0.250610 0.521495 0.010030
C168  C     C_R   0.332717 0.225950 0.774042 -0.113463
C169  C     C_R   0.999560 0.250847 0.478489 0.010722
C170  C     C_R   0.999745 0.749393 0.478511 0.009870
C171  C     C_R   0.999530 0.749126 0.521508 0.010578
C172  C     C_R   0.999760 0.750608 0.021495 0.010029
C173  C     C_R   0.999561 0.750846 0.978489 0.010724
C174  C     C_R   0.999763 0.249400 0.978510 0.009782
C175  C     C_R   0.999539 0.249129 0.021505 0.010485
C176  C     C_R   0.395006 0.250001 0.250000 0.511351
C177  C     C_R   0.394993 0.250000 0.750001 0.512953
C178  C     C_R   0.395006 0.750001 0.750000 0.511414
C179  C     C_R   0.332725 0.225969 0.226015 -0.115147
C180  C     C_R   0.394993 0.750000 0.250001 0.513281
C181  C     C_R   0.895006 0.250001 0.750000 0.511355
C182  C     C_R   0.894993 0.250000 0.250001 0.512897
C183  C     C_R   0.895006 0.750001 0.250000 0.511358
C184  C     C_R   0.894993 0.750000 0.750001 0.513061
C185  C     C_R   0.605007 0.250000 0.249999 0.506896
C186  C     C_R   0.604993 0.249999 0.750000 0.505799
C187  C     C_R   0.605007 0.750000 0.749999 0.506866
C188  C     C_R   0.604993 0.749999 0.250000 0.505648
C189  C     C_R   0.105007 0.250000 0.749999 0.506902
C190  C     C_R   0.332717 0.774054 0.225967 -0.112679
C191  C     C_R   0.104994 0.249999 0.250000 0.505724
C192  C     C_R   0.105007 0.750000 0.249999 0.506907
C193  C     C_R   0.104994 0.749999 0.750000 0.505752
C194  C     C_R   0.707243 0.274134 0.225914 -0.111330
C195  C     C_R   0.707234 0.274077 0.774071 -0.111854
C196  C     C_R   0.707242 0.725862 0.774081 -0.111340
C197  C     C_R   0.707242 0.725917 0.225932 -0.111889
C198  C     C_R   0.707243 0.774134 0.725914 -0.111291
C199  C     C_R   0.707234 0.774077 0.274071 -0.111877
C200  C     C_R   0.707242 0.225862 0.274081 -0.111357
C201  C     C_R   0.332718 0.774039 0.773980 -0.115054
C202  C     C_R   0.707242 0.225917 0.725932 -0.111856
C203  C     C_R   0.207243 0.274134 0.725914 -0.111316
C204  C     C_R   0.207234 0.274077 0.274071 -0.111870
C205  C     C_R   0.207242 0.725862 0.274081 -0.111300
C206  C     C_R   0.207242 0.725916 0.725932 -0.111855
C207  C     C_R   0.207243 0.774134 0.225914 -0.111215
C208  C     C_R   0.207234 0.774077 0.774071 -0.111829
C209  C     C_R   0.207242 0.225862 0.774081 -0.111333
C210  C     C_R   0.207242 0.225917 0.225932 -0.111873
C211  C     C_R   0.667289 0.274060 0.225970 -0.119609
C212  C     C_R   0.332717 0.725951 0.274042 -0.113486
C213  C     C_R   0.667279 0.274007 0.774009 -0.120082
C214  C     C_R   0.667288 0.725936 0.774021 -0.119626
C215  C     C_R   0.667286 0.725985 0.225996 -0.120164
C216  C     C_R   0.667289 0.774060 0.725970 -0.119595
C217  C     C_R   0.667279 0.774007 0.274009 -0.120111
C218  C     C_R   0.667288 0.225936 0.274021 -0.119617
C219  C     C_R   0.667286 0.225985 0.725996 -0.120101
C220  C     C_R   0.167289 0.274060 0.725970 -0.119601
C221  C     C_R   0.167279 0.274007 0.274009 -0.120106
C222  C     C_R   0.167288 0.725936 0.274021 -0.119597
C223  C     C_R   0.500021 0.650628 0.750022 0.517677
C224  C     C_R   0.332725 0.725969 0.726015 -0.115121
C225  C     C_R   0.167286 0.725985 0.725996 -0.120116
C226  C     C_R   0.167289 0.774060 0.225970 -0.119545
C227  C     C_R   0.167279 0.774007 0.774009 -0.120066
C228  C     C_R   0.167288 0.225936 0.774021 -0.119603
C229  C     C_R   0.167286 0.225985 0.225996 -0.120130
C230  C     C_R   0.647062 0.249998 0.249997 0.037205
C231  C     C_R   0.647053 0.249996 0.750001 0.037256
C232  C     C_R   0.647062 0.749998 0.749997 0.037198
C233  C     C_R   0.647053 0.749996 0.250001 0.037247
C234  C     C_R   0.147062 0.249998 0.749997 0.037208
C235  C     C_R   0.332717 0.274054 0.725967 -0.113388
C236  C     C_R   0.147053 0.249996 0.250001 0.037235
C237  C     C_R   0.147062 0.749998 0.249997 0.037202
C238  C     C_R   0.147053 0.749996 0.750001 0.037252
C239  C     C_R   0.728382 0.250000 0.249999 0.041074
C240  C     C_R   0.728379 0.249999 0.750001 0.040981
C241  C     C_R   0.728382 0.749999 0.749998 0.041093
C242  C     C_R   0.728379 0.749999 0.250001 0.040973
C243  C     C_R   0.228382 0.249999 0.749998 0.041087
C244  C     C_R   0.228379 0.249999 0.250001 0.040975
C245  C     C_R   0.228382 0.749999 0.249998 0.041116
C246  C     C_R   0.332718 0.274039 0.273980 -0.115132
C247  C     C_R   0.228379 0.749999 0.750001 0.040985
C248  C     C_R   0.792763 0.225876 0.274098 -0.108765
C249  C     C_R   0.792770 0.225890 0.725962 -0.109638
C250  C     C_R   0.792764 0.774128 0.725908 -0.108600
C251  C     C_R   0.792763 0.774116 0.274034 -0.109659
C252  C     C_R   0.792763 0.725876 0.774098 -0.108718
C253  C     C_R   0.792770 0.725890 0.225962 -0.109649
C254  C     C_R   0.792764 0.274128 0.225908 -0.108699
C255  C     C_R   0.792763 0.274116 0.774034 -0.109649
C256  C     C_R   0.292763 0.225876 0.774098 -0.108719
C257  C     C_R   0.852941 0.250002 0.250003 0.037232
C258  C     C_R   0.292770 0.225890 0.225962 -0.109647
C259  C     C_R   0.292764 0.774128 0.225908 -0.108449
C260  C     C_R   0.292763 0.774116 0.774034 -0.109606
C261  C     C_R   0.292763 0.725876 0.274098 -0.108677
C262  C     C_R   0.292770 0.725890 0.725962 -0.109624
C263  C     C_R   0.292764 0.274128 0.725908 -0.108673
C264  C     C_R   0.292763 0.274116 0.274034 -0.109657
C265  C     C_2   0.448776 0.194676 0.098360 0.247517
C266  C     C_2   0.442078 0.201180 0.901813 0.246934
C267  C     C_2   0.449279 0.805813 0.901683 0.247611
C268  C     C_R   0.852949 0.250004 0.749999 0.037594
C269  C     C_2   0.442044 0.798608 0.098273 0.248965
C270  C     C_2   0.448793 0.694656 0.598357 0.247510
C271  C     C_2   0.442025 0.701224 0.401816 0.246835
C272  C     C_2   0.449272 0.305778 0.401682 0.247716
C273  C     C_2   0.441580 0.298289 0.598173 0.246979
C274  C     C_2   0.948773 0.194678 0.598360 0.247529
C275  C     C_2   0.942076 0.201183 0.401813 0.247032
C276  C     C_2   0.949268 0.805781 0.401681 0.247709
C277  C     C_2   0.941745 0.798403 0.598209 0.247641
C278  C     C_2   0.948793 0.694656 0.098357 0.247516
C279  C     C_R   0.852941 0.750002 0.750003 0.037260
C280  C     C_2   0.942025 0.701224 0.901816 0.246843
C281  C     C_2   0.949274 0.305780 0.901683 0.247723
C282  C     C_2   0.941561 0.298276 0.098169 0.246908
C283  C     C_2   0.510241 0.039120 0.177620 0.250742
C284  C     C_2   0.509752 0.038778 0.822416 0.249733
C285  C     C_2   0.509238 0.960797 0.822533 0.250962
C286  C     C_2   0.510351 0.961141 0.177670 0.249480
C287  C     C_2   0.510245 0.539120 0.677621 0.250804
C288  C     C_2   0.509521 0.538850 0.322473 0.249901
C289  C     C_2   0.509402 0.460868 0.322516 0.251047
C290  C     C_R   0.852949 0.750003 0.249999 0.037586
C291  C     C_2   0.510355 0.461141 0.677671 0.249964
C292  C     C_2   0.010191 0.039121 0.677614 0.250766
C293  C     C_2   0.007839 0.039074 0.322713 0.250130
C294  C     C_2   0.008949 0.961095 0.322519 0.250800
C295  C     C_2   0.010302 0.961141 0.677663 0.249769
C296  C     C_2   0.010286 0.539120 0.177627 0.250818
C297  C     C_2   0.009639 0.538855 0.822457 0.249913
C298  C     C_2   0.009545 0.460873 0.822494 0.251038
C299  C     C_2   0.010395 0.461141 0.177676 0.249985
C300  C     C_2   0.475957 0.038853 0.319252 0.245722
C301  C     C_R   0.352941 0.250001 0.750003 0.037273
C302  C     C_2   0.476351 0.039156 0.680562 0.246288
C303  C     C_2   0.476993 0.961268 0.680407 0.245867
C304  C     C_2   0.475882 0.960965 0.319253 0.246426
C305  C     C_2   0.475953 0.538854 0.819250 0.245788
C306  C     C_2   0.476567 0.539085 0.180491 0.246372
C307  C     C_2   0.476828 0.461195 0.180430 0.245969
C308  C     C_2   0.475878 0.460965 0.819252 0.246425
C309  C     C_2   0.976005 0.038853 0.819268 0.245756
C310  C     C_2   0.978185 0.038863 0.180019 0.246084
C311  C     C_2   0.977250 0.960975 0.180257 0.246121
C312  C     C_R   0.352949 0.250004 0.249999 0.037593
C313  C     C_2   0.975929 0.960965 0.819270 0.246426
C314  C     C_2   0.975914 0.538854 0.319237 0.245750
C315  C     C_2   0.976455 0.539081 0.680531 0.246282
C316  C     C_2   0.976692 0.461190 0.680477 0.245946
C317  C     C_2   0.975840 0.460965 0.319239 0.246407
C318  C     C_R   0.352941 0.750002 0.250003 0.037241
C319  C     C_R   0.499989 0.650627 0.249989 0.517465
C320  C     C_R   0.352949 0.750004 0.749999 0.037590
C321  C     C_R   0.771625 0.250001 0.250002 0.039366
C322  C     C_R   0.771626 0.250001 0.749999 0.039682
C323  C     C_R   0.771625 0.750001 0.750002 0.039364
C324  C     C_R   0.771626 0.750001 0.249999 0.039670
C325  C     C_R   0.271625 0.250001 0.750002 0.039381
C326  C     C_R   0.271626 0.250001 0.249999 0.039678
C327  C     C_R   0.271625 0.750001 0.250002 0.039346
C328  C     C_R   0.271626 0.750001 0.749999 0.039680
C329  C     C_3   0.539944 0.021439 0.259613 -0.247636
C330  C     C_R   0.500019 0.849373 0.749977 0.517460
C331  C     C_3   0.539995 0.021514 0.740688 -0.247522
C332  C     C_3   0.540072 0.978556 0.740890 -0.247545
C333  C     C_3   0.539907 0.978480 0.259663 -0.247528
C334  C     C_3   0.539943 0.521439 0.759616 -0.247632
C335  C     C_3   0.540020 0.521514 0.240773 -0.247479
C336  C     C_3   0.540068 0.478557 0.240839 -0.247471
C337  C     C_3   0.539906 0.478480 0.759665 -0.247545
C338  C     C_3   0.039950 0.021439 0.759586 -0.247634
C339  C     C_3   0.040193 0.021513 0.241565 -0.247497
C340  C     C_3   0.040145 0.978557 0.241203 -0.247497
C341  C     C_R   0.499986 0.849373 0.250012 0.516860
C342  C     C_3   0.039913 0.978481 0.759636 -0.247538
C343  C     C_3   0.039938 0.521439 0.259638 -0.247629
C344  C     C_3   0.040004 0.521514 0.740707 -0.247486
C345  C     C_3   0.040050 0.478557 0.740764 -0.247485
C346  C     C_3   0.039901 0.478480 0.259687 -0.247546
C347  C     C_3   0.486773 0.021940 0.209722 -0.106116
C348  C     C_3   0.486402 0.021809 0.790163 -0.105385
C349  C     C_3   0.486268 0.978070 0.790118 -0.106368
C350  C     C_3   0.486790 0.978199 0.209723 -0.105326
C351  C     C_3   0.486776 0.521940 0.709722 -0.106205
C352  C     C_R   0.500021 0.150627 0.250022 0.517628
C353  C     C_3   0.486325 0.521802 0.290148 -0.105599
C354  C     C_3   0.486305 0.478064 0.290135 -0.106251
C355  C     C_3   0.486792 0.478199 0.709722 -0.105548
C356  C     C_3   0.986746 0.021940 0.709731 -0.106162
C357  C     C_3   0.985557 0.021783 0.289894 -0.106176
C358  C     C_3   0.985895 0.978045 0.289979 -0.105704
C359  C     C_3   0.986762 0.978199 0.709732 -0.105458
C360  C     C_3   0.986799 0.521940 0.209714 -0.106216
C361  C     C_3   0.986394 0.521802 0.790171 -0.105615
C362  C     C_3   0.986381 0.478063 0.790159 -0.106241
C363  C     C_R   0.499989 0.150627 0.749989 0.517283
C364  C     C_3   0.986815 0.478199 0.209715 -0.105562
C365  C     C_1   0.999839 0.388994 0.250038 0.047315
C366  C     C_1   0.999935 0.388994 0.749928 0.047693
C367  C     C_1   0.999840 0.611007 0.749966 0.047106
C368  C     C_1   0.999937 0.611007 0.250067 0.047588
C369  C     C_1   0.999839 0.888994 0.750039 0.047161
C370  C     C_1   0.999932 0.888994 0.249922 0.047690
C371  C     C_1   0.999840 0.111007 0.249967 0.046973
C372  C     C_1   0.999937 0.111007 0.750068 0.047570
C373  C     C_1   0.499839 0.388994 0.750038 0.047299
C374  C     C_R   0.000019 0.349373 0.749977 0.517567
C375  C     C_1   0.499935 0.388994 0.249928 0.047685
C376  C     C_1   0.499840 0.611007 0.249966 0.047139
C377  C     C_1   0.499937 0.611007 0.750068 0.047591
C378  C     C_1   0.499839 0.888994 0.250038 0.046935
C379  C     C_1   0.499935 0.888994 0.749928 0.047625
C380  C     C_1   0.499840 0.111006 0.749965 0.047071
C381  C     C_1   0.499937 0.111007 0.250067 0.047554
C382  C     C_3   0.499271 0.036766 0.249906 -0.017061
C383  C     C_3   0.499221 0.036765 0.750079 -0.016835
C384  C     C_3   0.499276 0.963236 0.750089 -0.016901
H1    H     H_    0.720472 0.293510 0.206601 0.106729
H2    H     H_    0.220461 0.293404 0.293378 0.106125
H3    H     H_    0.779530 0.793476 0.293304 0.108715
H4    H     H_    0.779534 0.706509 0.793420 0.109908
H5    H     H_    0.779544 0.706528 0.206693 0.108698
H6    H     H_    0.779536 0.293495 0.206584 0.109943
H7    H     H_    0.779530 0.293476 0.793304 0.108702
H8    H     H_    0.279534 0.206509 0.793420 0.109912
H9    H     H_    0.279544 0.206528 0.206692 0.108694
H10   H     H_    0.279536 0.793495 0.206584 0.110236
H11   H     H_    0.279530 0.793476 0.793304 0.108756
H12   H     H_    0.279534 0.706509 0.293420 0.109933
H13   H     H_    0.220470 0.706487 0.293395 0.106720
H14   H     H_    0.279544 0.706528 0.706692 0.108710
H15   H     H_    0.279536 0.293495 0.706584 0.109956
H16   H     H_    0.279530 0.293476 0.293304 0.108702
H17   H     H_    0.847756 0.207021 0.292917 0.147954
H18   H     H_    0.847765 0.207053 0.707183 0.145394
H19   H     H_    0.847757 0.792985 0.707093 0.148307
H20   H     H_    0.847752 0.792956 0.292811 0.145470
H21   H     H_    0.847756 0.707021 0.792917 0.147859
H22   H     H_    0.847765 0.707053 0.207183 0.145408
H23   H     H_    0.847757 0.292984 0.207093 0.147892
H24   H     H_    0.220474 0.706592 0.706624 0.106132
H25   H     H_    0.847752 0.292956 0.792811 0.145443
H26   H     H_    0.347756 0.207021 0.792916 0.147897
H27   H     H_    0.347765 0.207053 0.207183 0.145384
H28   H     H_    0.347757 0.792985 0.207094 0.148970
H29   H     H_    0.347752 0.792956 0.792811 0.145533
H30   H     H_    0.347756 0.707021 0.292917 0.147881
H31   H     H_    0.347765 0.707053 0.707183 0.145415
H32   H     H_    0.347757 0.292984 0.707093 0.147933
H33   H     H_    0.347752 0.292956 0.292811 0.145445
H34   H     H_    0.061521 0.468166 0.238887 0.118596
H35   H     H_    0.220472 0.793510 0.206601 0.106871
H36   H     H_    0.061431 0.468269 0.761861 0.118618
H37   H     H_    0.061419 0.531830 0.761724 0.118592
H38   H     H_    0.061532 0.531728 0.238775 0.118662
H39   H     H_    0.061507 0.968166 0.738808 0.118541
H40   H     H_    0.061353 0.968021 0.262341 0.119000
H41   H     H_    0.061078 0.031578 0.263225 0.118165
H42   H     H_    0.061516 0.031728 0.738696 0.118618
H43   H     H_    0.561515 0.468166 0.738853 0.118584
H44   H     H_    0.561409 0.468274 0.261981 0.118601
H45   H     H_    0.561401 0.531836 0.261822 0.118588
H46   H     H_    0.220460 0.793404 0.793378 0.106167
H47   H     H_    0.561525 0.531728 0.738741 0.118646
H48   H     H_    0.561514 0.968166 0.238849 0.118483
H49   H     H_    0.561359 0.968355 0.762115 0.118455
H50   H     H_    0.561439 0.031915 0.761624 0.118707
H51   H     H_    0.561524 0.031728 0.238738 0.118591
H52   H     H_    0.456460 0.030968 0.204980 0.151047
H53   H     H_    0.456087 0.030920 0.794739 0.150965
H54   H     H_    0.455856 0.969121 0.794440 0.150851
H55   H     H_    0.456490 0.969167 0.204915 0.150767
H56   H     H_    0.456463 0.530968 0.704977 0.151137
H57   H     H_    0.220470 0.206487 0.793395 0.106713
H58   H     H_    0.455966 0.530841 0.294624 0.150911
H59   H     H_    0.455920 0.469040 0.294531 0.150967
H60   H     H_    0.456492 0.469167 0.704913 0.150934
H61   H     H_    0.956429 0.030968 0.705009 0.151095
H62   H     H_    0.955028 0.030592 0.293658 0.150488
H63   H     H_    0.955563 0.968793 0.294207 0.151151
H64   H     H_    0.956459 0.969166 0.704944 0.150865
H65   H     H_    0.956488 0.530968 0.204953 0.151139
H66   H     H_    0.956041 0.530836 0.794694 0.150903
H67   H     H_    0.956008 0.469035 0.794614 0.150985
H68   H     H_    0.220474 0.206592 0.206624 0.106133
H69   H     H_    0.956518 0.469167 0.204889 0.150941
H70   H     H_    0.440531 0.030912 0.270655 0.148379
H71   H     H_    0.440649 0.030787 0.728918 0.148194
H72   H     H_    0.440809 0.968986 0.728517 0.148425
H73   H     H_    0.440490 0.969109 0.270637 0.148263
H74   H     H_    0.440529 0.530912 0.770652 0.148431
H75   H     H_    0.440687 0.530865 0.228758 0.148310
H76   H     H_    0.440767 0.469063 0.228618 0.148373
H77   H     H_    0.440489 0.469109 0.770634 0.148344
H78   H     H_    0.940545 0.030912 0.770695 0.148398
H79   H     H_    0.549636 0.031721 0.287907 0.118980
H80   H     H_    0.941131 0.031111 0.227499 0.148430
H81   H     H_    0.940963 0.969310 0.228174 0.148091
H82   H     H_    0.940504 0.969109 0.770677 0.148301
H83   H     H_    0.940518 0.530912 0.270618 0.148422
H84   H     H_    0.940653 0.530870 0.728855 0.148290
H85   H     H_    0.940729 0.469068 0.728732 0.148361
H86   H     H_    0.940477 0.469109 0.270601 0.148340
H87   H     H_    0.440697 0.193366 0.127853 0.173888
H88   H     H_    0.441244 0.192855 0.872422 0.176420
H89   H     H_    0.441613 0.807509 0.872095 0.174564
H90   H     H_    0.549820 0.031745 0.712388 0.118809
H91   H     H_    0.443731 0.809715 0.127139 0.172062
H92   H     H_    0.440779 0.693288 0.627863 0.173971
H93   H     H_    0.441063 0.693029 0.372397 0.176473
H94   H     H_    0.441377 0.307275 0.372148 0.174231
H95   H     H_    0.440807 0.306746 0.627564 0.176036
H96   H     H_    0.940695 0.193369 0.627853 0.173892
H97   H     H_    0.941243 0.192857 0.372423 0.176554
H98   H     H_    0.941415 0.807314 0.372136 0.174327
H99   H     H_    0.941850 0.807806 0.627413 0.175093
H100  H     H_    0.940779 0.693288 0.127863 0.173967
H101  H     H_    0.550192 0.968183 0.712769 0.119178
H102  H     H_    0.941063 0.693029 0.872397 0.176469
H103  H     H_    0.941384 0.307280 0.872148 0.174224
H104  H     H_    0.940692 0.306629 0.127580 0.176100
H105  H     H_    0.541056 0.034646 0.175969 0.099160
H106  H     H_    0.540529 0.034098 0.824287 0.099484
H107  H     H_    0.540040 0.965217 0.824627 0.099250
H108  H     H_    0.541145 0.965760 0.176028 0.099583
H109  H     H_    0.541060 0.534646 0.675971 0.099235
H110  H     H_    0.540318 0.534287 0.324426 0.099520
H111  H     H_    0.540197 0.465404 0.324561 0.099208
H112  H     H_    0.720461 0.293404 0.793378 0.106128
H113  H     H_    0.549531 0.968159 0.287992 0.119014
H114  H     H_    0.541150 0.465760 0.676030 0.099568
H115  H     H_    0.041005 0.034646 0.675941 0.099181
H116  H     H_    0.038640 0.034868 0.325317 0.099649
H117  H     H_    0.039664 0.965990 0.324801 0.099134
H118  H     H_    0.041096 0.965761 0.676000 0.099554
H119  H     H_    0.041102 0.534645 0.175994 0.099255
H120  H     H_    0.040439 0.534299 0.824359 0.099538
H121  H     H_    0.040341 0.465416 0.824480 0.099217
H122  H     H_    0.041191 0.465759 0.176053 0.099578
H123  H     H_    0.502623 0.034335 0.334595 0.099778
H124  H     H_    0.549634 0.531721 0.787910 0.119003
H125  H     H_    0.503159 0.034890 0.665386 0.099942
H126  H     H_    0.503802 0.966044 0.665384 0.099679
H127  H     H_    0.502490 0.965495 0.334672 0.099958
H128  H     H_    0.502618 0.534335 0.834595 0.099793
H129  H     H_    0.503404 0.534712 0.165389 0.099863
H130  H     H_    0.503631 0.465864 0.165347 0.099687
H131  H     H_    0.502486 0.465496 0.834672 0.099969
H132  H     H_    0.002681 0.034335 0.834593 0.099809
H133  H     H_    0.005293 0.034147 0.165515 0.099691
H134  H     H_    0.004215 0.965299 0.165358 0.099842
H135  H     H_    0.549955 0.531827 0.212537 0.118952
H136  H     H_    0.002548 0.965495 0.834669 0.099985
H137  H     H_    0.002570 0.534335 0.334597 0.099785
H138  H     H_    0.003266 0.534699 0.665386 0.099864
H139  H     H_    0.003465 0.465852 0.665343 0.099694
H140  H     H_    0.002438 0.465496 0.334673 0.099961
H141  H     H_    0.550110 0.468264 0.212651 0.119039
H142  H     H_    0.549529 0.468159 0.787995 0.119029
H143  H     H_    0.049662 0.031721 0.787874 0.118999
H144  H     H_    0.050834 0.032079 0.213682 0.119345
H145  H     H_    0.050302 0.968519 0.212964 0.118631
H146  H     H_    0.049557 0.968159 0.787959 0.119030
H147  H     H_    0.049612 0.531720 0.287938 0.119004
H148  H     H_    0.720470 0.706487 0.793395 0.106705
H149  H     H_    0.049894 0.531833 0.712458 0.118957
H150  H     H_    0.050035 0.468269 0.712555 0.119032
H151  H     H_    0.049508 0.468159 0.288022 0.119030
H152  H     H_    0.538535 0.297546 0.029527 0.113218
H153  H     H_    0.548887 0.287408 0.970385 0.111882
H154  H     H_    0.538084 0.702138 0.970513 0.113398
H155  H     H_    0.549147 0.712936 0.029519 0.111890
H156  H     H_    0.538532 0.797547 0.529527 0.113236
H157  H     H_    0.548894 0.787398 0.470384 0.111913
H158  H     H_    0.538097 0.202136 0.470522 0.113358
H159  H     H_    0.720474 0.706592 0.206624 0.106120
H160  H     H_    0.549198 0.213003 0.529541 0.111981
H161  H     H_    0.038535 0.297546 0.529527 0.113203
H162  H     H_    0.048889 0.287406 0.470385 0.111864
H163  H     H_    0.038094 0.702138 0.470519 0.113369
H164  H     H_    0.049180 0.712980 0.529534 0.111944
H165  H     H_    0.038531 0.797548 0.029527 0.113275
H166  H     H_    0.048894 0.787398 0.970384 0.111956
H167  H     H_    0.038097 0.202135 0.970522 0.113441
H168  H     H_    0.049200 0.213006 0.029542 0.112055
H169  H     H_    0.539272 0.294550 0.097905 0.146060
H170  H     H_    0.720472 0.793510 0.706601 0.106785
H171  H     H_    0.546315 0.287610 0.901993 0.145101
H172  H     H_    0.538969 0.705223 0.902102 0.145973
H173  H     H_    0.546621 0.712682 0.097965 0.144984
H174  H     H_    0.539270 0.794551 0.597905 0.146094
H175  H     H_    0.546317 0.787603 0.401992 0.145120
H176  H     H_    0.538966 0.205206 0.402100 0.145963
H177  H     H_    0.546567 0.212684 0.597982 0.145011
H178  H     H_    0.039272 0.294550 0.597904 0.146043
H179  H     H_    0.046317 0.287608 0.401993 0.145088
H180  H     H_    0.038967 0.705211 0.402101 0.145960
H181  H     H_    0.720460 0.793404 0.293378 0.106133
H182  H     H_    0.046587 0.712684 0.597976 0.145003
H183  H     H_    0.039269 0.794551 0.097905 0.146112
H184  H     H_    0.046317 0.787603 0.901992 0.145141
H185  H     H_    0.038965 0.205205 0.902100 0.145990
H186  H     H_    0.046565 0.212684 0.097983 0.145164
H187  H     H_    0.461800 0.203240 0.027134 0.171898
H188  H     H_    0.449674 0.215274 0.972906 0.169789
H189  H     H_    0.462222 0.797083 0.972979 0.171210
H190  H     H_    0.449443 0.784497 0.027099 0.169061
H191  H     H_    0.461821 0.703225 0.527129 0.171983
H192  H     H_    0.720470 0.206487 0.293395 0.106710
H193  H     H_    0.449659 0.715299 0.472914 0.169834
H194  H     H_    0.462309 0.297139 0.472985 0.171998
H195  H     H_    0.449293 0.284223 0.526996 0.169818
H196  H     H_    0.961799 0.203240 0.527133 0.171899
H197  H     H_    0.949671 0.215278 0.472906 0.169798
H198  H     H_    0.962272 0.797115 0.472981 0.171687
H199  H     H_    0.949348 0.784323 0.527033 0.169646
H200  H     H_    0.961821 0.703225 0.027129 0.171987
H201  H     H_    0.949659 0.715300 0.972914 0.169831
H202  H     H_    0.962314 0.297142 0.972987 0.172036
H203  H     H_    0.720474 0.206592 0.706624 0.106128
H204  H     H_    0.949286 0.284210 0.026992 0.169838
H205  H     H_    0.652251 0.292998 0.207105 0.139553
H206  H     H_    0.652241 0.292907 0.792858 0.139174
H207  H     H_    0.652250 0.706996 0.792884 0.139534
H208  H     H_    0.652253 0.707084 0.207148 0.139133
H209  H     H_    0.652251 0.792998 0.707105 0.139574
H210  H     H_    0.652241 0.792906 0.292858 0.139177
H211  H     H_    0.652250 0.206996 0.292884 0.139541
H212  H     H_    0.652253 0.207084 0.707148 0.139150
H213  H     H_    0.152251 0.292998 0.707105 0.139552
H214  H     H_    0.220472 0.293510 0.706601 0.106736
H215  H     H_    0.152241 0.292907 0.292858 0.139169
H216  H     H_    0.152250 0.706996 0.292884 0.139545
H217  H     H_    0.152253 0.707084 0.707148 0.139148
H218  H     H_    0.152251 0.792998 0.207105 0.139605
H219  H     H_    0.152240 0.792907 0.792858 0.139198
H220  H     H_    0.152250 0.206996 0.792884 0.139549
H221  H     H_    0.152253 0.207084 0.207148 0.139177
H222  H     H_    0.779534 0.206509 0.293421 0.109929
H223  H     H_    0.779544 0.206528 0.706692 0.108702
H224  H     H_    0.779536 0.793495 0.706584 0.110057
O1    O     O_3   0.500000 0.250000 0.250000 -0.442936
O2    O     O_R   0.522740 0.331980 0.772760 -0.538882
O3    O     O_R   0.977270 0.668020 0.772710 -0.528664
O4    O     O_R   0.977270 0.831980 0.272710 -0.527206
O5    O     O_R   0.977270 0.831980 0.727290 -0.529126
O6    O     O_R   0.977270 0.168020 0.727290 -0.526945
O7    O     O_R   0.977270 0.168020 0.272710 -0.528804
O8    O     O_2   0.433590 0.171235 0.078189 -0.481159
O9    O     O_2   0.417477 0.186905 0.921886 -0.490577
O10   O     O_2   0.433918 0.829071 0.921929 -0.481624
O11   O     O_2   0.414807 0.809744 0.078824 -0.488180
O12   O     O_2   0.433546 0.671265 0.578171 -0.481105
O13   O     O_R   0.522740 0.668020 0.772760 -0.539932
O14   O     O_2   0.417526 0.686835 0.421927 -0.490475
O15   O     O_2   0.434128 0.329204 0.421874 -0.480904
O16   O     O_2   0.416680 0.312149 0.578132 -0.490792
O17   O     O_2   0.933586 0.171238 0.578189 -0.481094
O18   O     O_2   0.917474 0.186909 0.421886 -0.490293
O19   O     O_2   0.934085 0.829178 0.421882 -0.481093
O20   O     O_2   0.916012 0.811290 0.578379 -0.490304
O21   O     O_2   0.933545 0.671265 0.078171 -0.481110
O22   O     O_2   0.917526 0.686835 0.921927 -0.490495
O23   O     O_2   0.934125 0.329202 0.921876 -0.480906
O24   O     O_R   0.522740 0.668020 0.227240 -0.538681
O25   O     O_2   0.916754 0.312242 0.078104 -0.490816
O26   O     O_2   0.494667 0.058182 0.153281 -0.452914
O27   O     O_2   0.494130 0.057897 0.846626 -0.458984
O28   O     O_2   0.493277 0.941721 0.846615 -0.453035
O29   O     O_2   0.494886 0.942021 0.153374 -0.461229
O30   O     O_2   0.494673 0.558182 0.653280 -0.452737
O31   O     O_2   0.493754 0.557909 0.346646 -0.458654
O32   O     O_2   0.493553 0.441732 0.346628 -0.452577
O33   O     O_2   0.494892 0.442021 0.653374 -0.459161
O34   O     O_2   0.994601 0.058182 0.653285 -0.452816
O35   O     O_R   0.522740 0.831980 0.727240 -0.539767
O36   O     O_2   0.991321 0.057947 0.346544 -0.458505
O37   O     O_2   0.993153 0.941768 0.346500 -0.452850
O38   O     O_2   0.994821 0.942021 0.653378 -0.459937
O39   O     O_2   0.994728 0.558182 0.153277 -0.452716
O40   O     O_2   0.993908 0.557909 0.846655 -0.458651
O41   O     O_2   0.993749 0.441733 0.846636 -0.452597
O42   O     O_2   0.994946 0.442021 0.153371 -0.459074
O43   O     O_2   0.450944 0.057923 0.333953 -0.472605
O44   O     O_2   0.451318 0.058154 0.665741 -0.471646
O45   O     O_2   0.452333 0.942000 0.665377 -0.472641
O46   O     O_R   0.522740 0.831980 0.272760 -0.538804
O47   O     O_2   0.450891 0.941767 0.333874 -0.471764
O48   O     O_2   0.450939 0.557923 0.833950 -0.472403
O49   O     O_2   0.451632 0.558138 0.165574 -0.471195
O50   O     O_2   0.452073 0.441977 0.165474 -0.472485
O51   O     O_2   0.450887 0.441767 0.833872 -0.471660
O52   O     O_2   0.951001 0.057922 0.833986 -0.472535
O53   O     O_2   0.953778 0.058085 0.164479 -0.471672
O54   O     O_2   0.952413 0.941925 0.165214 -0.472562
O55   O     O_2   0.950948 0.941767 0.833908 -0.471720
O56   O     O_2   0.950891 0.557924 0.333922 -0.472510
O57   O     O_R   0.522740 0.168020 0.272760 -0.539979
O58   O     O_2   0.951502 0.558138 0.665653 -0.471468
O59   O     O_2   0.951905 0.441975 0.665571 -0.472540
O60   O     O_2   0.950840 0.441766 0.333844 -0.471693
O61   O     O_R   0.522740 0.168020 0.727240 -0.538879
O62   O     O_R   0.022740 0.331980 0.727240 -0.539835
O63   O     O_R   0.022740 0.331980 0.272760 -0.538872
O64   O     O_R   0.022740 0.668020 0.272760 -0.539954
O65   O     O_3   0.500000 0.250000 0.750000 -0.443055
O66   O     O_R   0.022740 0.668020 0.727240 -0.538788
O67   O     O_R   0.022740 0.831980 0.227240 -0.539833
O68   O     O_R   0.022740 0.831980 0.772760 -0.538849
O69   O     O_R   0.022740 0.168020 0.772760 -0.539966
O70   O     O_R   0.022740 0.168020 0.227240 -0.538589
O71   O     O_R   0.477260 0.271490 0.336720 -0.574915
O72   O     O_R   0.477260 0.271490 0.663280 -0.574697
O73   O     O_R   0.477260 0.728510 0.663280 -0.574893
O74   O     O_R   0.477260 0.728510 0.336720 -0.574953
O75   O     O_R   0.477260 0.771490 0.836720 -0.575022
O76   O     O_3   0.500000 0.750000 0.750000 -0.442928
O77   O     O_R   0.477260 0.771490 0.163280 -0.573121
O78   O     O_R   0.477260 0.228510 0.163280 -0.574852
O79   O     O_R   0.477260 0.228510 0.836720 -0.574859
O80   O     O_R   0.977260 0.271490 0.836720 -0.574914
O81   O     O_R   0.977260 0.271490 0.163280 -0.574763
O82   O     O_R   0.977260 0.728510 0.163280 -0.574890
O83   O     O_R   0.977260 0.728510 0.836720 -0.574924
O84   O     O_R   0.977260 0.771490 0.336720 -0.574930
O85   O     O_R   0.977260 0.771490 0.663280 -0.574266
O86   O     O_R   0.977260 0.228510 0.663280 -0.574851
O87   O     O_3   0.500000 0.750000 0.250000 -0.443206
O88   O     O_R   0.977260 0.228510 0.336720 -0.574889
O89   O     O_R   0.413270 0.271490 0.272730 -0.547100
O90   O     O_R   0.413270 0.271490 0.727270 -0.545743
O91   O     O_R   0.413270 0.728510 0.727270 -0.547259
O92   O     O_R   0.413270 0.728510 0.272730 -0.545866
O93   O     O_R   0.413270 0.771490 0.772730 -0.546994
O94   O     O_R   0.413270 0.771490 0.227270 -0.544281
O95   O     O_R   0.413270 0.228510 0.227270 -0.547287
O96   O     O_R   0.413270 0.228510 0.772730 -0.545674
O97   O     O_R   0.913270 0.271490 0.772730 -0.547100
O98   O     O_3   1.000000 0.250000 0.750000 -0.442939
O99   O     O_R   0.913270 0.271490 0.227270 -0.545802
O100  O     O_R   0.913270 0.728510 0.227270 -0.547266
O101  O     O_R   0.913270 0.728510 0.772730 -0.545793
O102  O     O_R   0.913270 0.771490 0.272730 -0.547084
O103  O     O_R   0.913270 0.771490 0.727270 -0.545214
O104  O     O_R   0.913270 0.228510 0.727270 -0.547283
O105  O     O_R   0.913270 0.228510 0.272730 -0.545634
O106  O     O_R   0.586730 0.271480 0.227250 -0.547381
O107  O     O_R   0.586730 0.271480 0.772750 -0.548113
O108  O     O_R   0.586730 0.728520 0.772750 -0.547411
O109  O     O_3   1.000000 0.250000 0.250000 -0.443078
O110  O     O_R   0.586730 0.728520 0.227250 -0.548297
O111  O     O_R   0.586730 0.771480 0.727250 -0.547384
O112  O     O_R   0.586730 0.771480 0.272750 -0.548150
O113  O     O_R   0.586730 0.228520 0.272750 -0.547382
O114  O     O_R   0.586730 0.228520 0.727250 -0.548137
O115  O     O_R   0.086730 0.271480 0.727250 -0.547380
O116  O     O_R   0.086730 0.271480 0.272750 -0.548141
O117  O     O_R   0.086730 0.728520 0.272750 -0.547387
O118  O     O_R   0.086730 0.728520 0.727250 -0.548196
O119  O     O_R   0.086730 0.771480 0.227250 -0.547359
O120  O     O_3   0.000000 0.750000 0.250000 -0.442942
O121  O     O_R   0.086730 0.771480 0.772750 -0.548112
O122  O     O_R   0.086730 0.228520 0.772750 -0.547377
O123  O     O_R   0.086730 0.228520 0.227250 -0.548160
O124  O     O_R   0.522730 0.228500 0.336720 -0.536568
O125  O     O_R   0.522730 0.228500 0.663280 -0.536264
O126  O     O_R   0.522730 0.771500 0.663280 -0.536538
O127  O     O_R   0.522730 0.771500 0.336720 -0.536279
O128  O     O_R   0.522730 0.728500 0.836720 -0.536557
O129  O     O_R   0.522730 0.728500 0.163280 -0.536471
O130  O     O_R   0.522730 0.271500 0.163280 -0.536576
O131  O     O_3   0.000000 0.750000 0.750000 -0.443101
O132  O     O_R   0.522730 0.271500 0.836720 -0.536315
O133  O     O_R   0.022730 0.228500 0.836720 -0.536558
O134  O     O_R   0.022730 0.228500 0.163280 -0.536106
O135  O     O_R   0.022730 0.771500 0.163280 -0.536539
O136  O     O_R   0.022730 0.771500 0.836720 -0.536284
O137  O     O_R   0.022730 0.728500 0.336720 -0.536576
O138  O     O_R   0.022730 0.728500 0.663280 -0.536313
O139  O     O_R   0.022730 0.271500 0.663280 -0.536587
O140  O     O_R   0.022730 0.271500 0.336720 -0.536334
O141  O     O_R   0.477270 0.331980 0.272710 -0.527200
O142  O     O_R   0.522740 0.331980 0.227240 -0.539817
O143  O     O_R   0.477270 0.331980 0.727290 -0.528678
O144  O     O_R   0.477270 0.668020 0.727290 -0.526965
O145  O     O_R   0.477270 0.668020 0.272710 -0.528631
O146  O     O_R   0.477270 0.831980 0.772710 -0.527382
O147  O     O_R   0.477270 0.831980 0.227290 -0.529859
O148  O     O_R   0.477270 0.168020 0.227290 -0.526950
O149  O     O_R   0.477270 0.168020 0.772710 -0.528748
O150  O     O_R   0.977270 0.331980 0.772710 -0.527202
O151  O     O_R   0.977270 0.331980 0.227290 -0.528624
O152  O     O_R   0.977270 0.668020 0.227290 -0.526969
Zn1   Zn    Zn3+2 0.532480 0.219280 0.282480 0.951837
Zn2   Zn    Zn3+2 0.032480 0.219280 0.217520 0.951582
Zn3   Zn    Zn3+2 0.032480 0.780720 0.217520 0.951966
Zn4   Zn    Zn3+2 0.032480 0.780720 0.782480 0.951310
Zn5   Zn    Zn3+2 0.032480 0.719280 0.282480 0.951858
Zn6   Zn    Zn3+2 0.032480 0.719280 0.717520 0.951461
Zn7   Zn    Zn3+2 0.032480 0.280720 0.717520 0.951920
Zn8   Zn    Zn3+2 0.032480 0.280720 0.282480 0.951316
Zn9   Zn    Zn3+2 0.467510 0.280710 0.282470 0.953026
Zn10  Zn    Zn3+2 0.467510 0.280710 0.717530 0.954192
Zn11  Zn    Zn3+2 0.467510 0.719290 0.717530 0.953187
Zn12  Zn    Zn3+2 0.532480 0.219280 0.717520 0.951417
Zn13  Zn    Zn3+2 0.467510 0.719290 0.282470 0.954332
Zn14  Zn    Zn3+2 0.467510 0.780710 0.782470 0.952936
Zn15  Zn    Zn3+2 0.467510 0.780710 0.217530 0.954993
Zn16  Zn    Zn3+2 0.467510 0.219290 0.217530 0.953132
Zn17  Zn    Zn3+2 0.467510 0.219290 0.782470 0.954090
Zn18  Zn    Zn3+2 0.967510 0.280710 0.782470 0.953033
Zn19  Zn    Zn3+2 0.967510 0.280710 0.217530 0.954165
Zn20  Zn    Zn3+2 0.967510 0.719290 0.217530 0.953147
Zn21  Zn    Zn3+2 0.967510 0.719290 0.782470 0.954167
Zn22  Zn    Zn3+2 0.967510 0.780710 0.282470 0.953014
Zn23  Zn    Zn3+2 0.532480 0.780720 0.717520 0.951928
Zn24  Zn    Zn3+2 0.967510 0.780710 0.717530 0.954407
Zn25  Zn    Zn3+2 0.967510 0.219290 0.717530 0.953142
Zn26  Zn    Zn3+2 0.967510 0.219290 0.282470 0.953991
Zn27  Zn    Zn3+2 0.532480 0.780720 0.282480 0.951062
Zn28  Zn    Zn3+2 0.532480 0.719280 0.782480 0.951846
Zn29  Zn    Zn3+2 0.532480 0.719280 0.217520 0.951441
Zn30  Zn    Zn3+2 0.532480 0.280720 0.217520 0.951934
Zn31  Zn    Zn3+2 0.532480 0.280720 0.782480 0.951410
Zn32  Zn    Zn3+2 0.032480 0.219280 0.782480 0.951869

loop_
_geom_bond_atom_site_label_1
_geom_bond_atom_site_label_2
_ccdc_geom_bond_type
O65   Zn10  S    
C338  H42   S    
C360  C364  S    
C76   C105  S    
C153  H199  S    
C347  C382  S    
C15   C345  S    
C24   O3    A    
C132  C150  A    
C101  C250  A    
C133  C151  A    
C68   O7    A    
C82   C120  S    
C58   C164  A    
C224  H31   S    
C190  C318  A    
O4    Zn22  S    
C334  H124  S    
C149  H195  S    
C184  C279  S    
C193  O121  A    
C299  O42   D    
O120  Zn5   S    
C242  C324  S    
C43   C373  T    
O97   Zn18  S    
C342  H146  S    
C209  H57   S    
C7    C337  S    
C5    C353  S    
C131  C273  S    
C63   C98   A    
C280  H102  S    
C147  C164  A    
C157  C255  A    
C208  C227  A    
C291  C355  S    
C128  C145  A    
C343  H38   S    
C75   O77   A    
C202  H203  S    
C20   C314  S    
C311  H134  S    
C273  O16   D    
C94   C111  A    
C335  H135  S    
C288  C353  S    
C105  C123  A    
C311  O54   D    
C10   C40   S    
C336  H141  S    
O130  Zn30  S    
C229  H221  S    
C49   C384  S    
O72   Zn10  S    
C84   O138  A    
C46   C369  S    
C32   C302  S    
C363  O149  A    
C357  C358  S    
C352  O148  A    
C53   C160  A    
C215  C233  A    
C341  O46   A    
C276  O19   D    
C2    O151  A    
C212  C318  A    
O136  Zn4   S    
C135  H22   S    
O99   Zn19  S    
C344  H149  S    
C267  H89   S    
C280  O22   D    
C248  C321  A    
C293  O36   D    
O80   Zn18  S    
C93   C110  A    
C225  C238  A    
C287  H109  S    
C198  C216  A    
C309  H132  S    
O145  Zn13  S    
O124  Zn1   S    
C146  C254  A    
C78   O80   A    
C148  C165  A    
C366  C374  S    
C28   C306  S    
C190  C259  A    
C112  O2    A    
C33   C382  S    
O76   Zn28  S    
C179  C258  A    
C101  C279  A    
C353  C354  S    
O131  Zn6   S    
O83   Zn21  S    
O132  Zn31  S    
O88   Zn26  S    
O128  Zn28  S    
C46   O5    A    
C197  C242  A    
C73   O127  A    
C68   C371  S    
C76   O130  A    
C146  H23   S    
C201  C320  A    
C211  H205  S    
C220  H213  S    
C157  H25   S    
C357  H62   S    
O65   Zn31  S    
C217  C233  A    
C266  O9    D    
O1    Zn1   S    
C116  C133  A    
C253  C324  A    
C191  C236  S    
C308  H131  S    
O109  Zn26  S    
C356  C359  S    
C86   O140  A    
C207  H35   S    
C346  H151  S    
C119  C137  A    
O64   Zn5   S    
C271  H93   S    
C259  C327  A    
C141  H187  S    
O142  Zn30  S    
C296  C360  S    
C152  C170  A    
C349  H54   S    
C111  C130  A    
C156  C174  A    
C12   C20   S    
C284  O27   D    
C341  C378  S    
C292  C356  S    
C269  H91   S    
C74   O128  A    
O109  Zn8   S    
O86   Zn25  S    
O129  Zn29  S    
C6    C354  S    
C288  O31   D    
C307  H130  S    
C346  H34   S    
C221  C236  A    
C200  C218  A    
C332  C384  S    
C131  C149  A    
C120  C138  A    
C103  C121  A    
C283  O26   D    
C249  C322  A    
C118  C136  A    
C261  H12   S    
C178  O93   A    
C82   O136  A    
C281  H103  S    
C315  H138  S    
C138  C280  S    
C258  H9    S    
C128  C270  S    
C14   C19   S    
C24   O66   A    
O7    Zn26  S    
O115  Zn7   S    
C263  C325  A    
C224  C262  A    
C246  H33   S    
C306  H129  S    
C246  C312  A    
C1    O142  A    
C81   C119  S    
C205  C245  A    
C196  H148  S    
C52   H152  S    
C196  C241  A    
C223  O144  A    
C251  H3    S    
C83   C117  S    
C64   C171  A    
O67   Zn3   S    
C235  H32   S    
C198  H170  S    
C201  C260  A    
C206  H24   S    
C294  C358  S    
C31   C303  S    
C298  O41   D    
C55   H155  S    
C136  C153  A    
C227  C238  A    
C334  C337  S    
C24   C367  S    
C229  C236  A    
C277  O20   D    
C314  H137  S    
C76   O78   A    
C348  C349  S    
C363  O61   A    
C315  O58   D    
C314  O56   D    
O93   Zn14  S    
C351  C355  S    
O6    Zn25  S    
C339  H144  S    
C92   C109  A    
C59   H158  S    
C97   H179  S    
C17   H86   S    
C27   H76   S    
C329  H51   S    
C60   C95   A    
O87   Zn29  S    
O35   Zn23  S    
C272  O15   D    
C332  H101  S    
C100  H183  S    
C22   C23   S    
O71   Zn9   S    
C258  C326  A    
C38   C368  T    
O46   Zn27  S    
C143  C161  A    
C188  C233  S    
C199  C242  A    
O103  Zn24  S    
C260  H11   S    
C202  C219  A    
C15   C18   S    
O98   Zn32  S    
C85   O86   A    
C319  C376  S    
C211  C230  A    
C26   C308  S    
C204  C221  A    
C3    C30   S    
C4    C351  S    
C200  C239  A    
C335  H45   S    
C210  H68   S    
C356  H61   S    
C271  O14   D    
O66   Zn6   S    
C194  H1    S    
O79   Zn17  S    
C267  O10   D    
C249  H223  S    
C61   C96   A    
C67   C103  A    
C73   C110  S    
C167  C169  S    
C180  C318  S    
O98   Zn7   S    
C185  C230  S    
C106  C125  A    
O91   Zn11  S    
O70   Zn2   S    
C7    C26   S    
C297  C361  S    
C83   O84   A    
C239  C321  S    
C18   C316  S    
C77   C106  S    
O68   Zn4   S    
C81   O82   A    
C300  O43   D    
C348  H53   S    
C202  C240  A    
C218  H211  S    
O82   Zn20  S    
C351  H56   S    
C18   H85   S    
C57   O69   A    
C170  C171  S    
C67   C174  A    
C329  C382  S    
C62   C97   A    
C317  O60   D    
O5    Zn24  S    
C130  C272  S    
C110  C129  A    
C289  C354  S    
C30   H73   S    
C123  C265  S    
C174  C175  S    
O120  Zn20  S    
O109  Zn2   S    
C16   C34   S    
C74   C107  S    
C93   H175  S    
C64   C99   A    
C285  H107  S    
O109  Zn19  S    
C27   C307  S    
O123  Zn2   S    
C82   O83   A    
C186  O107  A    
C55   C91   A    
C360  H65   S    
C53   H153  S    
C217  H210  S    
C209  C228  A    
C7    C43   S    
C158  H204  S    
O138  Zn6   S    
C13   O64   A    
C213  C231  A    
O137  Zn5   S    
C56   H156  S    
C330  C379  S    
C143  H189  S    
C316  O59   D    
C226  C237  A    
C86   O88   A    
C127  C144  A    
C270  H92   S    
C363  C380  S    
C265  O8    D    
C61   H161  S    
C207  C245  A    
C10   C340  S    
C135  C290  A    
C3    C350  S    
C115  C132  A    
C277  H99   S    
C142  C160  A    
C212  C261  A    
C183  O102  A    
C129  C147  A    
C16   C364  S    
C65   C172  A    
C208  H46   S    
C79   C257  A    
C228  H220  S    
C9    C357  S    
C253  H5    S    
C34   C365  T    
O106  Zn30  S    
C63   C170  A    
C11   C359  S    
C145  C163  A    
C331  H90   S    
C282  H104  S    
C294  H117  S    
C98   H180  S    
C187  O108  A    
C200  H192  S    
C35   O67   A    
C335  C336  S    
C189  O122  A    
C295  O38   D    
C51   C381  T    
C185  O106  A    
C278  O21   D    
C354  H59   S    
C289  H111  S    
C23   H80   S    
C181  C268  S    
C196  C214  A    
C245  C327  S    
C207  C226  A    
O87   Zn27  S    
C31   C32   S    
C87   C105  A    
C269  O11   D    
C337  H142  S    
C223  C377  S    
C272  H94   S    
C50   C380  T    
C79   H17   S    
C100  C119  A    
C145  H191  S    
C224  C320  A    
C243  C325  S    
C240  C322  S    
C302  O44   D    
O121  Zn4   S    
C25   C309  S    
C186  O114  A    
C48   C378  T    
C185  O113  A    
O100  Zn20  S    
C66   H166  S    
C11   C342  S    
C22   H81   S    
C15   C36   S    
C246  C264  A    
C113  H20   S    
C20   H83   S    
C30   C304  S    
C157  C268  A    
C21   C25   S    
C72   C109  S    
C188  O112  A    
C235  C263  A    
C345  H36   S    
C17   C317  S    
C85   O139  A    
C310  H133  S    
C284  C348  S    
C40   C370  T    
C342  H39   S    
C219  C231  A    
C219  H212  S    
C282  O25   D    
C9    C41   S    
C32   H71   S    
C69   C175  A    
C151  H197  S    
O133  Zn32  S    
C151  C169  A    
C286  H108  S    
O95   Zn16  S    
C121  C139  A    
C286  O29   D    
C122  C140  A    
C124  C252  A    
C347  C350  S    
C63   H163  S    
C254  C321  A    
C31   C384  S    
O90   Zn10  S    
O120  Zn3   S    
O87   Zn15  S    
C339  H41   S    
C345  H150  S    
C197  H159  S    
C310  O53   D    
O96   Zn17  S    
C337  H43   S    
C54   C161  A    
O76   Zn14  S    
C193  C238  S    
O102  Zn22  S    
C163  C164  S    
C283  H105  S    
O78   Zn16  S    
C19   H84   S    
C195  H112  S    
C10   C358  S    
C13   O152  A    
C344  C345  S    
C291  H114  S    
C90   H18   S    
C184  O101  A    
C81   O135  A    
C255  C322  A    
C187  O111  A    
C336  H44   S    
O131  Zn4   S    
C6    C44   S    
C359  H64   S    
C316  H139  S    
C44   C375  T    
C251  C324  A    
O150  Zn18  S    
C309  O52   D    
O84   Zn22  S    
C4    C47   S    
C138  C155  A    
C348  C383  S    
C21   C313  S    
C133  C275  S    
O118  Zn6   S    
C182  O105  A    
C244  C326  S    
C114  C131  A    
O117  Zn5   S    
C199  C217  A    
C260  C328  A    
C250  C323  A    
C102  H184  S    
C209  C243  A    
C263  H15   S    
C161  C162  S    
C193  O118  A    
C80   C122  S    
C21   H82   S    
C78   O133  A    
C168  H26   S    
C144  H190  S    
C203  C220  A    
C9    C339  S    
O74   Zn13  S    
C45   C376  T    
C42   C372  T    
C84   O85   A    
C58   C93   A    
C308  O51   D    
C216  H209  S    
C225  H217  S    
C294  O37   D    
C278  H100  S    
C214  C232  A    
C95   C114  A    
O114  Zn12  S    
C25   H78   S    
C3    C333  S    
C205  C222  A    
C17   C20   S    
C276  H98   S    
C23   C310  S    
C18   C19   S    
C364  H69   S    
C78   C121  S    
C218  C230  A    
C9    C23   S    
C12   C343  S    
C155  C173  A    
O131  Zn21  S    
C83   O137  A    
O107  Zn31  S    
C16   C17   S    
O98   Zn18  S    
O148  Zn16  S    
C59   C94   A    
C274  H96   S    
O125  Zn12  S    
C302  H125  S    
C4    C29   S    
C64   H164  S    
O85   Zn24  S    
C144  C162  A    
C75   C108  S    
C77   O79   A    
C46   O68   A    
O119  Zn3   S    
C319  O24   A    
O63   Zn8   S    
O76   Zn23  S    
C117  C134  A    
C313  O55   D    
C204  C244  A    
C14   C361  S    
C198  C241  A    
C361  H66   S    
C90   C249  A    
C69   H168  S    
C65   H165  S    
C85   C115  S    
C55   C162  A    
C303  H126  S    
C332  H49   S    
C67   H167  S    
C139  C281  S    
C176  O95   A    
C50   C383  S    
C287  O30   D    
C1    O141  A    
C113  C290  A    
O87   Zn13  S    
C5    C45   S    
O3    Zn21  S    
C70   O124  A    
O110  Zn29  S    
C61   C167  A    
C54   H154  S    
C90   C268  A    
C331  C332  S    
C2    C365  S    
C340  H40   S    
C221  H215  S    
C295  H118  S    
C104  H186  S    
C199  H181  S    
C109  C128  A    
C159  C160  S    
C75   O129  A    
C3    C48   S    
C184  O103  A    
C134  C152  A    
C347  H52   S    
C89   C107  A    
C206  C225  A    
C358  H63   S    
C49   C379  T    
C259  H10   S    
C39   C369  T    
C304  H127  S    
C298  C362  S    
C91   H173  S    
C74   O75   A    
C62   H162  S    
C7    C355  S    
C187  C232  S    
C32   C383  S    
O89   Zn9   S    
C227  H219  S    
C12   C360  S    
C13   C368  S    
C71   O72   A    
C226  H218  S    
C297  H120  S    
C189  O115  A    
C168  C301  A    
C205  H13   S    
C350  H55   S    
C191  O123  A    
C35   O4    A    
C319  O145  A    
C192  O117  A    
C296  H119  S    
C102  C120  A    
C254  H6    S    
C62   C169  A    
C256  C325  A    
O98   Zn25  S    
C248  H222  S    
C222  C237  A    
C292  H115  S    
C222  H216  S    
C91   C108  A    
C264  H16   S    
O149  Zn17  S    
C65   C100  A    
C99   H182  S    
C113  C251  A    
C214  H207  S    
C126  C143  A    
C186  C231  S    
C154  H200  S    
C343  H147  S    
C156  H202  S    
C72   O73   A    
C270  O12   D    
C208  C247  A    
C79   C248  A    
C14   C37   S    
C293  C357  S    
C179  H27   S    
C192  C237  S    
C150  C167  A    
C281  O23   D    
C148  H194  S    
C31   H72   S    
C95   H177  S    
C137  C154  A    
C136  C277  S    
C57   C372  S    
C299  C364  S    
C297  O40   D    
O144  Zn11  S    
C296  O39   D    
C60   C166  A    
C195  C213  A    
C70   C111  S    
C152  H198  S    
C247  C328  S    
C107  C126  A    
C104  C122  A    
C71   C114  S    
C286  C350  S    
C344  H37   S    
C180  O94   A    
C182  O99   A    
C235  C301  A    
C307  O50   D    
C19   C315  S    
C70   O71   A    
C181  O104  A    
C204  H2    S    
C124  H21   S    
O104  Zn25  S    
C304  O47   D    
O113  Zn1   S    
C168  C256  A    
C285  C349  S    
C313  H136  S    
C4    C334  S    
C165  C166  S    
C71   O125  A    
C87   H169  S    
C292  O34   D    
C125  C266  S    
C134  C276  S    
C66   C102  A    
O143  Zn10  S    
C6    C336  S    
C352  O57   A    
C299  H122  S    
O135  Zn3   S    
O1    Zn9   S    
C176  O89   A    
C88   H171  S    
C265  H87   S    
C262  C328  A    
C57   O6    A    
C56   C163  A    
C129  C271  S    
C306  O49   D    
C220  C234  A    
C8    C42   S    
O81   Zn19  S    
C36   C366  T    
C374  O62   A    
C203  C243  A    
C352  C381  S    
C177  O96   A    
C210  C229  A    
C142  H188  S    
C86   C116  S    
O2    Zn31  S    
C223  O13   A    
C331  H50   S    
C212  H30   S    
C101  H19   S    
C29   H74   S    
C180  O92   A    
O1    Zn16  S    
C92   H174  S    
C194  C211  A    
O62   Zn7   S    
C28   H75   S    
C305  O48   D    
C339  C340  S    
C298  H121  S    
O65   Zn17  S    
C2    O63   A    
C374  O150  A    
O122  Zn32  S    
C283  C347  S    
C194  C239  A    
C262  H14   S    
C178  C320  S    
C303  O45   D    
C203  H214  S    
C228  C234  A    
C35   C370  S    
C197  C215  A    
O105  Zn26  S    
C191  O116  A    
O151  Zn19  S    
C112  O143  A    
C52   C159  A    
C329  H79   S    
C72   O126  A    
C340  H145  S    
C12   C38   S    
O61   Zn12  S    
C51   C382  S    
C150  H196  S    
O147  Zn15  S    
C33   H70   S    
C252  C323  A    
O120  Zn22  S    
C355  H60   S    
C124  C279  A    
C141  C159  A    
C213  H206  S    
C241  C323  S    
O112  Zn27  S    
C353  H58   S    
O111  Zn23  S    
C215  H208  S    
C37   C367  T    
C293  H116  S    
C59   C165  A    
C130  C148  A    
C330  O146  A    
C195  C240  A    
C140  C158  A    
C54   C89   A    
C284  H106  S    
C179  C312  A    
C94   H176  S    
C305  H128  S    
O127  Zn27  S    
C338  C342  S    
O57   Zn1   S    
O92   Zn13  S    
C10   C22   S    
O140  Zn8   S    
C177  O90   A    
C89   H172  S    
C338  H143  S    
C97   C116  A    
C58   H157  S    
O94   Zn15  S    
O116  Zn8   S    
O75   Zn14  S    
O1    Zn30  S    
C317  H140  S    
C16   C346  S    
C273  H95   S    
C5    C28   S    
C88   C106  A    
C158  C175  A    
C300  H123  S    
C6    C27   S    
C66   C173  A    
C125  C142  A    
C132  C274  S    
C153  C171  A    
C177  C301  S    
C183  O100  A    
O146  Zn14  S    
C154  C172  A    
C96   C115  A    
C29   C305  S    
C135  C253  A    
O76   Zn11  S    
C11   C39   S    
C189  C234  S    
O108  Zn28  S    
C22   C311  S    
C77   O132  A    
C8    C338  S    
C178  O91   A    
C15   C362  S    
C140  C282  S    
C190  H28   S    
C147  H193  S    
C333  H48   S    
C84   C118  S    
C127  C269  S    
C334  H47   S    
C126  C267  S    
C47   C377  T    
O69   Zn32  S    
C11   C21   S    
C285  O28   D    
C341  O147  A    
C181  O97   A    
C172  C173  S    
O65   Zn12  S    
C98   C117  A    
C176  C312  S    
C1    C375  S    
C69   C104  A    
C182  C257  S    
C333  H113  S    
C329  C333  S    
C192  O119  A    
C30   C33   S    
C96   H178  S    
C155  H201  S    
C52   C87   A    
C149  C166  A    
C183  C290  S    
C80   O134  A    
O139  Zn7   S    
C103  H185  S    
C295  C359  S    
C362  H67   S    
O152  Zn20  S    
C5    C335  S    
C361  C362  S    
C291  O33   D    
C264  C326  A    
C33   C300  S    
C80   O81   A    
C275  O18   D    
C206  C247  A    
C275  H97   S    
C349  C384  S    
C210  C244  A    
C261  C327  A    
C250  H224  S    
C330  O35   A    
C8    C25   S    
C99   C118  A    
O141  Zn9   S    
C26   H77   S    
C266  H88   S    
O24   Zn29  S    
C112  C373  S    
C288  H110  S    
C139  C156  A    
C41   C371  T    
C287  C351  S    
C274  O17   D    
C216  C232  A    
C255  H7    S    
C53   C88   A    
C331  C383  S    
C256  H8    S    
C108  C127  A    
C8    C356  S    
O77   Zn15  S    
O13   Zn28  S    
C137  C278  S    
C14   C344  S    
C201  H29   S    
O131  Zn24  S    
C56   C92   A    
C123  C141  A    
C252  H4    S    
C26   C29   S    
C343  C346  S    
C27   C28   S    
O73   Zn11  S    
C146  C257  A    
C188  O110  A    
C73   O74   A    
O134  Zn2   S    
O101  Zn21  S    
O126  Zn23  S    
C289  O32   D    
C60   H160  S    
C68   O70   A    
