data_mof_unit_8971.cif
_audit_creation_date              2012-12-10T17:19:54-0500
_audit_creation_method            fapswitch 2.2
_symmetry_space_group_name_H-M    P1
_symmetry_Int_Tables_number       1
_space_group_crystal_system       triclinic
_cell_length_a                    9.611341
_cell_length_b                    10.776643
_cell_length_c                    15.494999
_cell_angle_alpha                 87.525628
_cell_angle_beta                  74.145922
_cell_angle_gamma                 90.039437
_cell_volume                      1542.32025684

loop_
_atom_site_label
_atom_site_type_symbol
_atom_type_description
_atom_site_fract_x
_atom_site_fract_y
_atom_site_fract_z
_atom_type_partial_charge
C1    C     C_R   0.998614 0.262603 0.503157 0.793688
C2    C     C_R   0.670432 0.528447 0.904609 0.091381
C3    C     C_R   0.768898 0.571863 0.950318 0.167933
C4    C     C_R   0.520089 0.518055 0.950013 0.068936
C5    C     C_R   0.472692 0.539232 0.043532 0.064026
C6    C     C_R   0.574768 0.582566 0.086499 -0.224481
C7    C     C_R   0.719534 0.599471 0.040370 -0.239123
C8    C     C_R   0.415232 0.490410 0.904551 -0.222771
C9    C     C_R   0.269855 0.477026 0.950021 -0.246791
C10   C     C_R   0.223293 0.488802 0.042457 0.169462
C11   C     C_R   0.324206 0.518361 0.090515 0.092402
C12   C     C_R   0.918128 0.501845 0.671886 0.773825
C13   C     C_R   0.076437 0.470006 0.087562 -0.216892
C14   C     C_R   0.028438 0.477375 0.180420 -0.200142
C15   C     C_R   0.273527 0.521579 0.184480 -0.257981
C16   C     C_R   0.081155 0.120180 0.646360 -0.188686
C17   C     C_R   0.122414 0.050973 0.713187 -0.138798
C18   C     C_R   0.122353 0.921910 0.713106 -0.128965
C19   C     C_R   0.081263 0.861265 0.646115 -0.167585
C20   C     C_R   0.041213 0.929490 0.576757 0.100458
C21   C     C_R   0.041091 0.060756 0.576909 0.097414
C22   C     C_R   0.995765 0.128382 0.509253 -0.102256
C23   C     C_R   0.998868 0.737067 0.502658 0.768679
C24   C     C_R   0.945439 0.067425 0.445820 -0.191125
C25   C     C_R   0.945628 0.939420 0.445640 -0.205808
C26   C     C_R   0.996103 0.870461 0.508914 -0.088737
C27   C     C_R   0.697775 0.663083 0.379583 -0.146329
C28   C     C_R   0.652023 0.743814 0.320999 -0.215635
C29   C     C_R   0.508293 0.745692 0.321883 -0.223111
C30   C     C_R   0.409572 0.666256 0.380899 -0.148109
C31   C     C_R   0.451421 0.581282 0.441318 0.215645
C32   C     C_R   0.601055 0.580515 0.440978 0.209777
C33   C     C_R   0.549008 0.423273 0.556185 -0.059347
C34   C     C_R   0.081906 0.500544 0.327972 0.779398
C35   C     C_R   0.401257 0.423180 0.556076 -0.064744
C36   C     C_R   0.872135 0.516529 0.769219 -0.044300
C37   C     C_R   0.127393 0.500899 0.229472 -0.049358
C38   C     C_R   0.916092 0.588403 0.905109 -0.218770
C39   C     C_R   0.967388 0.561523 0.814900 -0.214973
C40   C     C_R   0.726333 0.496636 0.814837 -0.238825
Cu1   Cu    Cu3+1 0.140660 0.499990 0.500010 0.926224
Cu2   Cu    Cu3+1 0.859340 0.500010 0.499990 0.933659
H1    H     H_    0.793609 0.633918 0.075771 0.148174
H2    H     H_    0.998956 0.447441 0.051147 0.144961
H3    H     H_    0.908920 0.119472 0.394834 0.152502
H4    H     H_    0.078265 0.219972 0.651029 0.137443
H5    H     H_    0.152668 0.097688 0.765961 0.133121
H6    H     H_    0.152467 0.868428 0.765834 0.135404
H7    H     H_    0.078635 0.760957 0.650559 0.150953
H8    H     H_    0.909238 0.893894 0.394519 0.138060
H9    H     H_    0.583638 0.360304 0.602300 0.135561
H10   H     H_    0.810031 0.669664 0.373881 0.192797
H11   H     H_    0.728890 0.805718 0.274763 0.147408
H12   H     H_    0.346692 0.535884 0.224740 0.154951
H13   H     H_    0.472739 0.809026 0.276258 0.154014
H14   H     H_    0.302269 0.675810 0.375757 0.196856
H15   H     H_    0.325816 0.360157 0.602077 0.132248
H16   H     H_    0.193540 0.455396 0.912496 0.147416
H17   H     H_    0.991087 0.624425 0.939168 0.139197
H18   H     H_    0.080398 0.578758 0.780501 0.150028
H19   H     H_    0.658769 0.455458 0.778443 0.143058
H20   H     H_    0.545828 0.608443 0.155382 0.154565
H21   H     H_    0.440955 0.481819 0.832959 0.141448
N1    N     N_R   0.648320 0.501210 0.499140 -0.198567
N2    N     N_R   0.352470 0.501290 0.499110 -0.197864
O1    O     O_R   0.118810 0.319640 0.500010 -0.573341
O2    O     O_R   0.881240 0.319660 0.500000 -0.573546
O3    O     O_R   0.055570 0.499980 0.629840 -0.596028
O4    O     O_R   0.818000 0.500010 0.629830 -0.577224
O5    O     O_R   0.118760 0.680340 0.500000 -0.601851
O6    O     O_R   0.881190 0.680360 0.499990 -0.586099
O7    O     O_R   0.182000 0.499990 0.370170 -0.594779
O8    O     O_R   0.944430 0.500020 0.370160 -0.601788
H22   H     H_    0.914892 0.461194 0.213932 0.161656

loop_
_geom_bond_atom_site_label_1
_geom_bond_atom_site_label_2
_ccdc_geom_bond_type
C8    C9    A    
C12   O4    A    
C16   C21   A    
Cu2   N1    S    
C34   C37   S    
Cu1   Cu2   S    
C19   C20   A    
C4    C8    A    
C12   O3    A    
C24   H3    S    
C14   H22   S    
C28   C29   A    
C5    C11   A    
C3    C7    A    
C5    C6    A    
C35   N2    A    
C9    H16   S    
C23   C26   S    
C25   H8    S    
C15   C37   A    
C1    O2    A    
C11   C15   A    
C3    C38   A    
C16   C17   A    
C7    H1    S    
C12   C36   S    
C9    C10   A    
C1    C22   S    
C21   C22   A    
C23   O5    A    
C17   C18   A    
Cu1   O3    S    
C38   C39   A    
C15   H12   S    
C23   O6    A    
C36   C40   A    
C24   C25   A    
C32   N1    A    
C16   H4    S    
C18   C19   A    
Cu1   N2    S    
C34   O8    A    
C25   C26   A    
C30   H14   S    
Cu2   O4    S    
C40   H19   S    
C2    C4    A    
C29   C30   A    
C19   H7    S    
C31   C32   A    
C1    O1    A    
Cu1   O1    S    
Cu1   O7    S    
Cu2   O2    S    
C22   C24   A    
C34   O7    A    
C27   H10   S    
C31   N2    A    
Cu2   O8    S    
C27   C32   A    
C36   C39   A    
C17   H5    S    
C4    C5    A    
C10   C13   A    
C18   H6    S    
C28   H11   S    
C6    C7    A    
C33   H9    S    
C29   H13   S    
C35   H15   S    
C6    H20   S    
C2    C3    A    
C14   C37   A    
C30   C31   A    
C20   C26   A    
C33   N1    A    
C39   H18   S    
Cu2   O6    S    
C33   C35   A    
C10   C11   A    
C8    H21   S    
C38   H17   S    
C2    C40   A    
C20   C21   A    
C27   C28   A    
C13   C14   A    
C13   H2    S    
Cu1   O5    S    
