data_mof_unit_67020.cif
_audit_creation_date              2012-12-11T17:41:10-0500
_audit_creation_method            fapswitch 2.2
_symmetry_space_group_name_H-M    P1
_symmetry_Int_Tables_number       1
_space_group_crystal_system       triclinic
_cell_length_a                    8.329306
_cell_length_b                    12.676163
_cell_length_c                    14.374317
_cell_angle_alpha                 93.590202
_cell_angle_beta                  90.318481
_cell_angle_gamma                 98.5464
_cell_volume                      1497.7246474

loop_
_atom_site_label
_atom_site_type_symbol
_atom_type_description
_atom_site_fract_x
_atom_site_fract_y
_atom_site_fract_z
_atom_type_partial_charge
Ba1   Ba    Ba6+2 0.855630 0.555280 0.454520 1.617234
Ba2   Ba    Ba6+2 0.334200 0.444810 0.545490 1.616281
C1    C     C_3   0.673292 0.967444 0.218416 -0.379831
C2    C     C_R   0.180657 0.502066 0.198368 0.066701
C3    C     C_R   0.336113 0.549350 0.228495 -0.293303
C4    C     C_3   0.142509 0.824836 0.199391 0.460230
C5    C     C_R   0.449991 0.593883 0.166040 0.022198
C6    C     C_R   0.406793 0.598460 0.073143 -0.155563
C7    C     C_R   0.249712 0.555299 0.039310 -0.013532
C8    C     C_R   0.137666 0.500878 0.100757 -0.039454
C9    C     C_R   0.059140 0.507057 0.904833 -0.013828
C10   C     C_R   0.948409 0.450837 0.966543 -0.038846
C11   C     C_R   0.015776 0.501012 0.806506 0.073112
C12   C     C_3   0.691547 0.858533 0.252724 0.313261
C13   C     C_R   0.870429 0.438917 0.775720 -0.252908
C14   C     C_R   0.753597 0.398527 0.837843 0.035055
C15   C     C_R   0.794070 0.401093 0.932776 -0.155078
C16   C     C_3   0.100449 0.873157 0.109179 -0.345934
C17   C     C_R   0.205012 0.566299 0.944942 0.157543
C18   C     C_R   0.781516 0.176060 0.514744 -0.221570
C19   C     C_R   0.431140 0.812601 0.464199 -0.297241
C20   C     C_R   0.407576 0.993944 0.431368 -0.084007
C21   C     C_R   0.342968 0.886560 0.428636 0.027835
C22   C     C_R   0.578537 0.846159 0.511668 0.070119
C23   C     C_3   0.454661 0.294024 0.249191 0.471704
C24   C     C_R   0.643311 0.957883 0.518835 -0.063721
C25   C     C_R   0.558427 0.031696 0.474827 -0.079787
C26   C     C_R   0.625678 0.141418 0.475465 0.047168
C27   C     C_R   0.860287 0.105644 0.564360 0.022874
C28   C     C_3   0.241058 0.761591 0.656764 0.272883
C29   C     C_R   0.789084 0.998487 0.568130 -0.099155
C30   C     C_3   0.203599 0.875422 0.660116 -0.377332
C31   C     C_3   0.010429 0.219621 0.310706 0.217765
C32   C     C_3   0.046277 0.112071 0.272043 -0.358281
C33   C     C_3   0.768051 0.722283 0.744851 0.402917
C34   C     C_3   0.378244 0.252926 0.152889 -0.123037
C35   C     C_3   0.779567 0.777467 0.843554 -0.181992
C36   C     C_3   0.861769 0.718437 0.914729 -0.480946
C37   C     C_3   0.867588 0.287515 0.501000 -0.235915
C38   C     C_3   0.047781 0.202222 0.799758 0.335597
C39   C     C_3   0.067673 0.172704 0.899901 -0.410772
C40   C     C_3   0.519135 0.141965 0.757828 0.323951
C41   C     C_3   0.529120 0.033514 0.799696 0.130559
C42   C     C_R   0.988222 0.448510 0.062280 -0.032868
H1    H     H_    0.802792 0.865865 0.296397 0.099893
H2    H     H_    0.890567 0.730219 0.714649 0.069719
H3    H     H_    0.681496 0.027945 0.278135 0.081689
H4    H     H_    0.848770 0.859150 0.840696 0.119026
H5    H     H_    0.655426 0.785497 0.868460 0.143023
H6    H     H_    0.586608 0.833585 0.297201 0.006371
H7    H     H_    0.554457 0.964686 0.182804 0.144585
H8    H     H_    0.365319 0.334919 0.289064 -0.011398
H9    H     H_    0.270114 0.192433 0.159048 0.098333
H10   H     H_    0.336683 0.320941 0.119144 0.056788
H11   H     H_    0.768944 0.991815 0.167629 0.120616
H12   H     H_    0.199937 0.907578 0.732974 0.145879
H13   H     H_    0.174997 0.952840 0.103797 0.115733
H14   H     H_    0.133707 0.276657 0.790714 0.101030
H15   H     H_    0.921189 0.217360 0.789021 -0.050722
H16   H     H_    0.198267 0.179634 0.918626 0.138731
H17   H     H_    0.011938 0.228063 0.948304 0.085759
H18   H     H_    0.008717 0.089609 0.908943 0.129178
H19   H     H_    0.636069 0.168048 0.722765 -0.093056
H20   H     H_    0.420997 0.130119 0.704005 0.077069
H21   H     H_    0.514356 0.970552 0.741599 0.072874
H22   H     H_    0.069986 0.743722 0.200989 0.072914
H23   H     H_    0.296359 0.927328 0.622080 0.072856
H24   H     H_    0.371360 0.548329 0.300969 0.082869
H25   H     H_    0.498232 0.637503 0.028689 0.076818
H26   H     H_    0.704576 0.365216 0.980355 0.093662
H27   H     H_    0.840519 0.430594 0.702317 0.044257
H28   H     H_    0.901196 0.404181 0.105940 0.111635
H29   H     H_    0.336627 0.046755 0.399597 0.103050
H30   H     H_    0.850393 0.947641 0.608672 0.090215
H31   H     H_    0.379944 0.728817 0.459488 0.066564
H32   H     H_    0.124668 0.820308 0.047962 0.065744
H33   H     H_    0.970726 0.883290 0.108015 0.134881
H34   H     H_    0.083363 0.876957 0.628209 0.135934
H35   H     H_    0.373281 0.763793 0.660886 0.050434
H36   H     H_    0.194033 0.721937 0.589016 0.051066
H37   H     H_    0.577935 0.605059 0.764309 0.213177
H38   H     H_    0.708158 0.571672 0.682925 0.176387
H39   H     H_    0.855853 0.759901 0.984446 0.159128
H40   H     H_    0.797710 0.635787 0.919058 0.148488
H41   H     H_    0.990598 0.717800 0.896352 0.151331
H42   H     H_    0.577612 0.420922 0.185110 0.132052
H43   H     H_    0.686793 0.325365 0.207128 0.214573
H44   H     H_    0.452328 0.204827 0.024261 0.191811
H45   H     H_    0.882350 0.204604 0.331651 0.009488
H46   H     H_    0.499015 0.129646 0.109884 0.196659
H47   H     H_    0.715339 0.101658 0.888740 0.186369
H48   H     H_    0.774660 0.035263 0.791989 0.163635
H49   H     H_    0.292664 0.027771 0.843995 0.193102
H50   H     H_    0.431046 0.048579 0.930638 0.197989
H51   H     H_    0.417197 0.625067 0.885478 0.184957
H52   H     H_    0.309365 0.719463 0.930617 0.163413
H53   H     H_    0.995458 0.287759 0.487958 0.121710
H54   H     H_    0.844066 0.318939 0.434291 0.092567
H55   H     H_    0.845723 0.344171 0.559635 0.120699
H56   H     H_    0.100883 0.246092 0.366291 0.067761
H57   H     H_    0.351902 0.790643 0.136485 0.153372
H58   H     H_    0.334511 0.761886 0.248228 0.111456
H59   H     H_    0.010033 0.097734 0.197445 0.127648
H60   H     H_    0.977547 0.049679 0.313056 0.121822
H61   H     H_    0.176914 0.106246 0.280365 0.123936
N1    N     N_3   0.700138 0.610194 0.748562 -0.531320
N2    N     N_3   0.600075 0.369345 0.235617 -0.433338
N3    N     N_3   0.495644 0.208277 0.092865 -0.513770
N4    N     N_3   0.687244 0.032964 0.843986 -0.489777
N5    N     N_3   0.400871 0.005424 0.867128 -0.474415
N6    N     N_3   0.301054 0.645176 0.893474 -0.455476
N7    N     N_3   0.315813 0.818816 0.201696 -0.508467
O1    O     O_2   0.887370 0.460630 0.272300 -0.448856
O2    O     O_2   0.198578 0.112220 0.569298 -0.482511
O3    O     O_3   0.081442 0.118372 0.737447 -0.621931
O4    O     O_3   0.129410 0.451380 0.388510 -0.508906
O5    O     O_3   0.575400 0.626570 0.547370 -0.483078
O6    O     O_2   0.344320 0.238700 0.455090 -0.475818
O7    O     O_3   0.497403 0.208458 0.296799 -0.655040
O8    O     O_2   0.421374 0.412548 0.837820 -0.489980
O9    O     O_3   0.482584 0.217410 0.827640 -0.619495
O10   O     O_3   0.670210 0.653170 0.329170 -0.477554
O11   O     O_2   0.787848 0.595913 0.165356 -0.488808
O12   O     O_3   0.664715 0.774523 0.693443 -0.660722
O13   O     O_3   0.021830 0.292557 0.241951 -0.650674
O14   O     O_3   0.702496 0.786216 0.175489 -0.612800
O15   O     O_2   0.845380 0.761330 0.544970 -0.482643
O16   O     O_3   0.088930 0.704860 0.376040 -0.485842
O17   O     O_2   0.013642 0.889224 0.446632 -0.493357
O18   O     O_3   0.102423 0.892551 0.274023 -0.616398
O19   O     O_2   0.302330 0.539400 0.727760 -0.453694
O20   O     O_3   0.060300 0.548700 0.611500 -0.506671
O21   O     O_3   0.519500 0.346920 0.670840 -0.470377
O22   O     O_3   0.173141 0.711796 0.734706 -0.622218
O23   O     O_3   0.614310 0.373510 0.452640 -0.466826
O24   O     O_3   0.100780 0.295230 0.623970 -0.504770
P1    P     P_3+3 0.054400 0.427280 0.286870 0.954414
P2    P     P_3+3 0.668300 0.742890 0.573060 0.954651
P3    P     P_3+3 0.137294 0.843048 0.382283 0.942633
P4    P     P_3+3 0.135310 0.572810 0.713130 0.992733
P5    P     P_3+3 0.059350 0.155513 0.623062 0.927342
P6    P     P_3+3 0.653469 0.654683 0.208576 0.949499
P7    P     P_3+3 0.522186 0.240990 0.417808 0.940927
P8    P     P_3+3 0.545933 0.346624 0.792585 0.945698

loop_
_geom_bond_atom_site_label_1
_geom_bond_atom_site_label_2
_ccdc_geom_bond_type
O3    P5    S    
C36   H39   S    
C34   N3    S    
O7    P7    S    
H58   N7    S    
H42   N2    S    
O8    P8    D    
Ba1   O16   S    
C39   H17   S    
C4    O18   S    
Ba1   O20   S    
Ba2   O6    S    
C5    C6    A    
H57   N7    S    
C9    C17   A    
C6    H25   S    
O24   P5    S    
O12   P2    S    
C33   O12   S    
C14   P8    S    
O16   P3    S    
C22   C24   A    
O22   P4    S    
H44   N3    S    
H48   N4    S    
C37   H53   S    
C38   O3    S    
C13   C14   A    
Ba1   Ba2   S    
Ba1   O10   S    
C34   H9    S    
C2    P1    S    
Ba2   O4    S    
C7    C17   A    
O5    P2    S    
C6    C7    A    
C28   O22   S    
C10   C15   A    
Ba2   O20   S    
O19   P4    D    
C41   N5    S    
C7    C8    A    
H49   N5    S    
C28   H36   S    
O23   P7    S    
C15   H26   S    
C38   H15   S    
O9    P8    S    
Ba1   O1    S    
C39   H18   S    
C3    H24   S    
O18   P3    S    
C23   O7    S    
Ba2   O5    S    
Ba2   O19   S    
C12   H1    S    
C18   C27   A    
C4    C16   S    
H52   N6    S    
Ba2   O21   S    
C38   H14   S    
C36   H41   S    
C8    C42   A    
O2    P5    D    
O6    P7    D    
C3    C5    A    
C18   C37   S    
C1    H7    S    
C14   C15   A    
C37   H54   S    
C18   C26   A    
O13   P1    S    
C30   H34   S    
H50   N5    S    
Ba2   O24   S    
Ba2   O23   S    
C11   P4    S    
C35   C36   S    
C31   H45   S    
C35   H5    S    
C16   H13   S    
C37   H55   S    
O17   P3    D    
C4    H22   S    
C41   H21   S    
C27   P5    S    
C31   O13   S    
C31   C32   S    
C24   C25   A    
C26   P7    S    
Ba1   O5    S    
C35   H4    S    
C1    C12   S    
C30   H23   S    
C28   H35   S    
C38   C39   S    
O15   P2    D    
C20   C25   A    
C11   C13   A    
O1    P1    D    
C40   C41   S    
O10   P6    S    
C2    C8    A    
C40   H20   S    
Ba1   P1    S    
C23   N2    S    
O4    P1    S    
C21   P3    S    
Ba1   O4    S    
H37   N1    S    
O21   P8    S    
C16   H32   S    
C33   C35   S    
C32   H61   S    
C4    N7    S    
Ba1   O15   S    
C39   H16   S    
C2    C3    A    
C29   H30   S    
C9    C10   A    
C17   N6    S    
O20   P4    S    
C13   H27   S    
C19   H31   S    
C1    H11   S    
C32   H59   S    
C12   O14   S    
C31   H56   S    
C22   P2    S    
H47   N4    S    
C19   C21   A    
C23   H8    S    
C36   H40   S    
C10   C42   A    
C33   N1    S    
H51   N6    S    
C28   C30   S    
C9    C11   A    
C12   H6    S    
C16   H33   S    
O11   P6    D    
C1    H3    S    
O14   P6    S    
C42   H28   S    
H38   N1    S    
C32   H60   S    
C34   H10   S    
C23   C34   S    
H46   N3    S    
C24   C29   A    
H43   N2    S    
C27   C29   A    
C19   C22   A    
C25   C26   A    
C20   C21   A    
Ba2   P4    S    
C41   N4    S    
C20   H29   S    
Ba1   O23   S    
C33   H2    S    
C40   H19   S    
C30   H12   S    
C5    P6    S    
Ba1   P2    S    
C40   O9    S    
