data_mof_unit_38530.cif
_audit_creation_date              2012-12-11T14:17:42-0500
_audit_creation_method            fapswitch 2.2
_symmetry_space_group_name_H-M    P1
_symmetry_Int_Tables_number       1
_space_group_crystal_system       triclinic
_cell_length_a                    11.104818
_cell_length_b                    11.105015
_cell_length_c                    18.905361
_cell_angle_alpha                 90.276681
_cell_angle_beta                  89.92624
_cell_angle_gamma                 120.143135
_cell_volume                      2016.10227599

loop_
_atom_site_label
_atom_site_type_symbol
_atom_type_description
_atom_site_fract_x
_atom_site_fract_y
_atom_site_fract_z
_atom_type_partial_charge
C1    C     C_R   0.518027 0.456219 0.147228 0.547424
C2    C     C_R   0.543671 0.061942 0.147075 0.543222
C3    C     C_R   0.936893 0.480967 0.146682 0.544538
C4    C     C_R   0.456076 0.518992 0.853246 0.526348
C5    C     C_R   0.061571 0.543684 0.852680 0.527248
C6    C     C_R   0.481651 0.937830 0.853014 0.527147
C7    C     C_R   0.393568 0.934996 0.453867 0.198099
C8    C     C_R   0.053089 0.445660 0.454735 0.207230
C9    C     C_R   0.561104 0.586409 0.458146 0.214700
C10   C     C_R   0.077945 0.453361 0.528036 0.220212
C11   C     C_R   0.376422 0.912602 0.527425 0.231922
C12   C     C_R   0.552448 0.609903 0.530057 0.251672
C13   C     C_R   0.745794 0.130650 0.589638 -0.093520
C14   C     C_R   0.867661 0.611973 0.590939 -0.089410
C15   C     C_R   0.388277 0.246217 0.600834 -0.080989
C16   C     C_R   0.927958 0.701998 0.452272 -0.077870
C17   C     C_R   0.775111 0.069452 0.450692 -0.058896
C18   C     C_R   0.330088 0.199164 0.458049 -0.088028
C19   C     C_R   0.872507 0.148484 0.566924 -0.096295
C20   C     C_R   0.852949 0.722803 0.568949 -0.102241
C21   C     C_R   0.280521 0.118426 0.578123 -0.093910
C22   C     C_R   0.886217 0.769878 0.499979 -0.113322
C23   C     C_R   0.885303 0.112179 0.498222 -0.119312
C24   C     C_R   0.246843 0.097958 0.506883 -0.119734
C25   C     C_R   0.540152 0.425368 0.361731 0.550206
C26   C     C_R   0.547832 0.064980 0.354580 0.593120
C27   C     C_R   0.934175 0.482477 0.354861 0.599758
C28   C     C_R   0.458056 0.518622 0.647296 0.581387
C29   C     C_R   0.063907 0.542812 0.645922 0.587774
C30   C     C_R   0.479161 0.934819 0.645704 0.586094
C31   C     C_R   0.506074 0.993164 0.925695 -0.004763
C32   C     C_R   0.003455 0.511787 0.924660 -0.004492
C33   C     C_R   0.486579 0.495976 0.926183 -0.003598
C34   C     C_R   0.989962 0.503773 0.073590 -0.004800
C35   C     C_R   0.512380 0.005760 0.074568 -0.005691
C36   C     C_R   0.492315 0.487764 0.075130 -0.005945
C37   C     C_R   0.403820 0.006014 0.962996 0.034041
C38   C     C_R   0.987744 0.395185 0.961028 0.033491
C39   C     C_R   0.600952 0.599328 0.964051 0.034147
C40   C     C_R   0.000651 0.400467 0.035599 0.031557
C41   C     C_R   0.397019 0.992352 0.037461 0.031584
C42   C     C_R   0.593573 0.604480 0.038667 0.031194
C43   C     C_R   0.620131 0.004315 0.036466 -0.137740
C44   C     C_R   0.992605 0.613918 0.036083 -0.138032
C45   C     C_R   0.383389 0.379885 0.036574 -0.138633
C46   C     C_R   0.002381 0.619435 0.963265 -0.138158
C47   C     C_R   0.615262 0.994601 0.963670 -0.137081
C48   C     C_R   0.378978 0.385506 0.963759 -0.137754
C49   C     C_R   0.307703 0.031801 0.928500 -0.087395
C50   C     C_R   0.962575 0.274334 0.925076 -0.086590
C51   C     C_R   0.723310 0.697245 0.930200 -0.089821
C52   C     C_R   0.025597 0.303025 0.069210 -0.088479
C53   C     C_R   0.275258 0.966868 0.072263 -0.086076
C54   C     C_R   0.689456 0.725613 0.074488 -0.086393
C55   C     C_R   0.195497 0.021140 0.965407 -0.143239
C56   C     C_R   0.976533 0.173598 0.960156 -0.139525
C57   C     C_R   0.825184 0.808129 0.968259 -0.143245
C58   C     C_R   0.017321 0.192806 0.030896 -0.143459
C59   C     C_R   0.174321 0.978900 0.035833 -0.142374
C60   C     C_R   0.803724 0.827163 0.039077 -0.139730
C61   C     C_R   0.493019 0.983651 0.573161 0.024350
C62   C     C_R   0.009965 0.502153 0.574085 0.020475
C63   C     C_R   0.501150 0.497492 0.578015 -0.008763
C64   C     C_R   0.984178 0.510868 0.427795 0.007195
C65   C     C_R   0.527219 0.013153 0.427141 0.028661
C66   C     C_R   0.511544 0.449632 0.434021 -0.021626
C67   C     C_R   0.627376 0.063165 0.545302 -0.039751
C68   C     C_R   0.932416 0.558822 0.546235 -0.033911
C69   C     C_R   0.447975 0.360240 0.553658 -0.032465
C70   C     C_R   0.944427 0.588197 0.473815 -0.049936
C71   C     C_R   0.644846 0.052986 0.472714 -0.029009
C72   C     C_R   0.433440 0.335014 0.480544 -0.045172
Cr1   Cr    Cr6+3 0.768550 0.541320 0.250660 1.023300
Cr2   Cr    Cr6+3 0.458680 0.227230 0.250660 1.025195
Cr3   Cr    Cr6+3 0.772770 0.231450 0.250660 1.030447
Cr4   Cr    Cr6+3 0.541320 0.768550 0.749340 1.027157
Cr5   Cr    Cr6+3 0.227230 0.458680 0.749340 1.028245
Cr6   Cr    Cr6+3 0.231450 0.772770 0.749340 1.025136
H1    H     H_    0.711258 0.014506 0.062693 0.157168
H2    H     H_    0.984287 0.695726 0.062826 0.156397
H3    H     H_    0.302460 0.288074 0.062434 0.155387
H4    H     H_    0.013320 0.711119 0.937463 0.155432
H5    H     H_    0.696318 0.984656 0.937334 0.157387
H6    H     H_    0.288608 0.303618 0.937067 0.155434
H7    H     H_    0.320030 0.063148 0.873635 0.119611
H8    H     H_    0.931847 0.256761 0.869983 0.119541
H9    H     H_    0.743252 0.686653 0.875152 0.121298
H10   H     H_    0.056422 0.313756 0.124182 0.134519
H11   H     H_    0.256268 0.935570 0.127145 0.132910
H12   H     H_    0.676474 0.743100 0.129635 0.130275
H13   H     H_    0.126443 0.044872 0.937857 0.095191
H14   H     H_    0.957698 0.083714 0.930580 0.094373
H15   H     H_    0.918875 0.877549 0.941473 0.096786
H16   H     H_    0.042627 0.124099 0.057332 0.098624
H17   H     H_    0.082270 0.956822 0.063901 0.097779
H18   H     H_    0.874401 0.917734 0.068387 0.097269
H19   H     H_    0.737239 0.155524 0.644217 0.106681
H20   H     H_    0.842925 0.578679 0.645413 0.105204
H21   H     H_    0.413018 0.259519 0.656743 0.107114
H22   H     H_    0.960725 0.751588 0.401491 0.173736
H23   H     H_    0.790973 0.035947 0.399667 0.173465
H24   H     H_    0.300245 0.167866 0.404247 0.187455
H25   H     H_    0.958975 0.185289 0.603452 0.162430
H26   H     H_    0.818178 0.773723 0.605865 0.153959
H27   H     H_    0.222664 0.035902 0.615715 0.144750
H28   H     H_    0.878452 0.858425 0.482986 0.132023
H29   H     H_    0.980736 0.116697 0.481739 0.112000
H30   H     H_    0.160375 0.000641 0.488565 0.123540
O1    O     O_R   0.910960 0.572410 0.171010 -0.522675
O2    O     O_R   0.427590 0.338550 0.171010 -0.518559
O3    O     O_R   0.661450 0.089040 0.171010 -0.525084
O4    O     O_R   0.572410 0.910960 0.828990 -0.535336
O5    O     O_R   0.338550 0.427590 0.828990 -0.535731
O6    O     O_R   0.089040 0.661450 0.828990 -0.534924
O7    O     O_R   0.639750 0.528530 0.175600 -0.503677
O8    O     O_R   0.471470 0.111220 0.175600 -0.503563
O9    O     O_R   0.888780 0.360250 0.175600 -0.504277
O10   O     O_R   0.528530 0.639750 0.824400 -0.515541
O11   O     O_R   0.111220 0.471470 0.824400 -0.513621
O12   O     O_R   0.360250 0.888780 0.824400 -0.513575
O13   O     O_R   0.909330 0.572400 0.331540 -0.549832
O14   O     O_R   0.427600 0.336930 0.331540 -0.536233
O15   O     O_R   0.663070 0.090670 0.331540 -0.548197
O16   O     O_R   0.572400 0.909330 0.668460 -0.495397
O17   O     O_R   0.336930 0.427600 0.668460 -0.489540
O18   O     O_R   0.090670 0.663070 0.668460 -0.490507
O19   O     O_R   0.638240 0.528520 0.324410 -0.475927
O20   O     O_R   0.471480 0.109720 0.324410 -0.482594
O21   O     O_R   0.890280 0.361760 0.324410 -0.454444
O22   O     O_R   0.528520 0.638240 0.675590 -0.457869
O23   O     O_R   0.109720 0.471480 0.675590 -0.462040
O24   O     O_R   0.361760 0.890280 0.675590 -0.463027
O25   O     O_3   0.666667 0.333333 0.250630 -0.283778
O26   O     O_3   0.333333 0.666667 0.749370 -0.247299
O27   O     O_3   0.283849 0.874962 0.406809 -0.723385
H31   H     H_    0.223245 0.776839 0.420989 0.328863
O28   O     O_3   0.102433 0.384551 0.407690 -0.697558
H32   H     H_    0.132744 0.327132 0.433410 0.328283
O29   O     O_3   0.606802 0.697036 0.412084 -0.721895
H33   H     H_    0.543812 0.665200 0.370489 0.349888
O30   O     O_3   0.172659 0.420216 0.555222 -0.677628
H34   H     H_    0.249770 0.450473 0.520906 0.328909
O31   O     O_3   0.248293 0.821898 0.556138 -0.676365
H35   H     H_    0.174414 0.814371 0.524637 0.325005
O32   O     O_3   0.584778 0.740449 0.554477 -0.668299
H36   H     H_    0.631093 0.810704 0.517165 0.362589

loop_
_geom_bond_atom_site_label_1
_geom_bond_atom_site_label_2
_ccdc_geom_bond_type
C2    C35   S    
C39   C51   A    
C55   C59   A    
C5    O6    A    
C19   C23   A    
Cr3   O9    S    
C58   H16   S    
O32   H36   S    
C53   C59   A    
O27   H31   S    
C54   C60   A    
C7    C11   A    
C17   C23   A    
C5    O11   A    
C34   C40   A    
C40   C52   A    
C38   C40   A    
C54   H12   S    
C18   H24   S    
C4    C33   S    
C43   H1    S    
O31   H35   S    
Cr2   O25   S    
Cr5   O23   S    
C17   H23   S    
C9    C66   A    
C55   H13   S    
C3    O9    A    
C46   H4    S    
C19   H25   S    
Cr2   O20   S    
C63   C69   A    
C65   C71   A    
C51   C57   A    
C64   C70   A    
C35   C43   A    
C25   O14   A    
C28   O22   A    
C5    C32   S    
C32   C46   A    
C6    C31   S    
C23   H29   S    
C31   C47   A    
C29   O18   A    
C37   C41   A    
C4    O10   A    
C10   C62   A    
C59   H17   S    
Cr5   O5    S    
C6    O12   A    
C44   C46   A    
Cr5   O26   S    
C14   H20   S    
C39   C42   A    
C18   C72   A    
C15   C69   A    
C66   C72   A    
C2    O3    A    
C38   C50   A    
C13   C19   A    
Cr4   O16   S    
C14   C20   A    
C4    O5    A    
C44   H2    S    
C16   C70   A    
C18   C24   A    
C51   H9    S    
C12   C63   A    
Cr4   O26   S    
C16   H22   S    
C57   C60   A    
C26   O20   A    
C3    C34   S    
C11   C61   A    
C22   H28   S    
Cr4   O10   S    
C31   C37   A    
C8    O28   S    
C10   O30   S    
C12   O32   S    
C69   C72   A    
Cr6   O12   S    
C7    O27   S    
C49   H7    S    
C1    O2    A    
C7    C65   A    
C37   C49   A    
C61   C67   A    
C52   H10   S    
Cr4   O4    S    
Cr2   O8    S    
C34   C44   A    
C36   C45   A    
C33   C39   A    
Cr6   O26   S    
C41   C53   A    
C52   C58   A    
C8    C64   A    
C24   H30   S    
C60   H18   S    
C68   C70   A    
Cr2   O14   S    
C30   O16   A    
C17   C71   A    
C32   C38   A    
C53   H11   S    
C27   O21   A    
Cr3   O15   S    
C21   C24   A    
C26   O15   A    
Cr6   O18   S    
Cr5   O17   S    
C28   O17   A    
Cr6   O24   S    
C13   C67   A    
C45   C48   A    
C29   C62   S    
Cr6   O6    S    
C16   C22   A    
C26   C65   S    
C6    O4    A    
C45   H3    S    
C25   C66   S    
C20   C22   A    
Cr5   O11   S    
C49   C55   A    
C36   C42   A    
Cr2   O2    S    
C2    O8    A    
O29   H33   S    
Cr3   O25   S    
Cr1   O1    S    
C20   H26   S    
O28   H32   S    
Cr3   O3    S    
Cr1   O7    S    
C62   C68   A    
C25   O19   A    
Cr1   O19   S    
O30   H34   S    
C42   C54   A    
C15   H21   S    
C9    O29   S    
C29   O23   A    
C11   O31   S    
C3    O1    A    
C30   O24   A    
C56   C58   A    
C67   C71   A    
C13   H19   S    
C35   C41   A    
C9    C12   A    
C50   C56   A    
C27   C64   S    
C50   H8    S    
C47   H5    S    
C28   C63   S    
C48   H6    S    
C15   C21   A    
C8    C10   A    
Cr1   O25   S    
C30   C61   S    
C27   O13   A    
C33   C48   A    
C14   C68   A    
C57   H15   S    
C1    O7    A    
C56   H14   S    
C43   C47   A    
C21   H27   S    
Cr4   O22   S    
Cr3   O21   S    
C1    C36   S    
Cr1   O13   S    
