data_mof_unit_9497.cif
_audit_creation_date              2012-12-11T17:43:15-0500
_audit_creation_method            fapswitch 2.2
_symmetry_space_group_name_H-M    P1
_symmetry_Int_Tables_number       1
_space_group_crystal_system       triclinic
_cell_length_a                    14.798313
_cell_length_b                    15.180177
_cell_length_c                    16.98111
_cell_angle_alpha                 108.705311
_cell_angle_beta                  105.280236
_cell_angle_gamma                 108.46149
_cell_volume                      3131.48336973

loop_
_atom_site_label
_atom_site_type_symbol
_atom_type_description
_atom_site_fract_x
_atom_site_fract_y
_atom_site_fract_z
_atom_type_partial_charge
C1    C     C_R   0.088079 0.292452 0.081773 -0.095376
C2    C     C_R   0.071385 0.078493 0.025344 -0.109847
C3    C     C_R   0.994258 0.917595 0.031058 0.024553
C4    C     C_R   0.005113 0.110192 0.058835 0.057047
C5    C     C_R   0.065108 0.981739 0.008950 0.092907
C6    C     C_R   0.933685 0.047199 0.081297 0.066728
C7    C     C_R   0.751576 0.020172 0.058111 0.752833
C8    C     C_R   0.234480 0.983790 0.011214 0.695529
C9    C     C_R   0.713862 0.143218 0.159094 0.787818
C10   C     C_R   0.255553 0.906189 0.873024 0.715255
C11   C     C_R   0.497107 0.481406 0.234382 -0.041667
C12   C     C_R   0.906961 0.721452 0.957878 -0.060566
C13   C     C_R   0.515561 0.388692 0.630726 -0.002864
C14   C     C_R   0.478253 0.475998 0.147026 -0.132610
C15   C     C_R   0.494259 0.368751 0.700948 -0.125101
C16   C     C_R   0.935688 0.514499 0.745161 -0.073902
C17   C     C_R   0.063389 0.548026 0.263590 -0.086614
C18   C     C_R   0.430163 0.379679 0.069848 0.038541
C19   C     C_R   0.487810 0.444222 0.770563 0.022498
C20   C     C_R   0.403768 0.288585 0.081313 -0.202017
C21   C     C_R   0.503766 0.540178 0.769667 -0.126056
C22   C     C_R   0.424410 0.293983 0.168328 0.084274
C23   C     C_R   0.026695 0.570001 0.740542 0.056515
C24   C     C_R   0.526725 0.560713 0.700989 -0.025903
C25   C     C_R   0.470268 0.389672 0.244422 -0.203832
C26   C     C_R   0.532608 0.485461 0.631826 -0.237283
C27   C     C_R   0.463667 0.328040 0.932236 -0.251152
C28   C     C_R   0.389971 0.446967 0.869665 -0.137145
C29   C     C_R   0.516024 0.378180 0.890729 0.039556
C30   C     C_R   0.375490 0.436793 0.945526 0.074644
C31   C     C_R   0.465484 0.423321 0.844630 0.059659
C32   C     C_R   0.415259 0.376078 0.978623 0.035364
C33   C     C_R   0.679742 0.052413 0.081211 -0.400348
C34   C     C_R   0.971189 0.535909 0.273825 0.004960
C35   C     C_R   0.297740 0.961805 0.967405 -0.452717
C36   C     C_R   0.961993 0.579379 0.360416 0.130244
C37   C     C_R   0.034772 0.605453 0.670852 0.083680
C38   C     C_R   0.139112 0.672443 0.596626 -0.161664
C39   C     C_R   0.858265 0.561285 0.448290 -0.175051
C40   C     C_R   0.749516 0.204007 0.811984 -0.148128
C41   C     C_R   0.282104 0.779154 0.172006 -0.204298
C42   C     C_R   0.132491 0.651584 0.669200 -0.149647
C43   C     C_R   0.864237 0.548897 0.365263 -0.157810
C44   C     C_R   0.944159 0.586206 0.601413 -0.168344
C45   C     C_R   0.720206 0.200591 0.726535 -0.183153
C46   C     C_R   0.052913 0.636924 0.441017 -0.226509
C47   C     C_R   0.949644 0.599443 0.525299 0.178117
C48   C     C_R   0.047802 0.640788 0.522264 0.147922
C49   C     C_R   0.639722 0.115677 0.645275 0.228194
C50   C     C_R   0.423939 0.855393 0.325990 0.188824
C51   C     C_R   0.606559 0.967051 0.412805 -0.196721
C52   C     C_R   0.458094 0.002431 0.557736 -0.135813
C53   C     C_R   0.525452 0.890494 0.330806 0.010794
C54   C     C_R   0.538058 0.077219 0.639803 -0.058177
C55   C     C_R   0.401519 0.894164 0.400422 -0.213628
C56   C     C_R   0.337735 0.772367 0.246782 -0.117335
C57   C     C_R   0.663915 0.080412 0.571108 -0.155013
C58   C     C_R   0.481016 0.967200 0.482294 0.170778
C59   C     C_R   0.584653 0.005058 0.488776 0.136668
C60   C     C_R   0.820018 0.201673 0.215046 -0.255106
C61   C     C_R   0.149720 0.871695 0.822170 -0.272514
C62   C     C_R   0.893793 0.170030 0.193703 -0.192795
C63   C     C_R   0.084072 0.890952 0.865128 -0.176400
C64   C     C_R   0.281601 0.554775 0.968741 -0.077066
C65   C     C_R   0.696002 0.399440 0.991318 -0.023985
C66   C     C_R   0.859213 0.078716 0.113212 -0.240913
C67   C     C_R   0.310767 0.479511 0.981971 0.063382
C68   C     C_R   0.127460 0.948243 0.961011 -0.204735
C69   C     C_R   0.760236 0.299675 0.735635 0.703117
C70   C     C_R   0.275181 0.685237 0.248355 0.665938
C71   C     C_R   0.257978 0.443385 0.029767 -0.152260
C72   C     C_R   0.700563 0.491173 0.913361 -0.116008
C73   C     C_R   0.107808 0.597931 0.820449 -0.155314
C74   C     C_R   0.890557 0.467396 0.188851 -0.037171
C75   C     C_R   0.916781 0.205639 0.002274 -0.069284
C76   C     C_R   0.078347 0.804109 0.046366 -0.150194
C77   C     C_R   0.002597 0.201732 0.053643 0.021237
C78   C     C_R   0.632185 0.421494 0.931183 -0.008936
C79   C     C_R   0.989867 0.817833 0.018231 0.040948
C80   C     C_2   0.187850 0.336846 0.160945 0.490273
C81   C     C_2   0.807917 0.700215 0.889348 0.483319
C82   C     C_2   0.545058 0.581979 0.315644 0.592426
C83   C     C_2   0.519071 0.309319 0.555185 0.658355
C84   C     C_2   0.005610 0.231342 0.256715 0.619496
C85   C     C_2   0.971871 0.853748 0.809326 0.575653
C86   C     C_2   0.702930 0.118162 0.833129 0.539817
C87   C     C_2   0.326105 0.844324 0.130646 0.643568
C88   C     C_2   0.345949 0.645685 0.960816 0.492129
C89   C     C_R   0.930395 0.950686 0.068463 -0.058185
C90   C     C_2   0.665396 0.323117 0.026925 0.407334
F1    F     F_    0.716303 0.933857 0.979756 -0.628212
F2    F     F_    0.277173 0.039113 0.103015 -0.690087
F3    F     F_    0.643777 0.174781 0.180507 -0.674834
F4    F     F_    0.317694 0.886828 0.830511 -0.687319
F5    F     F_    0.732716 0.330437 0.670280 -0.736648
F6    F     F_    0.308049 0.640758 0.300448 -0.719231
H1    H     H_    0.484892 0.392067 0.311208 0.124702
H2    H     H_    0.347298 0.478074 0.833365 0.138962
H3    H     H_    0.128959 0.666923 0.439849 0.121573
H4    H     H_    0.868244 0.552783 0.601991 0.121068
H5    H     H_    0.792368 0.508661 0.304836 0.124787
H6    H     H_    0.203882 0.668132 0.721816 0.167906
H7    H     H_    0.214947 0.704390 0.595021 0.159464
H8    H     H_    0.782307 0.531178 0.450095 0.128196
H9    H     H_    0.857483 0.495649 0.702655 0.159931
H10   H     H_    0.141819 0.595463 0.314510 0.157989
H11   H     H_    0.597339 0.007498 0.037826 0.211355
H12   H     H_    0.549791 0.502547 0.578739 0.122445
H13   H     H_    0.379911 0.988951 0.006697 0.224217
H14   H     H_    0.743790 0.112687 0.577665 0.127280
H15   H     H_    0.321669 0.865090 0.394666 0.114696
H16   H     H_    0.520713 0.107496 0.698133 0.106729
H17   H     H_    0.541425 0.858025 0.272163 0.150913
H18   H     H_    0.685681 0.995225 0.417310 0.142235
H19   H     H_    0.378825 0.973335 0.552877 0.126863
H20   H     H_    0.844433 0.271469 0.275609 0.198146
H21   H     H_    0.119327 0.831550 0.748856 0.205568
H22   H     H_    0.256814 0.381457 0.047502 0.107509
H23   H     H_    0.501044 0.546594 0.138765 0.167943
H24   H     H_    0.678678 0.514135 0.860809 0.119405
H25   H     H_    0.185876 0.656009 0.844992 0.097364
H26   H     H_    0.809602 0.444963 0.174111 0.099279
H27   H     H_    0.837769 0.152028 0.981150 0.123791
H28   H     H_    0.155492 0.863953 0.091781 0.156940
H29   H     H_    0.877104 0.900670 0.085977 0.158433
H30   H     H_    0.123251 0.126650 0.005317 0.126170
H31   H     H_    0.241378 0.417922 0.189022 0.073612
H32   H     H_    0.769472 0.630445 0.825659 0.005188
H33   H     H_    0.560623 0.584451 0.382663 0.003284
H34   H     H_    0.481796 0.294565 0.701231 0.144582
H35   H     H_    0.539523 0.327846 0.503691 -0.007038
H36   H     H_    0.061301 0.200705 0.248812 0.060137
H37   H     H_    0.921221 0.872318 0.840818 0.054893
H38   H     H_    0.688282 0.132488 0.893779 0.084055
H39   H     H_    0.282936 0.824895 0.060354 -0.043397
H40   H     H_    0.321966 0.706416 0.964027 0.002338
H41   H     H_    0.613337 0.323910 0.061256 0.062730
H42   H     H_    0.367651 0.213602 0.023096 0.135706
H43   H     H_    0.500605 0.599973 0.823150 0.192831
H44   H     H_    0.405074 0.223992 0.177164 0.210036
H45   H     H_    0.539993 0.635211 0.701367 0.163220
H46   H     H_    0.478508 0.268002 0.944728 0.129424
N1    N     N_R   0.055660 0.348550 0.045620 -0.077093
N2    N     N_R   0.185200 0.638170 0.176300 -0.116095
N3    N     N_R   0.201680 0.494570 0.045620 -0.053429
N4    N     N_R   0.798320 0.505430 0.954380 -0.063555
N5    N     N_R   0.068420 0.560530 0.871650 -0.049913
N6    N     N_R   0.931580 0.439470 0.128350 -0.028465
N7    N     N_R   0.948070 0.295860 0.997670 -0.047800
N8    N     N_R   0.051930 0.704140 0.002330 -0.055934
N9    N     N_R   0.944340 0.651450 0.954380 -0.074197
N10   N     N_R   0.960830 0.507850 0.823700 -0.051777
N11   N     N_R   0.039170 0.492150 0.176300 -0.053697
N12   N     N_R   0.811290 0.303410 0.871650 -0.094337
N13   N     N_R   0.188710 0.696590 0.128350 -0.106499
N14   N     N_R   0.205200 0.552990 0.997670 -0.079370
N15   N     N_R   0.794800 0.447010 0.002330 -0.049661
N16   N     N_R   0.814800 0.361830 0.823700 -0.116895
Ni1   Ni    Ni4+2 0.119340 0.493420 0.109960 0.247354
Ni2   Ni    Ni4+2 0.880660 0.506580 0.890040 0.216757
Ni3   Ni    Ni4+2 0.872590 0.372590 0.000000 0.258672
Ni4   Ni    Ni4+2 0.127410 0.627410 0.000000 0.184076
O1    O     O_2   0.210910 0.284288 0.196440 -0.577990
O2    O     O_2   0.707318 0.265890 0.027674 -0.616944
O3    O     O_2   0.769663 0.761054 0.901725 -0.513411
O4    O     O_2   0.567401 0.663118 0.308922 -0.580177
O5    O     O_2   0.498491 0.222253 0.548951 -0.581599
O6    O     O_2   0.036939 0.316818 0.318675 -0.577466
O7    O     O_2   0.934227 0.801395 0.727018 -0.588990
O8    O     O_2   0.677722 0.029104 0.780944 -0.538852
O9    O     O_2   0.410628 0.920005 0.174045 -0.542609
O10   O     O_2   0.430869 0.658761 0.958766 -0.570975

loop_
_geom_bond_atom_site_label_1
_geom_bond_atom_site_label_2
_ccdc_geom_bond_type
N16   Ni2   S    
C46   H3    S    
N10   Ni2   S    
C88   O10   D    
N15   Ni3   S    
C27   C29   A    
C1    C77   A    
C14   C18   A    
N12   Ni3   S    
C70   F6    S    
C33   H11   S    
C76   C79   A    
C75   N7    A    
C17   N11   A    
C39   H8    S    
C41   C56   A    
N4    N15   A    
C89   H29   S    
C15   C19   A    
C13   C83   S    
C6    C66   S    
C73   N5    A    
C84   O6    D    
N6    Ni3   S    
C74   N6    A    
C19   C21   A    
C24   C26   A    
C38   C42   A    
N3    Ni1   S    
C11   C14   A    
C57   C59   A    
N4    Ni2   S    
C10   F4    S    
C40   C86   S    
C49   C54   A    
C12   C79   A    
C22   H44   S    
C27   H46   S    
C49   C57   A    
C60   C62   A    
C20   H42   S    
C37   C42   A    
C61   C63   A    
C72   C78   A    
N3    N14   A    
N7    Ni3   S    
C86   H38   S    
C29   C78   S    
C57   H14   S    
C53   H17   S    
C22   C25   A    
C36   C46   A    
C10   C35   A    
C8    F2    S    
C45   C49   S    
C67   C71   A    
C30   C67   S    
C35   H13   S    
C44   C47   A    
C55   H15   S    
C19   C31   S    
C11   C82   S    
C63   C85   S    
C9    C33   A    
C7    C33   A    
C12   N9    A    
C40   N12   A    
C40   C45   A    
C23   C73   A    
C5    C68   S    
N8    Ni4   S    
C42   H6    S    
C52   C54   A    
N13   Ni4   S    
C65   C90   S    
C41   C87   S    
C46   C48   A    
C51   H18   S    
C62   C66   A    
C45   C69   A    
C50   C53   A    
C64   C67   A    
C87   H39   S    
C88   H40   S    
C4    C6    A    
C26   H12   S    
C73   H25   S    
C39   C43   A    
C3    C5    A    
C58   C59   A    
C23   C37   S    
C83   O5    D    
C84   H36   S    
C50   C56   S    
C90   O2    D    
C82   H33   S    
C8    C35   A    
C76   H28   S    
N11   Ni1   S    
C2    C4    A    
C43   H5    S    
C80   O1    D    
C83   H35   S    
C38   H7    S    
C1    N1    A    
C28   H2    S    
C47   C48   A    
C76   N8    A    
C24   H45   S    
C87   O9    D    
C72   H24   S    
C69   N16   A    
C21   C24   A    
C54   H16   S    
C16   N10   A    
N2    Ni1   S    
N1    Ni1   S    
C75   C77   A    
C3    C79   S    
C52   C58   A    
C16   H9    S    
C34   C74   A    
C2    H30   S    
C65   N15   A    
C71   N3    A    
C20   C22   A    
C8    C68   A    
C16   C23   A    
C56   C70   A    
C13   C15   A    
C81   H32   S    
C75   H27   S    
C13   C26   A    
C60   H20   S    
C10   C61   A    
C51   C59   A    
N6    N11   A    
C21   H43   S    
C9    F3    S    
C7    F1    S    
C90   H41   S    
C39   C47   A    
C82   O4    D    
C52   H19   S    
C25   H1    S    
C62   C84   S    
C63   C68   A    
C81   O3    D    
C65   C78   A    
C71   H22   S    
C74   H26   S    
C27   C32   A    
C86   O8    D    
C38   C48   A    
C28   C31   A    
C69   F5    S    
N5    Ni4   S    
N12   N16   A    
C80   H31   S    
C6    C89   A    
C64   N14   A    
C70   N2    A    
C50   C55   A    
C3    C89   A    
C9    C60   A    
N9    Ni2   S    
N2    N13   A    
C28   C30   A    
N5    N10   A    
C4    C77   S    
C29   C31   A    
C61   H21   S    
C17   H10   S    
C7    C66   A    
C30   C32   A    
C44   H4    S    
C15   H34   S    
C37   C44   A    
C72   N4    A    
C34   C36   S    
C12   C81   S    
C18   C20   A    
C85   O7    D    
N14   Ni4   S    
C2    C5    A    
N1    N7    A    
C18   C32   S    
C14   H23   S    
C17   C34   A    
C55   C58   A    
C1    C80   S    
C11   C25   A    
N8    N9    A    
C36   C43   A    
C51   C53   A    
C64   C88   S    
C85   H37   S    
C41   N13   A    
