data_mof_unit_29989.cif
_audit_creation_date              2012-12-10T20:44:48-0500
_audit_creation_method            fapswitch 2.2
_symmetry_space_group_name_H-M    P1
_symmetry_Int_Tables_number       1
_space_group_crystal_system       triclinic
_cell_length_a                    10.008404
_cell_length_b                    10.730325
_cell_length_c                    16.771059
_cell_angle_alpha                 86.274794
_cell_angle_beta                  95.586916
_cell_angle_gamma                 92.798462
_cell_volume                      1787.11983866

loop_
_atom_site_label
_atom_site_type_symbol
_atom_type_description
_atom_site_fract_x
_atom_site_fract_y
_atom_site_fract_z
_atom_type_partial_charge
C1    C     C_R   0.497727 0.260647 0.502097 0.928875
C2    C     C_R   0.497235 0.128439 0.507907 -0.066459
C3    C     C_R   0.395129 0.055057 0.540993 -0.190888
C4    C     C_R   0.518953 0.501657 0.652975 0.881912
C5    C     C_R   0.400210 0.925830 0.542039 -0.215601
C6    C     C_R   0.507228 0.871597 0.509840 -0.060631
C7    C     C_R   0.616483 0.946620 0.487497 0.048564
C8    C     C_3   0.684114 0.956417 0.411217 -0.545462
C9    C     C_3   0.674989 0.096228 0.409421 0.235917
C10   C     C_R   0.073992 0.417112 0.548952 0.142753
C11   C     C_R   0.065975 0.570585 0.443248 0.087297
C12   C     C_R   0.653411 0.487344 0.784703 -0.212413
C13   C     C_R   0.925648 0.581265 0.449821 0.092706
C14   C     C_R   0.932275 0.414635 0.547464 0.118603
C15   C     C_3   0.940214 0.400358 0.636968 -0.542302
C16   C     C_R   0.502633 0.739799 0.501280 0.841026
C17   C     C_3   0.092433 0.403994 0.638042 0.219897
C18   C     C_R   0.480183 0.486737 0.347918 0.870893
C19   C     C_R   0.533569 0.517192 0.738612 -0.019925
C20   C     C_R   0.428576 0.566419 0.774387 -0.197359
C21   C     C_R   0.440435 0.579248 0.856291 -0.150684
C22   C     C_R   0.557378 0.541557 0.903202 0.322626
C23   C     C_R   0.579425 0.460270 0.142740 -0.190847
C24   C     C_R   0.665228 0.500336 0.866837 -0.186016
C25   C     C_3   0.118833 0.625441 0.365125 -0.368292
C26   C     C_3   0.204753 0.748445 0.370177 -0.253802
C27   C     C_3   0.169640 0.844339 0.301025 -0.968787
C28   C     C_3   0.865779 0.702219 0.414395 -0.382113
C29   C     C_3   0.778323 0.692491 0.333822 -0.283506
C30   C     C_3   0.811726 0.791225 0.267704 -0.946543
C31   C     C_3   0.222544 0.369301 0.250602 -0.416885
C32   C     C_3   0.212717 0.234535 0.223765 -0.294560
C33   C     C_3   0.075495 0.171911 0.236427 -0.904537
C34   C     C_R   0.583566 0.452741 0.224953 -0.194796
C35   C     C_3   0.205926 0.506750 0.082894 -0.418481
C36   C     C_3   0.147186 0.402905 0.029240 -0.318094
C37   C     C_3   0.048126 0.454665 0.961705 -0.873191
C38   C     C_R   0.457276 0.481160 0.096223 0.255839
C39   C     C_R   0.465878 0.459997 0.262532 -0.057467
C40   C     C_R   0.340106 0.443697 0.216420 0.058050
C41   C     C_R   0.335718 0.472121 0.132607 0.060288
C42   C     C_R   0.608808 0.073438 0.485089 0.067834
Cl1   Cl    Cl    0.566852 0.155173 0.325788 -0.688927
Cl2   Cl    Cl    0.164474 0.259313 0.672898 -0.628145
H1    H     H_    0.679847 0.441445 0.258978 0.175758
H2    H     H_    0.755139 0.471184 0.902856 0.142044
H3    H     H_    0.735870 0.450183 0.757887 0.158549
H4    H     H_    0.356994 0.614317 0.883460 0.144813
H5    H     H_    0.337111 0.594224 0.739301 0.150856
H6    H     H_    0.310632 0.096816 0.563069 0.209009
H7    H     H_    0.163758 0.800649 0.242442 0.266266
H8    H     H_    0.073344 0.886509 0.308582 0.272583
H9    H     H_    0.248612 0.920816 0.301304 0.282322
H10   H     H_    0.194342 0.792435 0.427283 0.229980
H11   H     H_    0.310891 0.727837 0.365515 0.245075
H12   H     H_    0.318046 0.868987 0.564650 0.166066
H13   H     H_    0.168205 0.554806 0.336669 0.194203
H14   H     H_    0.033839 0.638971 0.318870 0.195938
H15   H     H_    0.830218 0.885429 0.290919 0.278558
H16   H     H_    0.900281 0.765914 0.238432 0.262464
H17   H     H_    0.725880 0.795566 0.220498 0.267505
H18   H     H_    0.789655 0.600268 0.310353 0.222640
H19   H     H_    0.672210 0.704275 0.344079 0.238717
H20   H     H_    0.813874 0.740317 0.460860 0.215232
H21   H     H_    0.946342 0.775512 0.407343 0.193594
H22   H     H_    0.059493 0.165258 0.301225 0.269149
H23   H     H_    0.790981 0.933439 0.420918 0.172420
H24   H     H_    0.994273 0.225854 0.202409 0.267530
H25   H     H_    0.070130 0.076402 0.214316 0.262104
H26   H     H_    0.230671 0.231367 0.159796 0.225412
H27   H     H_    0.291481 0.179421 0.259178 0.270637
H28   H     H_    0.127225 0.416502 0.232755 0.183586
H29   H     H_    0.232797 0.359535 0.316794 0.229539
H30   H     H_    0.967165 0.502292 0.987028 0.254083
H31   H     H_    0.100635 0.522178 0.921050 0.262639
H32   H     H_    0.002268 0.377003 0.926218 0.258705
H33   H     H_    0.227982 0.357366 0.002349 0.242986
H34   H     H_    0.622973 0.911557 0.361149 0.242005
H35   H     H_    0.092455 0.330948 0.065557 0.224291
H36   H     H_    0.128775 0.532960 0.121208 0.183251
H37   H     H_    0.227208 0.593307 0.045214 0.211692
H38   H     H_    0.773899 0.147801 0.418346 0.123929
H39   H     H_    0.903104 0.482945 0.663391 0.180914
H40   H     H_    0.895192 0.309022 0.658443 0.235685
H41   H     H_    0.142917 0.487501 0.665462 0.115810
H42   H     H_    0.673175 0.456065 0.115952 0.161327
N1    N     N_2   0.564122 0.531263 0.987332 -0.205785
N2    N     N_2   0.452706 0.503174 0.012181 -0.189683
N3    N     N_R   0.142860 0.499130 0.500540 -0.151915
N4    N     N_R   0.857210 0.499170 0.500530 -0.124442
O1    O     O_R   0.614690 0.316790 0.499990 -0.612502
O2    O     O_R   0.385350 0.316760 0.500000 -0.597681
O3    O     O_R   0.627460 0.498860 0.616130 -0.623395
O4    O     O_R   0.398120 0.498820 0.616130 -0.601603
O5    O     O_R   0.614650 0.683240 0.500000 -0.626108
O6    O     O_R   0.385310 0.683210 0.500010 -0.640637
O7    O     O_R   0.601880 0.501180 0.383870 -0.620741
O8    O     O_R   0.372540 0.501140 0.383870 -0.651133
Zn1   Zn    Zn3+2 0.653130 0.500020 0.499990 0.947959
Zn2   Zn    Zn3+2 0.346870 0.499980 0.500010 0.951431

loop_
_geom_bond_atom_site_label_1
_geom_bond_atom_site_label_2
_ccdc_geom_bond_type
N1    N2    D    
C29   H19   S    
C13   N4    A    
C5    H12   S    
C19   C20   A    
C37   H30   S    
C26   H11   S    
C35   H37   S    
C7    C8    S    
C26   C27   S    
C29   C30   S    
C17   H41   S    
C28   C29   S    
C36   H33   S    
C5    C6    A    
O5    Zn1   S    
C31   H29   S    
C11   C25   S    
C10   C17   S    
C35   H36   S    
C31   C40   S    
C1    C2    S    
C7    C42   A    
C14   N4    A    
C4    C19   S    
C35   C36   S    
C10   N3    A    
C8    C9    S    
C23   H42   S    
C30   H16   S    
C13   C28   S    
C18   O7    A    
O3    Zn1   S    
C33   H25   S    
C9    H38   S    
C21   H4    S    
C37   H31   S    
C1    O1    A    
C21   C22   A    
C8    H34   S    
C25   H13   S    
C12   H3    S    
C26   H10   S    
O7    Zn1   S    
C3    H6    S    
C27   H7    S    
C33   H22   S    
C32   H27   S    
C16   O6    A    
C9    Cl1   S    
N3    Zn2   S    
C34   C39   A    
C38   C41   A    
C10   C14   A    
C39   C40   A    
C15   H39   S    
C25   C26   S    
C38   N2    S    
C18   C39   S    
C20   H5    S    
C11   N3    A    
C31   C32   S    
O4    Zn2   S    
C23   C34   A    
C30   H15   S    
C9    C42   S    
C34   H1    S    
C22   N1    S    
C15   H40   S    
C4    O4    A    
C28   H20   S    
C31   H28   S    
C37   H32   S    
C1    O2    A    
O8    Zn2   S    
C22   C24   A    
C25   H14   S    
N4    Zn1   S    
C27   H8    S    
O2    Zn2   S    
C15   C17   S    
C29   H18   S    
C40   C41   A    
C16   O5    A    
C3    C5    A    
C36   H35   S    
C32   H26   S    
C27   H9    S    
C6    C7    A    
C23   C38   A    
C12   C24   A    
C24   H2    S    
C32   C33   S    
C2    C3    A    
C17   Cl2   S    
C11   C13   A    
C2    C42   A    
O6    Zn2   S    
C12   C19   A    
C28   H21   S    
C35   C41   S    
C6    C16   S    
C4    O3    A    
C20   C21   A    
C8    H23   S    
C36   C37   S    
C30   H17   S    
C14   C15   S    
C18   O8    A    
O1    Zn1   S    
C33   H24   S    
