data_mof_unit_7521.cif
_audit_creation_date              2012-10-26T20:21:28-0400
_audit_creation_method            fapswitch 2.2
_symmetry_space_group_name_H-M    P1
_symmetry_Int_Tables_number       1
_space_group_crystal_system       triclinic
_cell_length_a                    10.946871
_cell_length_b                    9.666361
_cell_length_c                    11.703516
_cell_angle_alpha                 90.000025
_cell_angle_beta                  100.769243
_cell_angle_gamma                 90.000016
_cell_volume                      1216.61251302

loop_
_atom_site_label
_atom_site_type_symbol
_atom_type_description
_atom_site_fract_x
_atom_site_fract_y
_atom_site_fract_z
_atom_type_partial_charge
C1    C     C_R   0.263648 0.500505 0.506432 0.574997
C2    C     C_R   0.935812 0.629207 0.492758 0.114614
C3    C     C_R   0.934751 0.376283 0.485540 0.097920
C4    C     C_R   0.064188 0.629207 0.507242 0.114614
C5    C     C_R   0.869838 0.502421 0.488380 -0.020485
C6    C     C_R   0.130162 0.502421 0.511621 -0.020487
C7    C     C_R   0.414963 0.075727 0.417915 0.289040
C8    C     C_R   0.583248 0.924632 0.584436 0.267458
C9    C     C_R   0.585037 0.075727 0.582085 0.289040
C10   C     C_R   0.416752 0.924632 0.415564 0.267458
C11   C     C_R   0.736352 0.500505 0.493568 0.574999
C12   C     C_R   0.501710 0.499997 0.284477 0.569912
C13   C     C_R   0.498290 0.499997 0.715523 0.569912
C14   C     C_1   0.501284 0.499997 0.162654 0.033828
C15   C     C_1   0.498716 0.499997 0.837346 0.033828
C16   C     C_1   0.500515 0.500035 0.060014 0.020008
C17   C     C_1   0.499485 0.500035 0.939986 0.020008
C18   C     C_R   0.065249 0.376283 0.514460 0.097919
Cu1   Cu    Cu3+1 0.500000 0.640660 0.500000 1.124791
Cu2   Cu    Cu3+1 0.500000 0.359340 0.500000 1.165318
H1    H     H_    0.189815 0.273124 0.633250 0.227714
H2    H     H_    0.755206 0.641588 0.784361 0.352785
H3    H     H_    0.795609 0.351230 0.762097 0.350098
H4    H     H_    0.244795 0.641587 0.215640 0.352788
H5    H     H_    0.071617 0.176242 0.576801 0.273918
H6    H     H_    0.837723 0.788186 0.547288 0.311388
H7    H     H_    0.808955 0.760913 0.398609 0.248616
H8    H     H_    0.810186 0.273122 0.366750 0.227714
H9    H     H_    0.928383 0.176240 0.423203 0.273919
H10   H     H_    0.162277 0.788186 0.452712 0.311388
H11   H     H_    0.191045 0.760913 0.601392 0.248616
H12   H     H_    0.204387 0.351230 0.237908 0.350098
N1    N     N_R   0.500000 0.852070 0.500000 -0.321637
N2    N     N_R   0.500000 0.147930 0.500000 -0.322291
N3    N     N_3   0.131643 0.250867 0.553840 -0.521357
N4    N     N_3   0.875824 0.761765 0.475144 -0.537310
N5    N     N_3   0.868357 0.250867 0.446161 -0.521357
N6    N     N_3   0.124176 0.761765 0.524857 -0.537310
O1    O     O_R   0.319640 0.618740 0.499990 -0.484622
O2    O     O_2   0.172233 0.122537 0.341610 -0.249262
O3    O     O_3   0.282126 0.336291 0.295256 -0.487695
O4    O     O_2   0.803734 0.899032 0.750090 -0.197862
O5    O     O_2   0.607100 0.847393 0.808306 -0.245333
O6    O     O_3   0.718251 0.668494 0.703567 -0.505122
O7    O     O_2   0.695406 0.114534 0.806955 -0.201963
O8    O     O_2   0.827767 0.122537 0.658391 -0.249261
O9    O     O_3   0.717874 0.336291 0.704744 -0.487695
O10   O     O_2   0.196266 0.899032 0.249910 -0.197861
O11   O     O_2   0.392899 0.847393 0.191694 -0.245333
O12   O     O_R   0.680360 0.381260 0.500010 -0.424398
O13   O     O_3   0.281748 0.668494 0.296433 -0.505126
O14   O     O_R   0.680360 0.618740 0.500010 -0.484623
O15   O     O_R   0.319640 0.381260 0.499990 -0.424400
O16   O     O_R   0.500010 0.618790 0.337200 -0.435936
O17   O     O_R   0.499990 0.381210 0.662800 -0.451903
O18   O     O_R   0.499990 0.618790 0.662800 -0.435936
O19   O     O_R   0.500010 0.381210 0.337200 -0.451902
O20   O     O_2   0.304594 0.114533 0.193045 -0.201959
S1    S     S_3+6 0.295091 0.164682 0.312643 0.118225
S2    S     S_3+6 0.678381 0.835041 0.710681 0.089636
S3    S     S_3+6 0.704908 0.164683 0.687358 0.118225
S4    S     S_3+6 0.321619 0.835041 0.289319 0.089636

loop_
_geom_bond_atom_site_label_1
_geom_bond_atom_site_label_2
_ccdc_geom_bond_type
Cu1   O18   S    
O9    S3    S    
C7    C10   A    
C2    C4    A    
H12   O3    S    
C8    C9    A    
H1    N3    S    
Cu2   O12   S    
H7    N4    S    
C18   N3    S    
O10   S4    D    
Cu1   Cu2   S    
H11   N6    S    
C12   C14   S    
C13   O18   A    
Cu2   N2    S    
H4    O13   S    
C7    S1    S    
Cu2   O19   S    
O2    S1    D    
C8    S2    S    
O3    S1    S    
C10   S4    S    
O13   S4    S    
Cu1   O1    S    
O5    S2    D    
H5    N3    S    
Cu2   O17   S    
C9    S3    S    
C12   O19   A    
H8    N5    S    
Cu1   O16   S    
O7    S3    D    
O6    S2    S    
C5    C11   S    
C10   N1    A    
C8    N1    A    
C13   C15   S    
C9    N2    A    
C6    C18   A    
C7    N2    A    
C14   C16   T    
C2    C5    A    
H3    O9    S    
C1    O1    A    
O8    S3    D    
O4    S2    D    
C1    C6    S    
H6    N4    S    
C2    N4    S    
H10   N6    S    
C3    C18   A    
C4    C6    A    
Cu1   N1    S    
H9    N5    S    
C15   C17   T    
C11   O12   A    
H2    O6    S    
C16   C17   S    
O11   S4    D    
C1    O15   A    
C11   O14   A    
C3    C5    A    
O20   S1    D    
Cu1   O14   S    
C12   O16   A    
C3    N5    S    
C4    N6    S    
Cu2   O15   S    
C13   O17   A    
