data_mof_unit_49108.cif
_audit_creation_date              2012-12-10T18:43:48-0500
_audit_creation_method            fapswitch 2.2
_symmetry_space_group_name_H-M    P1
_symmetry_Int_Tables_number       1
_space_group_crystal_system       triclinic
_cell_length_a                    10.458281
_cell_length_b                    10.714945
_cell_length_c                    9.846634
_cell_angle_alpha                 90.624309
_cell_angle_beta                  102.038856
_cell_angle_gamma                 90.55909
_cell_volume                      1078.99911633

loop_
_atom_site_label
_atom_site_type_symbol
_atom_type_description
_atom_site_fract_x
_atom_site_fract_y
_atom_site_fract_z
_atom_type_partial_charge
C1    C     C_R   0.495583 0.259950 0.497705 0.916618
C2    C     C_R   0.505571 0.739785 0.502104 0.863426
C3    C     C_R   0.256896 0.497196 0.444035 0.831111
C4    C     C_R   0.742839 0.495073 0.555660 0.836969
C5    C     C_R   0.591004 0.568965 0.093530 0.555465
C6    C     C_R   0.410343 0.429691 0.907054 0.545880
C7    C     C_R   0.590633 0.568199 0.948637 -0.316555
C8    C     C_R   0.410089 0.431085 0.051632 -0.316564
C9    C     C_2   0.115366 0.478368 0.417420 0.204621
C10   C     C_2   0.883103 0.471982 0.580207 0.215804
C11   C     C_2   0.066778 0.392267 0.492366 0.355002
C12   C     C_2   0.926821 0.392835 0.492963 0.360611
C13   C     C_R   0.424172 0.057183 0.380820 0.178437
C14   C     C_R   0.582430 0.941939 0.614408 0.170052
C15   C     C_R   0.430790 0.929064 0.388388 -0.243359
C16   C     C_R   0.573050 0.070095 0.609230 -0.230433
C17   C     C_R   0.507770 0.872150 0.503219 -0.081273
C18   C     C_R   0.495240 0.127276 0.494888 -0.061853
H1    H     H_    0.663094 0.621482 0.909339 0.162307
H2    H     H_    0.338129 0.377041 0.090922 0.157985
H3    H     H_    0.373876 0.872526 0.304671 0.158848
H4    H     H_    0.630405 0.126011 0.693274 0.163429
N1    N     N_R   0.499970 0.499970 0.857200 -0.098130
N2    N     N_R   0.500030 0.500030 0.142800 -0.093066
O1    O     O_R   0.499990 0.316750 0.614620 -0.571432
O2    O     O_R   0.500010 0.683250 0.385380 -0.584717
O3    O     O_R   0.499990 0.316780 0.385290 -0.612785
O4    O     O_R   0.500010 0.683220 0.614710 -0.620277
O5    O     O_R   0.317810 0.500000 0.571850 -0.508373
O6    O     O_R   0.682190 0.500000 0.428150 -0.497040
O7    O     O_R   0.317810 0.500030 0.342520 -0.640938
O8    O     O_R   0.682190 0.499970 0.657480 -0.647810
Zn1   Zn    Zn3+2 0.500000 0.499980 0.653120 1.019240
Zn2   Zn    Zn3+2 0.500000 0.500020 0.346880 1.024770
O9    O     O_3   0.840907 0.318111 0.399758 -0.776209
H5    H     H_    0.892398 0.268804 0.344683 0.333346
O10   O     O_3   0.147676 0.307239 0.571617 -0.755326
H6    H     H_    0.093035 0.252562 0.617788 0.335626
O11   O     O_3   0.681706 0.638273 0.186526 -0.708827
H7    H     H_    0.741613 0.680702 0.135466 0.316080
O12   O     O_3   0.322359 0.357214 0.815208 -0.674338
H8    H     H_    0.265181 0.311675 0.867073 0.315271
O13   O     O_3   0.970338 0.535287 0.683532 -0.777166
H9    H     H_    0.919846 0.591994 0.732237 0.327312
O14   O     O_3   0.032166 0.552183 0.324777 -0.769610
H10   H     H_    0.086238 0.611889 0.283991 0.330548
C19   C     C_3   0.340084 0.112470 0.251190 -0.422022
C20   C     C_3   0.216505 0.171054 0.280966 -0.822117
H11   H     H_    0.158201 0.100660 0.324716 0.265208
H12   H     H_    0.241936 0.249580 0.355349 0.272345
H13   H     H_    0.156148 0.207206 0.183304 0.239397
H14   H     H_    0.396854 0.180434 0.202990 0.226831
H15   H     H_    0.308650 0.039125 0.169953 0.201385
C21   C     C_3   0.677186 0.886070 0.735676 -0.408788
C22   C     C_3   0.621707 0.890312 0.867313 -0.818741
H16   H     H_    0.601321 0.987981 0.894376 0.258588
H17   H     H_    0.529805 0.834331 0.852528 0.274606
H18   H     H_    0.693882 0.851602 0.955126 0.233715
H19   H     H_    0.703642 0.788969 0.714206 0.205764
H20   H     H_    0.770666 0.940128 0.754416 0.201148

loop_
_geom_bond_atom_site_label_1
_geom_bond_atom_site_label_2
_ccdc_geom_bond_type
C6    C8    A    
C11   C12   S    
C1    O1    A    
C11   O10   S    
C9    O14   S    
C19   H14   S    
C3    C9    S    
C4    O8    A    
O12   H8    S    
O9    H5    S    
C13   C15   A    
C19   H15   S    
O8    Zn1   S    
C22   H16   S    
C20   H12   S    
O7    Zn2   S    
C2    O2    A    
C21   H20   S    
O14   H10   S    
C2    C17   S    
C3    O7    A    
C9    C11   D    
C14   C17   A    
C3    O5    A    
C1    C18   S    
O10   H6    S    
C5    N2    A    
C10   C12   D    
C13   C18   A    
C8    H2    S    
C7    N1    A    
C6    N1    A    
C16   C18   A    
C20   H11   S    
C14   C21   S    
O4    Zn1   S    
C7    H1    S    
C21   H19   S    
C22   H17   S    
O3    Zn2   S    
O13   H9    S    
C14   C16   A    
O6    Zn2   S    
C4    C10   S    
O5    Zn1   S    
C15   H3    S    
N1    Zn1   S    
C1    O3    A    
C22   H18   S    
O1    Zn1   S    
O11   H7    S    
C5    C7    A    
C5    O11   S    
C21   C22   S    
C2    O4    A    
C8    N2    A    
C10   O13   S    
C15   C17   A    
C13   C19   S    
O2    Zn2   S    
C20   H13   S    
C4    O6    A    
C19   C20   S    
C16   H4    S    
C12   O9    S    
C6    O12   S    
N2    Zn2   S    
