data_mof_unit_39120.cif
_audit_creation_date              2013-03-05T15:45:48-0500
_audit_creation_method            fapswitch 2.2
_symmetry_space_group_name_H-M    P1
_symmetry_Int_Tables_number       1
_space_group_crystal_system       triclinic
_cell_length_a                    9.855711
_cell_length_b                    10.947363
_cell_length_c                    15.794605
_cell_angle_alpha                 96.220345
_cell_angle_beta                  78.624568
_cell_angle_gamma                 110.929896
_cell_volume                      1559.09691907

loop_
_atom_site_label
_atom_site_type_symbol
_atom_site_description
_atom_site_fract_x
_atom_site_fract_y
_atom_site_fract_z
_atom_type_partial_charge
O1    O     O_R   0.426810 0.668300 0.492040 -0.552101
O2    O     O_R   0.573190 0.331700 0.507960 -0.596461
O3    O     O_R   0.658240 0.703130 0.517240 -0.579237
O4    O     O_R   0.341760 0.296870 0.482760 -0.578766
C1    C     C_R   0.557652 0.745595 0.503967 0.837219
C2    C     C_R   0.445881 0.254456 0.491087 0.832733
O5    O     O_R   0.319390 0.472820 0.610170 -0.536314
O6    O     O_R   0.680610 0.527180 0.389830 -0.539228
O7    O     O_R   0.550820 0.507640 0.635370 -0.537088
O8    O     O_R   0.449180 0.492360 0.364630 -0.533587
C3    C     C_R   0.411319 0.486592 0.662870 0.854652
C4    C     C_R   0.589336 0.517289 0.337189 0.828985
Cu1   Cu    Cu3+1 0.362980 0.479380 0.485080 0.974268
Cu2   Cu    Cu3+1 0.637020 0.520620 0.514920 0.959886
C5    C     C_R   0.357140 0.468048 0.756073 -0.222846
C6    C     C_R   0.643043 0.532254 0.243297 -0.214237
C7    C     C_R   0.160995 0.368465 0.874188 0.513784
C8    C     C_R   0.841615 0.568842 0.119238 0.493119
C9    C     C_R   0.208940 0.400344 0.787009 -0.406381
C10   C     C_R   0.790669 0.553399 0.208352 -0.410249
C11   C     C_R   0.457812 0.513197 0.813937 0.405468
C12   C     C_R   0.545203 0.527644 0.188031 0.391841
C13   C     C_R   0.418000 0.465461 0.898224 -0.128740
C14   C     C_R   0.585689 0.512245 0.097721 -0.122234
C15   C     C_R   0.266094 0.397954 0.930154 -0.102512
C16   C     C_R   0.737862 0.541019 0.062519 -0.101573
C17   C     C_R   0.525011 0.487036 0.952298 0.025957
C18   C     C_R   0.478701 0.471346 0.041879 0.032061
C19   C     C_R   0.328427 0.402431 0.071980 -0.271093
C20   C     C_R   0.675545 0.512850 0.918537 -0.266643
C21   C     C_R   0.223928 0.358839 0.016585 0.474487
C22   C     C_R   0.781496 0.541062 0.971852 0.449777
C23   C     C_2   0.592130 0.885989 0.505357 -0.356451
C24   C     C_2   0.423652 0.115533 0.476615 -0.370117
C25   C     C_2   0.514295 0.935478 0.468264 -0.166938
C26   C     C_2   0.531878 0.072683 0.483422 -0.171416
N1    N     N_2   0.842890 0.551600 0.537350 -0.325638
N2    N     N_2   0.157110 0.448400 0.462650 -0.316021
C27   C     C_2   0.935971 0.509806 0.482317 0.382723
C28   C     C_2   0.080496 0.517545 0.505731 0.408347
O9    O     O_3   0.078962 0.283008 0.047646 -0.514848
C29   C     C_3   0.073757 0.165121 0.079757 0.060658
H1    H     H_    0.106866 0.183429 0.144517 0.140116
H2    H     H_    0.146141 0.118806 0.035154 0.115447
C30   C     C_3   0.916632 0.067879 0.090492 -0.821188
H3    H     H_    0.885400 0.030505 0.026453 0.232513
H4    H     H_    0.908325 0.983409 0.126801 0.183932
H5    H     H_    0.838624 0.115146 0.126761 0.260282
O10   O     O_3   0.925070 0.554645 0.934302 -0.485705
C31   C     C_3   0.994066 0.677878 0.896655 0.118017
H6    H     H_    0.001461 0.757982 0.947256 0.126158
H7    H     H_    0.933782 0.690676 0.847507 0.126759
C32   C     C_3   0.149288 0.689112 0.851678 -0.790602
H8    H     H_    0.144191 0.629035 0.790353 0.262784
H9    H     H_    0.215205 0.792711 0.837143 0.173407
H10   H     H_    0.205051 0.653860 0.893253 0.268680
O11   O     O_3   0.411264 0.542356 0.222514 -0.575536
C33   C     C_3   0.431095 0.676998 0.231228 0.092861
H11   H     H_    0.456313 0.718780 0.166441 0.135700
H12   H     H_    0.521560 0.732672 0.268049 0.121333
C34   C     C_3   0.289365 0.693309 0.280675 -0.772072
H13   H     H_    0.270147 0.663404 0.348140 0.249021
H14   H     H_    0.297422 0.797220 0.281622 0.177692
H15   H     H_    0.194663 0.630715 0.249651 0.272724
O12   O     O_3   0.594733 0.606485 0.788003 -0.582540
C35   C     C_3   0.580462 0.731210 0.795450 0.085535
H16   H     H_    0.551163 0.759656 0.864647 0.138727
H17   H     H_    0.495259 0.733856 0.759261 0.127489
C36   C     C_3   0.726949 0.831039 0.757286 -0.823121
H18   H     H_    0.762226 0.800592 0.689581 0.264325
H19   H     H_    0.715153 0.928140 0.757304 0.194487
H20   H     H_    0.812631 0.839255 0.796037 0.226320
H21   H     H_    0.867973 0.562131 0.250597 0.224854
H22   H     H_    0.129634 0.376650 0.743806 0.194538
O13   O     O_3   0.011549 0.326761 0.907453 -0.471382
C37   C     C_3   0.939043 0.201010 0.872904 0.123350
H23   H     H_    0.985463 0.129001 0.888762 0.122034
H24   H     H_    0.947466 0.200098 0.801642 0.109744
C38   C     C_3   0.776115 0.159305 0.912372 -0.764796
H25   H     H_    0.724733 0.222258 0.889681 0.242217
H26   H     H_    0.718810 0.055826 0.893168 0.178927
H27   H     H_    0.762361 0.169152 0.983963 0.268828
O14   O     O_3   0.991198 0.601612 0.087256 -0.504334
C39   C     C_3   0.067430 0.729129 0.118611 0.081642
H28   H     H_    0.061629 0.732240 0.189704 0.133523
H29   H     H_    0.021132 0.801531 0.103045 0.109125
C40   C     C_3   0.229473 0.770721 0.077294 -0.801844
H30   H     H_    0.244307 0.801272 0.010536 0.228653
H31   H     H_    0.295020 0.855455 0.114844 0.190420
H32   H     H_    0.271379 0.688739 0.075896 0.270816
H33   H     H_    0.291456 0.372325 0.137683 0.194545
H34   H     H_    0.712568 0.501469 0.850053 0.209347
H35   H     H_    0.632594 0.138182 0.504617 0.172837
H36   H     H_    0.432614 0.873792 0.430417 0.165158
H37   H     H_    0.320853 0.048772 0.458517 0.147474
H38   H     H_    0.678428 0.949097 0.540055 0.146881
O15   O     O_3   0.130136 0.594608 0.577044 -0.559420
C41   C     C_3   0.152175 0.727570 0.565722 0.089109
H39   H     H_    0.047605 0.746120 0.570498 0.116679
H40   H     H_    0.218216 0.759560 0.501670 0.139260
C42   C     C_3   0.230137 0.813356 0.636347 -0.783505
H41   H     H_    0.326051 0.787376 0.643841 0.254848
H42   H     H_    0.268584 0.917872 0.620317 0.212203
H43   H     H_    0.151669 0.800284 0.698259 0.223886
O16   O     O_3   0.916252 0.480696 0.396785 -0.574824
C43   C     C_3   0.860478 0.343535 0.379586 0.080092
H44   H     H_    0.740684 0.311810 0.379744 0.197011
H45   H     H_    0.878164 0.284524 0.426993 0.088697
C44   C     C_3   0.929623 0.310055 0.288905 -0.828670
H46   H     H_    0.051563 0.354606 0.278736 0.259854
H47   H     H_    0.898560 0.202175 0.279332 0.205098
H48   H     H_    0.888967 0.346309 0.239535 0.271597
H49   H     H_    0.123889 0.394072 0.408779 0.191348
H50   H     H_    0.857637 0.564396 0.600939 0.195393

loop_
_geom_bond_atom_site_label_1
_geom_bond_atom_site_label_2
_geom_bond_distance
_ccdc_geom_bond_type
C15   C21   1.412593 A    
C35   H17   1.114915 S    
C40   H30   1.107125 S    
C16   C22   1.411655 A    
C42   H41   1.109952 S    
C34   H15   1.109752 S    
O9    C29   1.417626 S    
C25   C26   1.447725 S    
C8    C16   1.421500 A    
C37   C38   1.522688 S    
O7    Cu2   1.922517 S    
C12   O11   1.383620 S    
O15   C41   1.418836 S    
C30   H3    1.108312 S    
C5    C9    1.394628 A    
O1    C1    1.302345 A    
C18   C19   1.410816 A    
C14   C16   1.424484 A    
C44   H47   1.110216 S    
C25   H36   1.084150 S    
C35   C36   1.521267 S    
C43   H44   1.104827 S    
C33   H12   1.115412 S    
C41   H39   1.106619 S    
C34   H14   1.110315 S    
O4    Cu1   1.930212 S    
C36   H19   1.109813 S    
C23   C25   1.329753 D    
C3    C5    1.473325 S    
C39   H28   1.110447 S    
C4    C6    1.478956 S    
C1    C23   1.449364 S    
C31   H7    1.113646 S    
C39   C40   1.522334 S    
C13   C17   1.425201 A    
C20   C22   1.398211 A    
C24   C26   1.335286 D    
C34   H13   1.109137 S    
C6    C10   1.394779 A    
C33   C34   1.520086 S    
C30   H4    1.110411 S    
C35   H16   1.113931 S    
C42   H42   1.109956 S    
Cu1   Cu2   2.702863 S    
C17   C20   1.409382 A    
O2    C2    1.298245 A    
C29   H2    1.115825 S    
C26   H35   1.087238 S    
C31   H6    1.112890 S    
C32   H9    1.110041 S    
C31   C32   1.521825 S    
C37   H23   1.113167 S    
C20   H34   1.079946 S    
C44   H48   1.109096 S    
C28   O15   1.391525 S    
C38   H26   1.109177 S    
N2    H49   1.022750 S    
N1    H50   1.030557 S    
C30   H5    1.110522 S    
C33   H11   1.112647 S    
C32   H8    1.109410 S    
C2    C24   1.455877 S    
C6    C12   1.407876 A    
C29   C30   1.522445 S    
C36   H20   1.110636 S    
O5    C3    1.307348 A    
O13   C37   1.411294 S    
O14   C39   1.416375 S    
C5    C11   1.404804 A    
O6    C4    1.310793 A    
C8    O14   1.387407 S    
C24   H37   1.087330 S    
O7    C3    1.300708 A    
Cu1   N2    2.030574 S    
O3    Cu2   1.930210 S    
O8    C4    1.300215 A    
O4    C2    1.301092 A    
O12   C35   1.412039 S    
C42   H43   1.108033 S    
C41   H40   1.106324 S    
C11   C13   1.413356 A    
C12   C14   1.411978 A    
O1    Cu1   1.932265 S    
C29   H1    1.110594 S    
C23   H38   1.087681 S    
C19   H33   1.075868 S    
C32   H10   1.109495 S    
C27   O16   1.389390 S    
O6    Cu2   1.940921 S    
C21   O9    1.391229 S    
C11   O12   1.385554 S    
C9    H22   1.082138 S    
C14   C18   1.426274 A    
C37   H24   1.111385 S    
O3    C1    1.294313 A    
O8    Cu1   1.922514 S    
C38   H27   1.110032 S    
C41   C42   1.520607 S    
O16   C43   1.418248 S    
C7    C15   1.420914 A    
C40   H31   1.110552 S    
C19   C21   1.402786 A    
C44   H46   1.109080 S    
Cu2   N1    2.030575 S    
N2    C28   1.303924 D    
O11   C33   1.410871 S    
C43   H45   1.115862 S    
C7    C9    1.403839 A    
C10   H21   1.081434 S    
C8    C10   1.404970 A    
C13   C15   1.426308 A    
C36   H18   1.111046 S    
O2    Cu2   1.932267 S    
C22   O10   1.383435 S    
C38   H25   1.110990 S    
C27   C28   1.512486 S    
O5    Cu1   1.940923 S    
N1    C27   1.305992 D    
O10   C31   1.412410 S    
C40   H32   1.110626 S    
C17   C18   1.407722 A    
C7    O13   1.385704 S    
C39   H29   1.114338 S    
C43   C44   1.526362 S    
