data_mof_unit_51610.cif
_audit_creation_date              2012-12-10T20:30:59-0500
_audit_creation_method            fapswitch 2.2
_symmetry_space_group_name_H-M    P1
_symmetry_Int_Tables_number       1
_space_group_crystal_system       triclinic
_cell_length_a                    14.90774
_cell_length_b                    10.676255
_cell_length_c                    9.862324
_cell_angle_alpha                 90.004948
_cell_angle_beta                  89.970103
_cell_angle_gamma                 90.528816
_cell_volume                      1569.60891057

loop_
_atom_site_label
_atom_site_type_symbol
_atom_type_description
_atom_site_fract_x
_atom_site_fract_y
_atom_site_fract_z
_atom_type_partial_charge
C1    C     C_R   0.502436 0.259995 0.499920 0.879217
C2    C     C_R   0.908955 0.617239 0.481516 0.124018
C3    C     C_R   0.949727 0.270815 0.531014 0.080965
C4    C     C_R   0.044402 0.270382 0.533078 0.325945
C5    C     C_R   0.092657 0.383663 0.517332 0.008119
C6    C     C_R   0.047196 0.498116 0.497879 0.007069
C7    C     C_R   0.096038 0.611088 0.478017 0.156612
C8    C     C_R   0.052240 0.723964 0.457886 -0.201300
C9    C     C_R   0.959779 0.727265 0.459284 -0.221886
C10   C     C_R   0.186297 0.385934 0.519630 -0.191720
C11   C     C_R   0.232292 0.498050 0.499882 -0.080450
C12   C     C_R   0.327225 0.498459 0.500038 0.891747
C13   C     C_R   0.188611 0.609835 0.478105 -0.247387
C14   C     C_R   0.523227 0.064144 0.621275 0.119707
C15   C     C_R   0.515862 0.128731 0.499233 -0.096706
C16   C     C_R   0.524412 0.064914 0.375701 -0.235546
C17   C     C_R   0.523705 0.935713 0.375640 -0.217492
C18   C     C_R   0.515324 0.871666 0.499175 -0.090353
C19   C     C_R   0.523253 0.936270 0.621256 0.105326
C20   C     C_3   0.466845 0.928460 0.746433 -0.456964
C21   C     C_3   0.466448 0.070385 0.746055 -0.471382
C22   C     C_R   0.457995 0.405889 0.071297 0.205394
C23   C     C_R   0.502091 0.740071 0.499864 0.867689
C24   C     C_R   0.547910 0.586662 0.071882 -0.124667
C25   C     C_R   0.548004 0.586606 0.927910 -0.124937
C26   C     C_R   0.457876 0.406000 0.928714 0.204642
C27   C     C_3   0.360459 0.373385 0.923439 -0.495883
C28   C     C_3   0.360729 0.372817 0.077379 -0.490626
C29   C     C_R   0.672838 0.502349 0.500049 0.875770
C30   C     C_R   0.814797 0.620732 0.486811 0.030470
C31   C     C_R   0.768291 0.506724 0.500635 -0.069679
C32   C     C_R   0.811488 0.393157 0.514605 -0.268848
C33   C     C_R   0.904709 0.387113 0.515447 0.019324
C34   C     C_R   0.953555 0.500572 0.498432 -0.008504
H1    H     H_    0.524382 0.887087 0.279223 0.172326
H2    H     H_    0.399614 0.885885 0.727585 0.217013
H3    H     H_    0.504162 0.888325 0.833537 0.193995
H4    H     H_    0.399027 0.110073 0.726091 0.212002
H5    H     H_    0.503124 0.112440 0.833258 0.197944
H6    H     H_    0.585016 0.658245 0.126017 0.130224
H7    H     H_    0.585375 0.657963 0.873536 0.141600
H8    H     H_    0.319263 0.449597 0.879527 0.229031
H9    H     H_    0.348114 0.279254 0.878929 0.202768
H10   H     H_    0.319490 0.448500 0.122337 0.228512
H11   H     H_    0.769936 0.310276 0.525604 0.139154
H12   H     H_    0.349098 0.278233 0.121479 0.206511
H13   H     H_    0.224906 0.301776 0.535251 0.189095
H14   H     H_    0.226999 0.695598 0.462537 0.140692
H15   H     H_    0.089639 0.810222 0.441247 0.184289
H16   H     H_    0.929530 0.817159 0.441171 0.168753
H17   H     H_    0.525373 0.113580 0.279310 0.174451
N1    N     N_R   0.499390 0.499140 0.142800 -0.105765
N2    N     N_R   0.499390 0.499180 0.857150 -0.105369
O1    O     O_R   0.500010 0.316790 0.614690 -0.619283
O2    O     O_R   0.500000 0.316760 0.385350 -0.624227
O3    O     O_R   0.367850 0.499990 0.614680 -0.616225
O4    O     O_R   0.367840 0.499950 0.385340 -0.613417
O5    O     O_R   0.500000 0.683240 0.614650 -0.623510
O6    O     O_R   0.499990 0.683210 0.385310 -0.630907
O7    O     O_R   0.632160 0.500050 0.614660 -0.622564
O8    O     O_R   0.632150 0.500010 0.385320 -0.618603
Zn1   Zn    Zn3+2 0.500010 0.500020 0.653130 0.943246
Zn2   Zn    Zn3+2 0.499990 0.499980 0.346870 0.942647
C35   C     C_3   0.764210 0.744222 0.479328 -0.429146
C36   C     C_3   0.751096 0.785942 0.331415 -0.317848
C37   C     C_3   0.751452 0.928311 0.318032 -0.912226
H18   H     H_    0.708935 0.971651 0.397278 0.277135
H19   H     H_    0.821056 0.964660 0.328260 0.251969
H20   H     H_    0.725703 0.955238 0.216616 0.252368
H21   H     H_    0.804822 0.748522 0.264864 0.227820
H22   H     H_    0.686082 0.748086 0.293922 0.223262
H23   H     H_    0.697525 0.736979 0.528852 0.178336
H24   H     H_    0.799377 0.816730 0.540777 0.201322
C38   C     C_3   0.897560 0.147177 0.541234 -0.360348
C39   C     C_3   0.857434 0.124713 0.682992 -0.390303
C40   C     C_3   0.928792 0.091591 0.787663 -0.732107
H25   H     H_    0.965697 0.006651 0.755612 0.277199
H26   H     H_    0.976778 0.170786 0.800996 0.278906
H27   H     H_    0.896132 0.072195 0.886769 0.221677
H28   H     H_    0.820487 0.208260 0.718764 0.226696
H29   H     H_    0.808574 0.045629 0.676600 0.202878
H30   H     H_    0.843346 0.145713 0.464395 0.152801
H31   H     H_    0.938480 0.065227 0.512443 0.238679
Cl1   Cl    Cl    0.103101 0.127676 0.555681 -0.711139

loop_
_geom_bond_atom_site_label_1
_geom_bond_atom_site_label_2
_ccdc_geom_bond_type
C24   N1    A    
C23   O5    A    
C37   H19   S    
O5    Zn1   S    
C30   C35   S    
C32   H11   S    
C19   C20   S    
C16   H17   S    
C38   H31   S    
C39   C40   S    
C7    C8    A    
C23   O6    A    
C28   H12   S    
C26   C27   S    
C14   C21   S    
C40   H26   S    
C5    C6    A    
C37   H20   S    
C16   C17   A    
C3    C33   A    
C36   H21   S    
O7    Zn1   S    
C18   C19   A    
O8    Zn2   S    
C3    C38   S    
C21   H4    S    
C8    C9    A    
C21   H5    S    
C35   H24   S    
C40   H27   S    
C1    C15   S    
C39   H28   S    
C2    C34   A    
C37   H18   S    
C22   C28   S    
C38   H30   S    
O4    Zn2   S    
C29   O8    A    
C38   C39   S    
C18   C23   S    
C40   H25   S    
C25   H7    S    
C39   H29   S    
O1    Zn1   S    
C36   H22   S    
C28   H10   S    
C6    C34   A    
O2    Zn2   S    
C1    O1    A    
N2    Zn1   S    
C31   C32   A    
C4    Cl1   S    
C29   O7    A    
C17   C18   A    
C24   C25   A    
C12   O3    A    
C12   O4    A    
O3    Zn1   S    
C3    C4    A    
C26   N2    A    
C10   H13   S    
C22   N1    A    
C14   C19   A    
C9    H16   S    
C25   N2    A    
C4    C5    A    
N1    Zn2   S    
C13   H14   S    
C11   C12   S    
C6    C7    A    
O6    Zn2   S    
C2    C30   A    
C35   C36   S    
C1    O2    A    
C5    C10   A    
C29   C31   S    
C32   C33   A    
C20   H3    S    
C11   C13   A    
C27   H8    S    
C30   C31   A    
C24   H6    S    
C33   C34   A    
C35   H23   S    
C10   C11   A    
C20   H2    S    
C27   H9    S    
C7    C13   A    
C20   C21   S    
C36   C37   S    
C22   C26   A    
C27   C28   S    
C14   C15   A    
C17   H1    S    
C2    C9    A    
C8    H15   S    
C15   C16   A    
