data_mof_unit_58671.cif
_audit_creation_date              2012-10-26T18:26:13-0400
_audit_creation_method            fapswitch 2.2
_symmetry_space_group_name_H-M    P1
_symmetry_Int_Tables_number       1
_space_group_crystal_system       triclinic
_cell_length_a                    13.83504
_cell_length_b                    8.695118
_cell_length_c                    7.517068
_cell_angle_alpha                 103.152642
_cell_angle_beta                  89.644819
_cell_angle_gamma                 93.523918
_cell_volume                      878.868100604

loop_
_atom_site_label
_atom_site_type_symbol
_atom_type_description
_atom_site_fract_x
_atom_site_fract_y
_atom_site_fract_z
_atom_type_partial_charge
C1    C     C_R   0.495829 0.199932 0.454026 0.529508
C2    C     C_1   0.870251 0.495909 0.435895 -0.051644
C3    C     C_2   0.491538 0.031754 0.429458 -0.165638
C4    C     C_2   0.503791 0.968318 0.572322 -0.164563
C5    C     C_3   0.334724 0.304872 0.005288 0.040351
C6    C     C_3   0.273453 0.188198 0.862085 -0.401425
C7    C     C_3   0.622906 0.766437 0.011181 0.043486
C8    C     C_3   0.696083 0.864950 0.147534 -0.400278
C9    C     C_R   0.502466 0.800070 0.546461 0.522041
C10   C     C_R   0.318803 0.502333 0.530643 0.524808
C11   C     C_R   0.681207 0.497851 0.469360 0.530963
C12   C     C_1   0.783742 0.496640 0.449349 -0.014479
C13   C     C_1   0.216274 0.503575 0.550561 -0.037670
C14   C     C_2   0.973680 0.495359 0.424649 -0.123966
C15   C     C_2   0.026341 0.504586 0.575176 -0.123831
C16   C     C_1   0.129767 0.504184 0.563962 -0.061800
Cu1   Cu    Cu3+1 0.510540 0.517220 0.682700 1.035083
Cu2   Cu    Cu3+1 0.489460 0.482780 0.317300 1.034477
H1    H     H_    0.992121 0.512520 0.707217 0.133732
H2    H     H_    0.556735 0.833788 0.016554 0.136562
H3    H     H_    0.656765 0.748455 0.874879 0.170706
H4    H     H_    0.764809 0.804212 0.140392 0.151531
H5    H     H_    0.711074 0.982620 0.115470 0.105620
H6    H     H_    0.667499 0.881961 0.288459 0.161937
H7    H     H_    0.007908 0.487422 0.292611 0.130748
H8    H     H_    0.478623 0.959739 0.292496 0.124858
H9    H     H_    0.515825 0.040312 0.709818 0.154288
H10   H     H_    0.295314 0.415230 0.045875 0.143923
H11   H     H_    0.343828 0.248947 0.122071 0.167591
H12   H     H_    0.310131 0.075726 0.818401 0.151719
H13   H     H_    0.201769 0.162950 0.920067 0.095975
H14   H     H_    0.262348 0.238400 0.741057 0.161102
N1    N     N_2   0.473570 0.456830 0.042740 0.095470
N2    N     N_2   0.526430 0.543170 0.957260 0.095397
O1    O     O_R   0.506850 0.286020 0.618680 -0.447864
O2    O     O_3   0.601722 0.621384 0.059191 -0.450665
O3    O     O_R   0.493150 0.713980 0.381320 -0.480313
O4    O     O_R   0.489050 0.256940 0.310110 -0.521250
O5    O     O_R   0.510950 0.743060 0.689890 -0.552359
O6    O     O_R   0.372320 0.516630 0.676100 -0.479090
O7    O     O_R   0.627680 0.483370 0.323900 -0.443333
O8    O     O_R   0.354510 0.487550 0.367530 -0.547690
O9    O     O_R   0.645490 0.512450 0.632470 -0.514988
O10   O     O_3   0.424638 0.335017 0.928959 -0.459032

loop_
_geom_bond_atom_site_label_1
_geom_bond_atom_site_label_2
_ccdc_geom_bond_type
C8    H4    S    
C11   C12   S    
Cu1   O9    S    
C11   O9    A    
C10   O8    A    
C5    H10   S    
C7    O2    S    
C5    H11   S    
C2    C12   T    
C8    H5    S    
C11   O7    A    
C9    O3    A    
Cu1   Cu2   S    
Cu2   O4    S    
C7    C8    S    
C10   C13   S    
C15   H1    S    
C1    O4    A    
C6    H12   S    
C5    O10   S    
N1    N2    D    
C6    H13   S    
N2    O2    S    
Cu2   O8    S    
C14   H7    S    
C5    C6    S    
C2    C14   S    
Cu2   N1    S    
Cu2   O7    S    
Cu1   N2    S    
C3    C4    D    
C9    O5    A    
C4    H9    S    
C1    O1    A    
C10   O6    A    
C7    H2    S    
Cu1   O5    S    
C13   C16   T    
C1    C3    S    
C14   C15   D    
Cu1   O1    S    
C8    H6    S    
C4    C9    S    
C7    H3    S    
N1    O10   S    
Cu2   O3    S    
C3    H8    S    
C15   C16   S    
C6    H14   S    
Cu1   O6    S    
