data_mof_unit_33773.cif
_audit_creation_date              2012-12-11T15:14:50-0500
_audit_creation_method            fapswitch 2.2
_symmetry_space_group_name_H-M    P1
_symmetry_Int_Tables_number       1
_space_group_crystal_system       triclinic
_cell_length_a                    22.303601
_cell_length_b                    7.232687
_cell_length_c                    19.272726
_cell_angle_alpha                 89.999364
_cell_angle_beta                  99.168115
_cell_angle_gamma                 89.999797
_cell_volume                      3069.26217856

loop_
_atom_site_label
_atom_site_type_symbol
_atom_type_description
_atom_site_fract_x
_atom_site_fract_y
_atom_site_fract_z
_atom_type_partial_charge
O1    O     O_R   0.448470 0.506130 0.415700 -0.527700
O2    O     O_R   0.551530 0.006130 0.584300 -0.527686
O3    O     O_R   0.436320 0.174490 0.555800 -0.534844
O4    O     O_R   0.563680 0.674490 0.444200 -0.534852
C1    C     C_R   0.421425 0.344295 0.575372 0.776752
C2    C     C_R   0.578575 0.844296 0.424628 0.776739
O5    O     O_R   0.441350 0.176340 0.414480 -0.543442
O6    O     O_R   0.558650 0.676340 0.585520 -0.543453
O7    O     O_R   0.556600 0.007100 0.441970 -0.525521
O8    O     O_R   0.443400 0.507100 0.558030 -0.525532
C3    C     C_R   0.426922 0.344789 0.389266 0.841176
C4    C     C_R   0.573078 0.844787 0.610734 0.841169
O9    O     O_3   0.537810 0.339550 0.509190 -0.380364
O10   O     O_3   0.462190 0.839550 0.490810 -0.380368
V1    V     V_3+5 0.492990 0.064280 0.498300 1.548691
V2    V     V_3+5 0.507010 0.564280 0.501700 1.548662
C5    C     C_R   0.871627 0.934859 0.694236 -0.123347
C6    C     C_R   0.128370 0.434765 0.305763 -0.123345
H1    H     H_    0.891999 0.946234 0.647023 0.214836
H2    H     H_    0.107997 0.446096 0.352977 0.214836
C7    C     C_R   0.885819 0.938852 0.821139 -0.186203
C8    C     C_R   0.114180 0.438840 0.178861 -0.186202
C9    C     C_R   0.591732 0.823442 0.738925 -0.380408
C10   C     C_R   0.408272 0.323508 0.261073 -0.380417
C11   C     C_R   0.629027 0.794817 0.803564 0.474664
C12   C     C_R   0.370978 0.294907 0.196431 0.474664
C13   C     C_R   0.692207 0.796555 0.807642 0.400058
C14   C     C_R   0.307798 0.296621 0.192352 0.400056
C15   C     C_R   0.719342 0.853062 0.748603 -0.160150
C16   C     C_R   0.280659 0.353077 0.251394 -0.160155
C17   C     C_R   0.680796 0.867728 0.681705 -0.111385
C18   C     C_R   0.319204 0.367714 0.318295 -0.111383
C19   C     C_R   0.783216 0.890863 0.753379 0.035872
C20   C     C_R   0.216784 0.390855 0.246619 0.035870
C21   C     C_R   0.808446 0.910737 0.690539 -0.069831
C22   C     C_R   0.191552 0.410673 0.309460 -0.069832
C23   C     C_R   0.770822 0.909754 0.624652 0.313604
C24   C     C_R   0.229175 0.409665 0.375348 0.313610
C25   C     C_R   0.707484 0.895131 0.620748 0.494607
C26   C     C_R   0.292514 0.395067 0.379252 0.494610
C27   C     C_R   0.822817 0.917367 0.818428 -0.275243
C28   C     C_R   0.177183 0.417387 0.181572 -0.275246
C29   C     C_R   0.909873 0.945456 0.758668 0.609062
C30   C     C_R   0.090124 0.445384 0.241331 0.609059
C31   C     C_R   0.616449 0.850456 0.677619 -0.090614
C32   C     C_R   0.383552 0.350468 0.322381 -0.090615
H3    H     H_    0.805732 0.926944 0.867616 0.184954
H4    H     H_    0.194270 0.427006 0.132385 0.184954
H5    H     H_    0.542839 0.813510 0.735617 0.146881
H6    H     H_    0.457165 0.313597 0.264381 0.146884
C33   C     C_3   0.778086 0.838143 0.314990 -0.354106
C34   C     C_3   0.221914 0.338146 0.685010 -0.354096
C35   C     C_3   0.792684 0.018925 0.277328 0.560678
C36   C     C_3   0.207316 0.518928 0.722672 0.560675
H7    H     H_    0.801264 0.788654 0.366923 0.224515
H8    H     H_    0.198736 0.288661 0.633078 0.224516
C37   C     C_1   0.875424 0.940591 0.120987 -0.088878
C38   C     C_1   0.124576 0.440593 0.879013 -0.088879
C39   C     C_1   0.624652 0.853776 0.379384 -0.103119
C40   C     C_1   0.375348 0.353774 0.620616 -0.103113
C41   C     C_3   0.776093 0.735744 0.244038 0.249061
C42   C     C_3   0.223907 0.235745 0.755963 0.249060
C43   C     C_3   0.791645 0.914227 0.207285 -0.272307
C44   C     C_3   0.208355 0.414228 0.792715 -0.272308
C45   C     C_3   0.707789 0.775257 0.224054 0.580663
C46   C     C_3   0.292211 0.275253 0.775946 0.580659
C47   C     C_3   0.709139 0.880408 0.294057 -0.308961
C48   C     C_3   0.290861 0.380406 0.705943 -0.308962
C49   C     C_3   0.723078 0.955479 0.187703 0.468598
C50   C     C_3   0.276922 0.455475 0.812297 0.468599
C51   C     C_3   0.724236 0.060780 0.257577 0.497417
C52   C     C_3   0.275765 0.560778 0.742422 0.497414
C53   C     C_1   0.837555 0.929881 0.159711 0.265387
C54   C     C_1   0.162445 0.429883 0.840289 0.265387
C55   C     C_1   0.662864 0.864595 0.341118 0.214908
C56   C     C_1   0.337136 0.364593 0.658882 0.214909
O11   O     O_R   0.056650 0.288730 0.942060 -0.527129
O12   O     O_R   0.943350 0.788730 0.057940 -0.527133
O13   O     O_R   0.058660 0.616870 0.085540 -0.535587
O14   O     O_R   0.941340 0.116870 0.914460 -0.535582
C57   C     C_R   0.072808 0.448515 0.110979 0.768377
C58   C     C_R   0.927191 0.948517 0.889021 0.768377
O15   O     O_R   0.063700 0.618520 0.944220 -0.528729
O16   O     O_R   0.936300 0.118520 0.055780 -0.528724
O17   O     O_R   0.948460 0.787610 0.915680 -0.534301
O18   O     O_R   0.051540 0.287610 0.084320 -0.534299
C59   C     C_R   0.078824 0.450059 0.924702 0.698310
C60   C     C_R   0.921176 0.950058 0.075298 0.698310
O19   O     O_3   0.962230 0.453430 0.990860 -0.378795
O20   O     O_3   0.037770 0.953430 0.009140 -0.378797
V3    V     V_3+5 0.007010 0.728750 0.001700 1.562526
V4    V     V_3+5 0.992990 0.228750 0.998300 1.562542
F1    F     F_    0.970575 0.965820 0.760025 -0.645830
F2    F     F_    0.029422 0.465713 0.239974 -0.645827
F3    F     F_    0.697384 0.230640 0.264479 -0.584390
F4    F     F_    0.302617 0.730637 0.735520 -0.584391
F5    F     F_    0.694303 0.016332 0.122879 -0.543169
F6    F     F_    0.305697 0.516325 0.877121 -0.543166
F7    F     F_    0.664605 0.647023 0.196204 -0.541011
F8    F     F_    0.335395 0.147016 0.803797 -0.541009
O21   O     O_3   0.803173 0.564580 0.235866 -0.546821
H9    H     H_    0.787153 0.480660 0.269165 0.393205
O22   O     O_3   0.196826 0.064582 0.764136 -0.546824
H10   H     H_    0.212847 0.980661 0.730838 0.393205
O23   O     O_3   0.797176 0.929551 0.564664 -0.620331
H11   H     H_    0.765796 0.921550 0.522205 0.354187
O24   O     O_3   0.202820 0.429414 0.435336 -0.620331
H12   H     H_    0.234199 0.421402 0.477795 0.354183
O25   O     O_3   0.725150 0.723069 0.867866 -0.597496
H13   H     H_    0.757815 0.645878 0.853483 0.294044
O26   O     O_3   0.274859 0.223162 0.132121 -0.597492
H14   H     H_    0.242196 0.145947 0.146498 0.294046
O27   O     O_3   0.604904 0.751741 0.863275 -0.561069
H15   H     H_    0.559940 0.754331 0.852034 0.331521
O28   O     O_3   0.395104 0.251880 0.136718 -0.561064
H16   H     H_    0.440068 0.254484 0.147960 0.331525
F9    F     F_    0.672360 0.907374 0.556600 -0.731364
F10   F     F_    0.327636 0.407284 0.443402 -0.731372
F11   F     F_    0.836199 0.146488 0.304840 -0.592084
F12   F     F_    0.163802 0.646494 0.695159 -0.592086

loop_
_geom_bond_atom_site_label_1
_geom_bond_atom_site_label_2
_ccdc_geom_bond_type
C26   F10   S    
O11   V4    S    
O4    V2    S    
O21   H9    S    
C9    C31   A    
C36   F12   S    
C13   C15   A    
C46   C48   S    
O26   H14   S    
O1    C3    A    
O2    C4    A    
C38   C59   S    
C2    O7    A    
O17   V3    S    
O8    V2    S    
C46   C50   S    
O5    C3    A    
C5    C21   A    
C21   C23   A    
C10   C12   A    
O27   H15   S    
C6    C30   A    
C34   C42   S    
C9    H5    S    
C51   F3    S    
C37   C53   T    
O28   H16   S    
C15   C19   A    
C6    H2    S    
C41   C43   S    
C46   F8    S    
C24   O24   S    
C49   C51   S    
C12   O28   S    
C42   C44   S    
C5    H1    S    
C7    C29   A    
C8    C30   A    
C43   C49   S    
C45   C47   S    
C20   C28   A    
O24   H12   S    
C44   C50   S    
C16   C18   A    
C47   C51   S    
C57   O18   A    
C34   C48   S    
O6    C4    A    
O5    V1    S    
O6    V2    S    
C34   C36   S    
C14   O26   S    
C10   H6    S    
C42   C46   S    
C34   H8    S    
O13   V3    S    
C8    C57   S    
C45   F7    S    
O14   C58   A    
O13   C57   A    
C16   C20   A    
C33   C47   S    
C43   C53   S    
C33   H7    S    
C25   F9    S    
C40   C56   T    
C33   C35   S    
O14   V4    S    
C41   O21   S    
C5    C29   A    
C23   O23   S    
C11   O27   S    
C48   C52   S    
C27   H3    S    
O1    V2    S    
C28   H4    S    
C48   C56   S    
O19   V4    S    
O2    V1    S    
C13   O25   S    
C7    C27   A    
O4    C2    A    
C47   C55   S    
C35   C51   S    
C39   C55   T    
O3    V1    S    
C38   C54   T    
C42   O22   S    
O12   C60   A    
C1    C40   S    
C18   C32   A    
C2    C39   S    
O16   C60   A    
C4    C31   S    
O3    C1    A    
O15   C59   A    
C35   F11   S    
O12   V3    S    
C11   C13   A    
C58   O17   A    
O15   V3    S    
O23   H11   S    
C12   C14   A    
C37   C60   S    
C29   F1    S    
C19   C27   A    
C22   C24   A    
O7    V1    S    
C10   C32   A    
C1    O8    A    
C23   C25   A    
O18   V4    S    
O25   H13   S    
C24   C26   A    
C33   C41   S    
C35   C43   S    
O20   V3    S    
C8    C28   A    
C36   C44   S    
C45   C49   S    
C14   C16   A    
C19   C21   A    
C17   C25   A    
C20   C22   A    
C18   C26   A    
C30   F2    S    
C52   F4    S    
C41   C45   S    
C9    C11   A    
C36   C52   S    
C7    C58   S    
O11   C59   A    
C15   C17   A    
C17   C31   A    
O9    V2    S    
O22   H10   S    
C44   C54   S    
O10   V1    S    
C3    C32   S    
C50   C52   S    
O16   V4    S    
C6    C22   A    
C50   F6    S    
C49   F5    S    
