data_mof_unit_66802.cif
_audit_creation_date              2012-12-11T14:23:15-0500
_audit_creation_method            fapswitch 2.2
_symmetry_space_group_name_H-M    P1
_symmetry_Int_Tables_number       1
_space_group_crystal_system       triclinic
_cell_length_a                    8.474274
_cell_length_b                    14.422539
_cell_length_c                    15.111202
_cell_angle_alpha                 94.363835
_cell_angle_beta                  99.689368
_cell_angle_gamma                 90.430879
_cell_volume                      1814.88678556

loop_
_atom_site_label
_atom_site_type_symbol
_atom_type_description
_atom_site_fract_x
_atom_site_fract_y
_atom_site_fract_z
_atom_type_partial_charge
Ba1   Ba    Ba6+2 0.142880 0.544780 0.454020 1.797516
Ba2   Ba    Ba6+2 0.667290 0.455210 0.545900 1.779287
C1    C     C_3   0.434687 0.828504 0.135558 0.172656
C2    C     C_R   0.812016 0.806039 0.507739 -0.003607
C3    C     C_R   0.646371 0.784082 0.489268 -0.229358
C4    C     C_3   0.931327 0.778047 0.216262 0.745355
C5    C     C_R   0.539841 0.841437 0.437581 0.021186
C6    C     C_R   0.590265 0.932121 0.423335 -0.104500
C7    C     C_R   0.748670 0.964478 0.459780 -0.007605
C8    C     C_R   0.860812 0.901761 0.502879 0.035395
C9    C     C_R   0.944215 0.096641 0.498939 -0.025754
C10   C     C_R   0.055875 0.034323 0.542496 0.000759
C11   C     C_R   0.989207 0.193406 0.498225 0.018211
C12   C     C_3   0.403317 0.771516 0.212576 0.736891
C13   C     C_R   0.146816 0.219929 0.533099 -0.274443
C14   C     C_R   0.255966 0.161182 0.578221 0.025271
C15   C     C_R   0.210542 0.068033 0.583051 -0.063763
C16   C     C_3   0.946434 0.858151 0.157136 0.208339
C17   C     C_R   0.794428 0.059460 0.456143 -0.022039
C18   C     C_R   0.254050 0.446762 0.764723 -0.321457
C19   C     C_R   0.170626 0.406208 0.825521 -0.167074
C20   C     C_R   0.250025 0.398592 0.915428 0.381637
C21   C     C_R   0.388634 0.455453 0.950362 0.079958
C22   C     C_R   0.458854 0.503371 0.887619 -0.135627
C23   C     C_3   0.489046 0.762070 0.728755 0.865998
C24   C     C_R   0.402370 0.492198 0.794747 0.028684
C25   C     C_R   0.620429 0.498593 0.082659 -0.169538
C26   C     C_R   0.672680 0.530336 0.173736 -0.106875
C27   C     C_R   0.423158 0.475769 0.211475 0.032959
C28   C     C_3   0.738813 0.318122 0.275460 0.265890
C29   C     C_R   0.356417 0.464280 0.119308 0.396786
C30   C     C_R   0.455698 0.471333 0.051505 -0.002442
C31   C     C_R   0.575216 0.516012 0.237386 -0.357452
C32   C     C_3   0.696419 0.278363 0.177026 0.251654
C33   C     C_3   0.014938 0.680558 0.735291 0.575972
C34   C     C_3   0.499708 0.851108 0.793589 -0.278645
C35   C     C_3   0.017620 0.718722 0.836522 -0.248458
C36   C     C_3   0.243161 0.261181 0.341244 0.273875
C37   C     C_3   0.168928 0.168859 0.297749 -0.303766
C38   C     C_2   0.608522 0.186459 0.171076 0.671807
C39   C     C_2   0.129963 0.802805 0.858934 0.580597
C40   C     C_2   0.066982 0.643426 0.901146 0.403762
C41   C     C_2   0.853846 0.749809 0.848729 0.483246
C42   C     C_2   0.599748 0.926562 0.765984 0.394054
C43   C     C_2   0.025792 0.100992 0.884594 0.584327
C44   C     C_2   0.582634 0.708332 0.536021 0.536999
C45   C     C_3   0.965823 0.197671 0.752874 0.215015
C46   C     C_2   0.474376 0.995065 0.374851 0.526713
C47   C     C_2   0.744481 0.481788 0.025794 0.521423
C48   C     C_2   0.635381 0.541563 0.332585 0.574547
C49   C     C_2   0.173452 0.457011 0.672631 0.564026
C50   C     C_3   0.956022 0.101080 0.786322 -0.210380
C51   C     C_3   0.455194 0.194267 0.792370 0.690421
C52   C     C_3   0.559135 0.200722 0.886564 0.624505
C53   C     C_R   0.013450 0.938921 0.544215 -0.002979
H1    H     H_    0.615064 0.325926 0.138118 -0.031957
H2    H     H_    0.511749 0.788528 0.094100 0.044820
H3    H     H_    0.598524 0.758016 0.698615 -0.223546
H4    H     H_    0.550364 0.835683 0.863455 0.091841
H5    H     H_    0.379245 0.879247 0.795566 0.132422
H6    H     H_    0.827893 0.890768 0.139316 0.080581
H7    H     H_    0.901127 0.195368 0.682311 0.076213
H8    H     H_    0.093526 0.215786 0.753429 0.024296
H9    H     H_    0.828741 0.079076 0.776144 0.130101
H10   H     H_    0.019282 0.051045 0.745600 0.125821
H11   H     H_    0.398719 0.263121 0.783547 -0.085853
H12   H     H_    0.927846 0.621592 0.717983 -0.023756
H13   H     H_    0.652871 0.255198 0.888222 0.123275
H14   H     H_    0.051213 0.747855 0.233014 0.119175
H15   H     H_    0.296871 0.021374 0.615858 0.124134
H16   H     H_    0.189925 0.284902 0.516738 0.107494
H17   H     H_    0.099726 0.894870 0.580550 0.102352
H18   H     H_    0.711694 0.105698 0.420808 0.081980
H19   H     H_    0.552912 0.554821 0.910467 0.110169
H20   H     H_    0.032649 0.911599 0.194965 0.070338
H21   H     H_    0.627151 0.331830 0.302708 -0.083194
H22   H     H_    0.810690 0.383281 0.278424 -0.033717
H23   H     H_    0.146787 0.304239 0.362818 0.036391
H24   H     H_    0.389477 0.654207 0.140425 0.266691
H25   H     H_    0.491481 0.183530 0.190808 -0.060430
H26   H     H_    0.880034 0.330738 0.135247 0.329653
H27   H     H_    0.211586 0.622190 0.777724 0.213713
H28   H     H_    0.244275 0.799205 0.903272 0.045025
H29   H     H_    0.999971 0.578464 0.892159 0.037721
H30   H     H_    0.805412 0.806359 0.811647 -0.006272
H31   H     H_    0.365327 0.821919 0.630057 0.285803
H32   H     H_    0.696625 0.958319 0.815000 0.082868
H33   H     H_    0.526016 0.946686 0.117519 0.344018
H34   H     H_    0.335625 0.248147 0.400075 0.020241
H35   H     H_    0.972903 0.142746 0.934261 0.039820
H36   H     H_    0.385932 0.064596 0.787410 0.346082
H37   H     H_    0.400371 0.172526 0.960397 0.364427
H38   H     H_    0.702332 0.125687 0.963775 0.342692
H39   H     H_    0.655844 0.671543 0.585932 -0.015707
H40   H     H_    0.508665 0.035484 0.323198 0.020220
H41   H     H_    0.834504 0.534610 0.022575 0.059369
H42   H     H_    0.117087 0.292983 0.932370 0.317715
H43   H     H_    0.154592 0.490564 0.048278 0.330634
H44   H     H_    0.772036 0.835890 0.280235 0.284028
H45   H     H_    0.319198 0.842171 0.091922 0.126825
H46   H     H_    0.706328 0.493581 0.373502 0.008309
H47   H     H_    0.075644 0.503954 0.658468 0.043005
H48   H     H_    0.005789 0.878759 0.042359 0.312989
H49   H     H_    0.072342 0.181194 0.240814 0.186902
H50   H     H_    0.117514 0.130484 0.347330 0.103338
H51   H     H_    0.260842 0.125676 0.271183 0.137587
H52   H     H_    0.521756 0.754660 0.251816 -0.065280
O1    O     O_2   0.113690 0.728200 0.532750 -0.368989
O2    O     O_2   0.838662 0.440754 0.826469 -0.450477
O3    O     O_3   0.893735 0.262297 0.807253 -0.599862
O4    O     O_3   0.871900 0.612110 0.540440 -0.518493
O5    O     O_3   0.421180 0.451020 0.394720 -0.498420
O6    O     O_2   0.662730 0.548230 0.717350 -0.496732
O7    O     O_3   0.479043 0.684146 0.778238 -0.623658
O8    O     O_2   0.573765 0.167880 0.559794 -0.468995
O9    O     O_3   0.552739 0.172433 0.727062 -0.597436
O10   O     O_3   0.325660 0.668890 0.372600 -0.377387
O11   O     O_2   0.201457 0.831511 0.416742 -0.426610
O12   O     O_3   0.317080 0.302687 0.278092 -0.640630
O13   O     O_3   0.974178 0.751075 0.677112 -0.612529
O14   O     O_3   0.308725 0.824095 0.265288 -0.609913
O15   O     O_2   0.147570 0.451710 0.282630 -0.436678
O16   O     O_3   0.905540 0.621350 0.329600 -0.456441
O17   O     O_2   0.007789 0.567570 0.175951 -0.437746
O18   O     O_3   0.319620 0.689194 0.176949 -0.704044
O19   O     O_2   0.667214 0.114782 0.144394 -0.560877
O20   O     O_3   0.835884 0.267438 0.138743 -0.669629
O21   O     O_3   0.165212 0.651426 0.723167 -0.708193
O22   O     O_2   0.095779 0.875626 0.824683 -0.572470
O23   O     O_3   0.820885 0.711260 0.168509 -0.624206
O24   O     O_2   0.179477 0.654324 0.963454 -0.592607
O25   O     O_2   0.778111 0.715197 0.900486 -0.572983
O26   O     O_3   0.351048 0.767416 0.664540 -0.643949
O27   O     O_2   0.572924 0.952887 0.690114 -0.606398
O28   O     O_3   0.511537 0.912868 0.170457 -0.761832
O29   O     O_2   0.141688 0.054159 0.909610 -0.535573
O30   O     O_3   0.334379 0.125995 0.786562 -0.774351
O31   O     O_3   0.467377 0.227225 0.953078 -0.723113
O32   O     O_3   0.632815 0.115642 0.903970 -0.769956
O33   O     O_2   0.441209 0.690995 0.528107 -0.506107
O34   O     O_2   0.696600 0.271740 0.467230 -0.470397
O35   O     O_2   0.341262 0.004435 0.394476 -0.595430
O36   O     O_2   0.748919 0.406680 0.983568 -0.552600
O37   O     O_3   0.198329 0.335473 0.969045 -0.664639
O38   O     O_3   0.193165 0.452170 0.098904 -0.644148
O39   O     O_3   0.881468 0.811708 0.296556 -0.760162
O40   O     O_2   0.612839 0.618926 0.364902 -0.614889
O41   O     O_2   0.211679 0.410350 0.610368 -0.583725
O42   O     O_3   0.000599 0.824451 0.078402 -0.686362
O43   O     O_3   0.938380 0.387880 0.459490 -0.485133
O44   O     O_3   0.484630 0.331100 0.627330 -0.440835
O45   O     O_3   0.829832 0.253197 0.323982 -0.642468
O46   O     O_3   0.389110 0.548970 0.605210 -0.371165
O47   O     O_3   0.904740 0.378630 0.670330 -0.495752
P1    P     P_3+3 0.947560 0.714050 0.560480 1.084707
P2    P     P_3+3 0.325150 0.423860 0.297970 1.059478
P3    P     P_3+3 0.857144 0.602628 0.211947 1.009924
P4    P     P_3+3 0.862730 0.285940 0.439440 0.972265
P5    P     P_3+3 0.953563 0.373269 0.786266 0.963624
P6    P     P_3+3 0.344235 0.790945 0.375970 1.125871
P7    P     P_3+3 0.482890 0.571730 0.720389 1.078775
P8    P     P_3+3 0.461796 0.208553 0.622709 1.029014

loop_
_geom_bond_atom_site_label_1
_geom_bond_atom_site_label_2
_ccdc_geom_bond_type
C48   O40   D    
Ba2   O43   S    
C4    H14   S    
C50   H10   S    
C32   H1    S    
C16   H20   S    
C46   H40   S    
C37   H51   S    
C32   O20   S    
O11   P6    D    
C4    O23   S    
C34   H4    S    
H37   O31   S    
C45   H7    S    
C6    C46   S    
C37   H49   S    
C51   C52   S    
C49   H47   S    
C36   H34   S    
Ba2   O5    S    
O12   P2    S    
C12   O18   S    
O23   P3    S    
C32   C38   S    
O9    P8    S    
C41   O25   D    
C33   C35   S    
C22   C24   A    
C18   C49   S    
Ba1   O5    S    
C45   H8    S    
C36   C37   S    
C4    O39   S    
Ba2   O6    S    
C52   H13   S    
C13   C14   A    
C39   H28   S    
C27   C31   A    
Ba1   Ba2   S    
C35   C40   S    
Ba1   P1    S    
Ba1   O15   S    
C9    C17   A    
Ba1   O1    S    
H36   O30   S    
C28   H22   S    
C1    H45   S    
C7    C17   A    
C29   C30   A    
C6    C7    A    
O14   P6    S    
C10   C15   A    
C21   C22   A    
C38   H25   S    
C40   O24   D    
C42   H32   S    
C23   O26   S    
C7    C8    A    
C53   H17   S    
C51   O9    S    
H24   O18   S    
C15   H15   S    
Ba2   O47   S    
C12   O14   S    
C19   C20   A    
H26   O20   S    
O10   P6    S    
C19   P5    S    
C33   O13   S    
C42   O27   D    
C4    C16   S    
O45   P4    S    
Ba2   O4    S    
C28   C32   S    
C41   H30   S    
C17   H18   S    
C40   H29   S    
C50   H9    S    
C3    C5    A    
C14   C15   A    
O7    P7    S    
C5    P6    S    
C36   H23   S    
C43   C50   S    
C14   P8    S    
C31   C48   S    
O13   P1    S    
O46   P7    S    
C35   C41   S    
Ba1   P2    S    
Ba1   O16   S    
H42   O37   S    
H38   O32   S    
C28   H21   S    
H31   O26   S    
C28   O45   S    
C52   O32   S    
C44   H39   S    
C33   H12   S    
Ba2   P4    S    
O44   P8    S    
C38   O19   D    
O17   P3    D    
C46   O35   D    
Ba1   O43   S    
Ba1   O10   S    
Ba1   O46   S    
C43   H35   S    
H27   O21   S    
C1    C12   S    
C27   P2    S    
C36   O12   S    
C1    H2    S    
C12   H52   S    
H44   O39   S    
C26   C31   A    
Ba2   O46   S    
C11   C13   A    
C51   O30   S    
C34   C42   S    
C23   H3    S    
C2    C8    A    
C16   O42   S    
C11   P4    S    
C13   H16   S    
C44   O33   D    
Ba2   O44   S    
C37   H50   S    
C43   O29   D    
O43   P4    S    
C25   C30   A    
O15   P2    D    
H33   O28   S    
C2    C3    A    
C34   H5    S    
C9    C10   A    
C16   H6    S    
C45   C50   S    
H43   O38   S    
C45   O3    S    
O16   P3    S    
C3    C44   S    
C24   P7    S    
C21   C30   S    
O8    P8    D    
O47   P5    S    
C27   C29   A    
C51   H11   S    
C23   O7    S    
Ba1   O4    S    
C39   O22   D    
C9    C11   A    
C22   H19   S    
C52   O31   S    
O1    P1    D    
C18   C24   A    
C49   O41   D    
C8    C53   A    
C47   O36   D    
C26   P3    S    
C1    O28   S    
C47   H41   S    
C35   C39   S    
C33   O21   S    
C10   C53   A    
C5    C6    A    
H48   O42   S    
C23   C34   S    
O6    P7    D    
C29   O38   S    
O34   P4    D    
C2    P1    S    
C18   C19   A    
C48   H46   S    
O5    P2    S    
C20   O37   S    
C25   C26   A    
Ba2   O34   S    
C20   C21   A    
O4    P1    S    
O3    P5    S    
C25   C47   S    
O2    P5    D    
