data_mof_unit_43470.cif
_audit_creation_date              2012-12-10T17:51:28-0500
_audit_creation_method            fapswitch 2.2
_symmetry_space_group_name_H-M    P1
_symmetry_Int_Tables_number       1
_space_group_crystal_system       triclinic
_cell_length_a                    9.8748
_cell_length_b                    10.728799
_cell_length_c                    16.649173
_cell_angle_alpha                 91.685651
_cell_angle_beta                  85.31925
_cell_angle_gamma                 89.766089
_cell_volume                      1757.21157765

loop_
_atom_site_label
_atom_site_type_symbol
_atom_type_description
_atom_site_fract_x
_atom_site_fract_y
_atom_site_fract_z
_atom_type_partial_charge
C1    C     C_R   0.499499 0.739887 0.494177 0.870460
C2    C     C_R   0.344096 0.558335 0.781231 -0.211753
C3    C     C_R   0.429328 0.672638 0.164154 -0.161010
C4    C     C_R   0.418715 0.619103 0.238998 -0.211104
C5    C     C_R   0.651098 0.543199 0.216332 -0.199433
C6    C     C_R   0.660942 0.595402 0.140516 -0.168865
C7    C     C_R   0.548565 0.656638 0.113271 0.205846
C8    C     C_2   0.443628 0.644007 0.987533 -0.230067
C9    C     C_2   0.549403 0.681618 0.027509 -0.245413
C10   C     C_R   0.528423 0.551721 0.264905 -0.034704
C11   C     C_R   0.246018 0.887871 0.470532 -0.162130
C12   C     C_R   0.481282 0.503067 0.653619 0.844735
C13   C     C_R   0.122534 0.948361 0.491963 -0.139471
C14   C     C_R   0.120671 0.061206 0.535100 -0.156072
C15   C     C_R   0.242801 0.118995 0.549618 -0.164589
C16   C     C_R   0.369007 0.063669 0.520929 0.097506
C17   C     C_R   0.370139 0.939710 0.492892 0.095218
C18   C     C_R   0.495613 0.873525 0.489552 -0.120254
C19   C     C_R   0.618115 0.936397 0.495751 -0.219907
C20   C     C_R   0.617777 0.063285 0.506277 -0.219003
C21   C     C_R   0.494399 0.127944 0.516741 -0.132723
C22   C     C_R   0.844928 0.666151 0.604305 -0.235198
C23   C     C_R   0.498461 0.260801 0.507764 0.891753
C24   C     C_R   0.907942 0.748930 0.654956 -0.216954
C25   C     C_R   0.048622 0.749029 0.655425 0.225639
C26   C     C_R   0.125695 0.665137 0.604665 -0.187464
C27   C     C_R   0.065047 0.581697 0.551506 0.109543
C28   C     C_R   0.920336 0.581916 0.551384 0.171778
C29   C     C_R   0.935472 0.421384 0.451045 -0.129992
C30   C     C_R   0.078842 0.421439 0.451049 -0.120094
C31   C     C_R   0.518539 0.507173 0.346916 0.863706
C32   C     C_R   0.470340 0.528008 0.740384 -0.031005
C33   C     C_R   0.588711 0.535655 0.781185 -0.218006
C34   C     C_R   0.581719 0.576369 0.861090 -0.147826
C35   C     C_R   0.456036 0.611392 0.901276 0.208855
C36   C     C_R   0.337185 0.599862 0.861313 -0.184368
H1    H     H_    0.687267 0.511728 0.751169 0.162078
H2    H     H_    0.753551 0.582292 0.101528 0.122719
H3    H     H_    0.715002 0.887840 0.491990 0.172007
H4    H     H_    0.242286 0.802511 0.434767 0.163408
H5    H     H_    0.028197 0.906091 0.476785 0.138448
H6    H     H_    0.024810 0.105641 0.555386 0.139200
H7    H     H_    0.237047 0.205957 0.584268 0.163994
H8    H     H_    0.714620 0.110632 0.505262 0.168004
H9    H     H_    0.887155 0.357245 0.411136 0.143689
H10   H     H_    0.737047 0.671128 0.608815 0.220923
H11   H     H_    0.846129 0.812703 0.694252 0.155541
H12   H     H_    0.324954 0.631994 0.276946 0.154381
H13   H     H_    0.232558 0.668336 0.608450 0.218263
H14   H     H_    0.138751 0.357267 0.411185 0.154096
H15   H     H_    0.738098 0.494773 0.236430 0.147786
H16   H     H_    0.645522 0.705544 0.995591 0.145361
H17   H     H_    0.239026 0.623119 0.892126 0.126219
H18   H     H_    0.342681 0.722477 0.144793 0.129088
H19   H     H_    0.251229 0.552855 0.750963 0.158552
H20   H     H_    0.348318 0.619564 0.020453 0.149920
H21   H     H_    0.674714 0.577062 0.891123 0.123809
N1    N     N_R   0.857140 0.501200 0.500750 -0.112495
N2    N     N_R   0.142740 0.501280 0.500770 -0.119009
O1    O     O_R   0.385310 0.683220 0.500000 -0.651134
O2    O     O_R   0.614640 0.683250 0.500010 -0.635681
O3    O     O_R   0.371780 0.500010 0.615800 -0.641050
O4    O     O_R   0.601110 0.500030 0.615800 -0.633936
O5    O     O_R   0.385360 0.316750 0.499990 -0.620341
O6    O     O_R   0.614690 0.316780 0.500000 -0.615828
O7    O     O_R   0.398890 0.499970 0.384200 -0.617952
O8    O     O_R   0.628220 0.499990 0.384200 -0.610733
Zn1   Zn    Zn3+2 0.346870 0.499980 0.499990 0.919362
Zn2   Zn    Zn3+2 0.653130 0.500020 0.500010 0.932426
C37   C     C_3   0.118045 0.838249 0.709630 -0.925440
H22   H     H_    0.043986 0.901067 0.744736 0.239881
H23   H     H_    0.174632 0.785423 0.752573 0.238805
H24   H     H_    0.190729 0.896426 0.672919 0.258005

loop_
_geom_bond_atom_site_label_1
_geom_bond_atom_site_label_2
_ccdc_geom_bond_type
C34   H21   S    
O7    Zn1   S    
C24   C25   A    
C6    H2    S    
N1    Zn2   S    
C37   H22   S    
C36   H17   S    
C2    C36   A    
C28   N1    A    
N2    Zn1   S    
C31   O7    A    
C12   O3    A    
C19   C20   A    
C35   C36   A    
O3    Zn1   S    
C14   H6    S    
C30   N2    A    
C8    H20   S    
C37   H24   S    
C13   H5    S    
C17   C18   A    
C1    C18   S    
C15   H7    S    
C5    C10   A    
C27   N2    A    
C13   C14   A    
C32   C33   A    
C31   O8    A    
C11   C13   A    
C23   O6    A    
C26   C27   A    
C29   C30   A    
C9    H16   S    
C19   H3    S    
O6    Zn2   S    
C5    C6    A    
O5    Zn1   S    
C23   O5    A    
C20   H8    S    
C33   H1    S    
C33   C34   A    
C6    C7    A    
C3    C7    A    
C2    H19   S    
C21   C23   S    
C30   H14   S    
C11   H4    S    
C3    H18   S    
C22   C24   A    
C26   H13   S    
C37   H23   S    
C4    C10   A    
C15   C16   A    
C20   C21   A    
C18   C19   A    
C29   N1    A    
O1    Zn1   S    
C2    C32   A    
C34   C35   A    
C4    H12   S    
C1    O1    A    
O2    Zn2   S    
C27   C28   A    
C7    C9    S    
C12   O4    A    
C14   C15   A    
C5    H15   S    
C22   C28   A    
C25   C37   S    
C1    O2    A    
C22   H10   S    
C25   C26   A    
C24   H11   S    
C16   C21   A    
C10   C31   S    
C12   C32   S    
C3    C4    A    
O4    Zn2   S    
C16   C17   A    
C29   H9    S    
C8    C9    D    
O8    Zn2   S    
C8    C35   S    
C11   C17   A    
