data_mof_unit_39699.cif
_audit_creation_date              2012-12-10T17:09:20-0500
_audit_creation_method            fapswitch 2.2
_symmetry_space_group_name_H-M    P1
_symmetry_Int_Tables_number       1
_space_group_crystal_system       triclinic
_cell_length_a                    17.875934
_cell_length_b                    18.980608
_cell_length_c                    11.908556
_cell_angle_alpha                 90.053367
_cell_angle_beta                  73.742412
_cell_angle_gamma                 89.98435
_cell_volume                      3878.95487843

loop_
_atom_site_label
_atom_site_type_symbol
_atom_type_description
_atom_site_fract_x
_atom_site_fract_y
_atom_site_fract_z
_atom_type_partial_charge
C1    C     C_R   0.400783 0.101241 0.521523 0.920155
C2    C     C_R   0.599032 0.898768 0.477988 0.905609
C3    C     C_R   0.599204 0.101220 0.478556 0.920156
C4    C     C_R   0.401008 0.898760 0.521892 0.906598
C5    C     C_R   0.900770 0.601239 0.521525 0.920444
C6    C     C_R   0.099007 0.398748 0.478007 0.906101
C7    C     C_R   0.099188 0.601220 0.478565 0.919520
C8    C     C_R   0.900993 0.398771 0.521909 0.905843
C9    C     C_R   0.537124 0.982112 0.960894 -0.282882
C10   C     C_R   0.462904 0.982151 0.039032 -0.283242
C11   C     C_R   0.037127 0.482120 0.960893 -0.283350
C12   C     C_R   0.962904 0.482115 0.039029 -0.282477
C13   C     C_R   0.409309 0.999260 0.875486 0.454796
C14   C     C_R   0.590702 0.999240 0.124503 0.453977
C15   C     C_R   0.909311 0.499262 0.875485 0.453141
C16   C     C_R   0.090697 0.499352 0.124482 0.453271
C17   C     C_R   0.401796 0.970542 0.986515 0.353075
C18   C     C_R   0.598243 0.970504 0.013379 0.351060
C19   C     C_R   0.901790 0.470521 0.986504 0.351971
C20   C     C_R   0.098262 0.470585 0.013378 0.355310
C21   C     C_R   0.546571 0.988416 0.835092 0.530442
C22   C     C_R   0.453449 0.988434 0.164858 0.528209
C23   C     C_R   0.046571 0.488423 0.835093 0.531516
C24   C     C_R   0.953451 0.488405 0.164856 0.529110
C25   C     C_R   0.657539 0.157032 0.467117 -0.114781
C26   C     C_R   0.344959 0.841082 0.536266 -0.108495
C27   C     C_R   0.342516 0.157185 0.533072 -0.115287
C28   C     C_R   0.655020 0.840979 0.463345 -0.123152
C29   C     C_R   0.157572 0.656961 0.467138 -0.114005
C30   C     C_R   0.844977 0.341063 0.536334 -0.124052
C31   C     C_R   0.842533 0.657225 0.533061 -0.115979
C32   C     C_R   0.154969 0.340939 0.463425 -0.124376
C33   C     C_R   0.217714 0.798219 0.642036 -0.072838
C34   C     C_R   0.788045 0.195325 0.368222 -0.056125
C35   C     C_R   0.782020 0.797576 0.357211 -0.065239
C36   C     C_R   0.212184 0.195999 0.632321 -0.056066
C37   C     C_R   0.717840 0.298046 0.642300 -0.068935
C38   C     C_R   0.288294 0.694851 0.368732 -0.075664
C39   C     C_R   0.281985 0.297554 0.357310 -0.069537
C40   C     C_R   0.712281 0.696222 0.632450 -0.051769
C41   C     C_R   0.279646 0.843321 0.633342 -0.201653
C42   C     C_R   0.726159 0.150651 0.376778 -0.190865
C43   C     C_R   0.720148 0.842820 0.365960 -0.197899
C44   C     C_R   0.274042 0.151235 0.623792 -0.190673
C45   C     C_R   0.779739 0.343205 0.633541 -0.203458
C46   C     C_R   0.226339 0.650287 0.377189 -0.189545
C47   C     C_R   0.220092 0.342764 0.366031 -0.203392
C48   C     C_R   0.774104 0.651405 0.623918 -0.190329
C49   C     C_R   0.352586 0.786558 0.452584 0.326405
C50   C     C_R   0.650661 0.210709 0.552588 0.388440
C51   C     C_R   0.647483 0.786713 0.547194 0.410111
C52   C     C_R   0.349315 0.210601 0.447357 0.388060
C53   C     C_R   0.852569 0.286594 0.452576 0.406229
C54   C     C_R   0.150628 0.710762 0.552415 0.385949
C55   C     C_R   0.147443 0.286688 0.547330 0.405614
C56   C     C_R   0.849335 0.710601 0.447267 0.388822
C57   C     C_R   0.286572 0.744476 0.456469 -0.011373
C58   C     C_R   0.717399 0.251663 0.550620 -0.009699
C59   C     C_R   0.713620 0.744902 0.543711 -0.003529
C60   C     C_R   0.282558 0.251528 0.449257 -0.010031
C61   C     C_R   0.786499 0.244619 0.456353 -0.003628
C62   C     C_R   0.217367 0.751702 0.550493 0.000981
C63   C     C_R   0.213563 0.244818 0.543746 -0.003826
C64   C     C_R   0.782595 0.751557 0.449174 -0.010267
Cu1   Cu    Cu3+1 0.507800 0.000000 0.383250 1.175592
Cu2   Cu    Cu3+1 0.492200 1.000000 0.616750 1.175165
Cu3   Cu    Cu3+1 0.007800 0.500000 0.383250 1.175412
Cu4   Cu    Cu3+1 0.992200 0.500000 0.616750 1.175013
H1    H     H_    0.734320 0.108846 0.314164 0.240056
H2    H     H_    0.275255 0.881346 0.702311 0.234548
H3    H     H_    0.265955 0.109702 0.686731 0.240574
H4    H     H_    0.724413 0.880584 0.296770 0.235176
H5    H     H_    0.234544 0.608322 0.314837 0.241010
H6    H     H_    0.775392 0.381186 0.702571 0.235889
H7    H     H_    0.766019 0.609940 0.686972 0.241011
H8    H     H_    0.224355 0.380510 0.296820 0.236475
H9    H     H_    0.670481 0.300881 0.721607 0.226242
H10   H     H_    0.338052 0.687859 0.293600 0.238565
H11   H     H_    0.329244 0.300081 0.277857 0.226313
H12   H     H_    0.662890 0.690282 0.708460 0.231466
H13   H     H_    0.170268 0.801181 0.721219 0.225361
H14   H     H_    0.837628 0.188715 0.292685 0.227722
H15   H     H_    0.829266 0.800087 0.277741 0.225664
H16   H     H_    0.162739 0.189867 0.708186 0.227923
N1    N     N_R   0.519530 1.000000 0.207810 -0.297903
N2    N     N_R   0.480470 1.000000 0.792190 -0.297782
N3    N     N_R   0.019530 0.500000 0.207810 -0.297967
N4    N     N_R   0.980470 0.500000 0.792190 -0.297855
O1    O     O_R   0.430030 0.075530 0.417420 -0.516641
O2    O     O_R   0.569970 0.924470 0.582580 -0.525226
O3    O     O_R   0.569970 0.075530 0.582580 -0.516716
O4    O     O_R   0.430030 0.924470 0.417420 -0.525722
O5    O     O_R   0.930030 0.575530 0.417420 -0.516526
O6    O     O_R   0.069970 0.424470 0.582580 -0.526074
O7    O     O_R   0.069970 0.575530 0.582580 -0.516876
O8    O     O_R   0.930030 0.424470 0.417420 -0.526437
O9    O     O_R   0.416860 0.075510 0.614610 -0.513112
O10   O     O_R   0.583140 0.924490 0.385390 -0.535488
O11   O     O_R   0.583140 0.075510 0.385390 -0.512980
O12   O     O_R   0.416860 0.924490 0.614610 -0.536203
O13   O     O_R   0.916860 0.575510 0.614610 -0.513263
O14   O     O_R   0.083140 0.424490 0.385390 -0.535630
O15   O     O_R   0.083140 0.575510 0.385390 -0.512782
O16   O     O_R   0.916860 0.424490 0.614610 -0.535956
S1    S     S_3+6 0.675403 0.037313 0.144318 0.039610
O17   O     O_2   0.659784 0.114264 0.170408 -0.253611
O18   O     O_2   0.698124 0.001185 0.241709 -0.358330
O19   O     O_3   0.749393 0.030134 0.021382 -0.487107
H17   H     H_    0.793973 0.053872 0.039530 0.383170
S2    S     S_3+6 0.324678 0.037583 0.855889 0.039046
O20   O     O_2   0.340488 0.114504 0.830121 -0.254835
O21   O     O_2   0.301860 0.001624 0.758350 -0.357614
O22   O     O_3   0.250700 0.030509 0.978827 -0.487911
H18   H     H_    0.206281 0.054749 0.961042 0.383330
S3    S     S_3+6 0.175435 0.537317 0.144400 0.041028
O23   O     O_2   0.159934 0.614261 0.170695 -0.253070
O24   O     O_2   0.198122 0.501038 0.241686 -0.357248
O25   O     O_3   0.249412 0.530175 0.021438 -0.487191
H19   H     H_    0.294039 0.553784 0.039664 0.384730
S4    S     S_3+6 0.824729 0.537693 0.855925 0.040977
O26   O     O_2   0.840681 0.614585 0.830044 -0.252947
O27   O     O_2   0.801809 0.501729 0.758468 -0.357882
O28   O     O_3   0.750775 0.530773 0.978921 -0.483245
H20   H     H_    0.706332 0.554905 0.961032 0.388507
S5    S     S_3+6 0.352976 0.979686 0.254644 0.106189
O29   O     O_2   0.300936 0.015255 0.192365 -0.218688
O30   O     O_2   0.334544 0.902390 0.263208 -0.218904
O31   O     O_3   0.323070 0.010283 0.391671 -0.542798
H21   H     H_    0.268739 0.993466 0.422956 0.370620
S6    S     S_3+6 0.647092 0.979827 0.745309 0.105371
O32   O     O_2   0.698959 0.015585 0.807733 -0.218445
O33   O     O_2   0.665846 0.902581 0.736559 -0.222054
O34   O     O_3   0.676938 0.010335 0.608337 -0.543392
H22   H     H_    0.731380 0.993723 0.577141 0.370067
S7    S     S_3+6 0.852970 0.479694 0.254625 0.107522
O35   O     O_2   0.800964 0.515321 0.192348 -0.213450
O36   O     O_2   0.834478 0.402412 0.263138 -0.221339
O37   O     O_3   0.823078 0.510264 0.391670 -0.542505
H23   H     H_    0.768723 0.493500 0.422920 0.370852
S8    S     S_3+6 0.147089 0.479828 0.745310 0.103067
O38   O     O_2   0.198959 0.515615 0.807699 -0.222416
O39   O     O_2   0.165838 0.402580 0.736630 -0.220952
O40   O     O_3   0.176929 0.510296 0.608312 -0.545564
H24   H     H_    0.231383 0.493708 0.577141 0.367704
S9    S     S_3+6 0.559430 0.229642 0.657484 0.050019
O41   O     O_2   0.491803 0.202214 0.619553 -0.261863
O42   O     O_2   0.558973 0.196457 0.772245 -0.262704
O43   O     O_3   0.547709 0.317323 0.675346 -0.514735
H25   H     H_    0.500136 0.323170 0.741535 0.395810
S10   S     S_3+6 0.445043 0.763629 0.353942 0.080575
O44   O     O_2   0.445366 0.781511 0.231265 -0.159998
O45   O     O_2   0.512162 0.800235 0.380213 -0.263383
O46   O     O_3   0.459227 0.676351 0.361617 -0.489868
H26   H     H_    0.457621 0.667630 0.444269 0.375127
S11   S     S_3+6 0.440502 0.229289 0.342299 0.050357
O47   O     O_2   0.508163 0.202205 0.380497 -0.261255
O48   O     O_2   0.441034 0.195567 0.227806 -0.262934
O49   O     O_3   0.452070 0.316912 0.323723 -0.513904
H27   H     H_    0.499641 0.322563 0.257501 0.397038
S12   S     S_3+6 0.554960 0.763925 0.645395 0.048551
O50   O     O_2   0.552861 0.785283 0.767450 -0.197280
O51   O     O_2   0.488321 0.798148 0.613953 -0.292838
O52   O     O_3   0.542709 0.676143 0.641547 -0.538689
H28   H     H_    0.492891 0.666633 0.701639 0.393770
S13   S     S_3+6 0.059340 0.729830 0.657072 0.049751
O53   O     O_2   0.991761 0.702267 0.619170 -0.261631
O54   O     O_2   0.058792 0.696883 0.772046 -0.263843
O55   O     O_3   0.047624 0.817537 0.674454 -0.513753
H29   H     H_    0.000016 0.823486 0.740551 0.395897
S14   S     S_3+6 0.944976 0.263761 0.353838 0.065067
O56   O     O_2   0.945761 0.282998 0.231457 -0.207182
O57   O     O_2   0.011816 0.299491 0.382393 -0.269798
O58   O     O_3   0.958226 0.176255 0.360577 -0.512837
H30   H     H_    0.007106 0.166263 0.298727 0.397793
S15   S     S_3+6 0.940500 0.729214 0.342097 0.050643
O59   O     O_2   0.008187 0.702095 0.380191 -0.260731
O60   O     O_2   0.940929 0.695481 0.227654 -0.262323
O61   O     O_3   0.952135 0.816828 0.323455 -0.515072
H31   H     H_    0.999672 0.822441 0.257163 0.396076
S16   S     S_3+6 0.054994 0.263970 0.645853 0.065127
O62   O     O_2   0.053499 0.284563 0.768006 -0.206654
O63   O     O_2   0.988220 0.298783 0.615675 -0.270513
O64   O     O_3   0.042345 0.176288 0.640899 -0.513150
H32   H     H_    0.993341 0.166542 0.702587 0.398102
S17   S     S_3+6 0.355643 0.886594 0.001869 0.141418
O65   O     O_2   0.354632 0.859287 0.883572 -0.279681
O66   O     O_2   0.400225 0.834948 0.053436 -0.149488
O67   O     O_3   0.263188 0.891604 0.087339 -0.403426
H33   H     H_    0.230080 0.890575 0.033145 0.379488
S18   S     S_3+6 0.644675 0.886619 0.997619 0.145945
O68   O     O_2   0.645743 0.859316 0.115812 -0.270517
O69   O     O_2   0.600323 0.834865 0.945782 -0.146289
O70   O     O_3   0.737131 0.891819 0.912232 -0.404717
H34   H     H_    0.770265 0.890009 0.966300 0.379476
S19   S     S_3+6 0.855615 0.386578 0.001789 0.140989
O71   O     O_2   0.854495 0.359342 0.883501 -0.279013
O72   O     O_2   0.900249 0.334875 0.053155 -0.150373
O73   O     O_3   0.763195 0.391514 0.087394 -0.402556
H35   H     H_    0.730116 0.391894 0.033107 0.380452
S20   S     S_3+6 0.144729 0.386717 0.997725 0.140832
O74   O     O_2   0.145859 0.359497 0.115941 -0.279742
O75   O     O_2   0.100354 0.334906 0.946049 -0.151494
O76   O     O_3   0.237161 0.391908 0.912242 -0.404490
H36   H     H_    0.270345 0.389950 0.966264 0.379597

loop_
_geom_bond_atom_site_label_1
_geom_bond_atom_site_label_2
_ccdc_geom_bond_type
Cu1   O4    S    
C6    C32   S    
O76   H36   S    
C19   S19   S    
S18   O68   D    
C7    C29   S    
O34   H22   S    
S7    O37   S    
O28   H20   S    
C55   S16   S    
C14   C18   A    
C30   C45   A    
O52   H28   S    
C8    O8    A    
S8    O40   S    
O31   H21   S    
S9    O41   D    
Cu3   O15   S    
C57   C62   A    
S15   O60   D    
O58   H30   S    
O19   H17   S    
C52   S11   S    
Cu1   O1    S    
S1    O18   D    
C59   C64   A    
S13   O53   D    
C49   S10   S    
C60   C63   A    
Cu2   O9    S    
C39   C47   A    
S8    O39   D    
Cu1   O10   S    
C15   C19   A    
S4    O27   D    
C28   C51   A    
S17   O66   D    
S11   O48   D    
C29   C54   A    
C26   C41   A    
C10   C17   A    
O40   H24   S    
C51   S12   S    
C49   C57   A    
C15   S4    S    
C44   H3    S    
C3    O3    A    
C22   N1    A    
Cu2   O12   S    
C2    O2    A    
C25   C50   A    
C20   S20   S    
C5    C31   S    
C52   C60   A    
S18   O70   S    
O25   H19   S    
C53   C61   A    
C27   C44   A    
C14   S1    S    
C17   S17   S    
C33   C62   A    
S3    O24   D    
S10   O46   S    
C55   C63   A    
C13   N2    A    
C16   N3    A    
S18   O69   D    
C56   C64   A    
O73   H35   S    
C31   C56   A    
C36   C63   A    
C35   C43   A    
C9    C10   A    
C32   C55   A    
C37   C58   A    
S16   O64   S    
S19   O73   S    
C58   C61   A    
S13   O54   D    
C40   C59   A    
C7    O15   A    
S11   O49   S    
C48   H7    S    
S9    O42   D    
S16   O63   D    
O61   H31   S    
S15   O61   S    
S2    O21   D    
C30   C53   A    
C5    O13   A    
C11   C20   A    
C34   C42   A    
Cu4   O7    S    
C56   S15   S    
Cu3   Cu4   S    
C50   C58   A    
S12   O52   S    
C23   S8    S    
S7    O35   D    
S8    O38   D    
Cu1   O11   S    
Cu2   O2    S    
C26   C49   A    
C1    O9    A    
C35   H15   S    
S20   O74   D    
S17   O67   S    
C54   C62   A    
Cu3   O5    S    
C6    O6    A    
S7    O36   D    
C37   H9    S    
C42   H1    S    
C10   C22   A    
S2    O20   D    
O67   H33   S    
C39   H11   S    
O49   H27   S    
S6    O33   D    
O64   H32   S    
Cu2   N2    S    
C13   S2    S    
S5    O31   S    
C38   C57   A    
C5    O5    A    
S15   O59   D    
C3    C25   S    
C16   C20   A    
S3    O25   S    
C40   H12   S    
S1    O19   S    
O43   H25   S    
C8    O16   A    
S2    O22   S    
C35   C64   A    
C53   S14   S    
C50   S9    S    
O55   H29   S    
Cu1   Cu2   S    
S13   O55   S    
C31   C48   A    
C4    O12   A    
S5    O29   D    
Cu4   N4    S    
C32   C47   A    
S10   O45   D    
C36   C44   A    
S6    O34   S    
C51   C59   A    
C54   S13   S    
C37   C45   A    
C16   S3    S    
S9    O43   S    
C7    O7    A    
C27   C52   A    
C24   S7    S    
S5    O30   D    
O22   H18   S    
C40   C48   A    
C43   H4    S    
C21   N2    A    
C18   S18   S    
C1    O1    A    
S10   O44   D    
C15   N4    A    
Cu4   O16   S    
C14   N1    A    
C22   S5    S    
C25   C42   A    
C47   H8    S    
C4    C26   S    
C11   C12   A    
S4    O28   S    
Cu1   N1    S    
Cu2   O3    S    
C38   H10   S    
S1    O17   D    
C12   C24   A    
C28   C43   A    
Cu3   N3    S    
Cu4   O13   S    
C13   C17   A    
C29   C46   A    
C23   N4    A    
C8    C30   S    
S12   O50   D    
S6    O32   D    
C33   C41   A    
C9    C21   A    
S17   O65   D    
Cu3   O8    S    
S14   O57   D    
C36   H16   S    
S20   O76   S    
C39   C60   A    
C12   C19   A    
C11   C23   A    
C6    O14   A    
C24   N3    A    
Cu4   O6    S    
C21   S6    S    
C38   C46   A    
C34   C61   A    
O37   H23   S    
S19   O71   D    
C3    O11   A    
C9    C18   A    
C2    O10   A    
S20   O75   D    
O70   H34   S    
S14   O56   D    
S11   O47   D    
C1    C27   S    
S4    O26   D    
C45   H6    S    
C2    C28   S    
C34   H14   S    
C4    O4    A    
O46   H26   S    
C33   H13   S    
C46   H5    S    
S16   O62   D    
S3    O23   D    
Cu3   O14   S    
S12   O51   D    
C41   H2    S    
S19   O72   D    
S14   O58   S    
