data_mof_unit_5759.cif
_audit_creation_date              2012-12-10T18:13:28-0500
_audit_creation_method            fapswitch 2.2
_symmetry_space_group_name_H-M    P1
_symmetry_Int_Tables_number       1
_space_group_crystal_system       triclinic
_cell_length_a                    12.579952
_cell_length_b                    13.146237
_cell_length_c                    16.766909
_cell_angle_alpha                 89.927737
_cell_angle_beta                  98.121906
_cell_angle_gamma                 97.607008
_cell_volume                      2720.49389923

loop_
_atom_site_label
_atom_site_type_symbol
_atom_type_description
_atom_site_fract_x
_atom_site_fract_y
_atom_site_fract_z
_atom_type_partial_charge
C1    C     C_R   0.558772 0.691039 0.517547 0.896100
C2    C     C_R   0.574744 0.434156 0.224730 0.089090
C3    C     C_R   0.627827 0.625856 0.849636 -0.006809
C4    C     C_R   0.606463 0.583891 0.771874 -0.214777
C5    C     C_R   0.411561 0.563829 0.775651 -0.032353
C6    C     C_R   0.433534 0.604872 0.853754 -0.219747
C7    C     C_R   0.539893 0.632417 0.891381 0.080507
C8    C     C_2   0.545207 0.542201 0.014352 -0.205831
C9    C     C_2   0.555926 0.633377 0.978780 -0.175006
C10   C     C_R   0.499959 0.549883 0.734443 -0.158787
C11   C     C_R   0.264825 0.053106 0.466533 -0.174810
C12   C     C_R   0.513652 0.498387 0.349252 0.881981
C13   C     C_R   0.404188 0.199194 0.476372 -0.073139
C14   C     C_R   0.700986 0.844408 0.544727 -0.089529
C15   C     C_R   0.725763 0.934885 0.503574 -0.216627
C16   C     C_R   0.643187 0.989252 0.468004 0.173494
C17   C     C_R   0.536862 0.963110 0.489951 0.025203
C18   C     C_R   0.511561 0.867676 0.526465 0.000129
C19   C     C_R   0.455516 0.028252 0.479396 0.084364
C20   C     C_R   0.345787 0.988901 0.481913 0.116324
C21   C     C_R   0.321555 0.892825 0.514296 -0.275647
C22   C     C_R   0.406097 0.840750 0.548654 0.163009
C23   C     C_R   0.440150 0.308576 0.488498 0.851731
C24   C     C_R   0.483211 0.133665 0.483404 -0.230964
C25   C     C_R   0.294238 0.158714 0.462005 -0.205506
C26   C     C_R   0.591751 0.801259 0.537679 -0.198539
C27   C     C_R   0.882683 0.312911 0.579428 -0.093187
C28   C     C_R   0.208696 0.626576 0.403292 -0.026493
C29   C     C_R   0.103418 0.636143 0.368379 0.142798
C30   C     C_R   0.017996 0.573788 0.396313 -0.207119
C31   C     C_R   0.037092 0.510748 0.463915 0.016553
C32   C     C_R   0.144179 0.494623 0.488966 0.194532
C33   C     C_R   0.954003 0.461027 0.505429 -0.079838
C34   C     C_R   0.489222 0.509503 0.651218 0.848393
C35   C     C_R   0.973181 0.371870 0.551488 0.021942
C36   C     C_R   0.082285 0.350221 0.571552 0.083954
C37   C     C_R   0.165066 0.416169 0.542675 -0.124395
C38   C     C_R   0.854173 0.499979 0.506032 0.053672
C39   C     C_R   0.785757 0.353990 0.575765 -0.057723
C40   C     C_R   0.524974 0.507890 0.263870 -0.157778
C41   C     C_R   0.491009 0.594775 0.222605 0.115930
C42   C     C_R   0.498129 0.601810 0.141042 -0.187480
C43   C     C_R   0.547697 0.531929 0.101534 0.083252
C44   C     C_R   0.590231 0.449052 0.142918 0.174970
H1    H     H_    0.367235 0.609154 0.888117 0.178241
H2    H     H_    0.231667 0.208568 0.454740 0.168792
H3    H     H_    0.239294 0.866596 0.524748 0.175630
H4    H     H_    0.180091 0.023080 0.465258 0.154737
H5    H     H_    0.566437 0.164461 0.503064 0.159921
H6    H     H_    0.809304 0.960967 0.496967 0.211161
H7    H     H_    0.716165 0.309710 0.596155 0.169234
H8    H     H_    0.674732 0.577296 0.740471 0.229794
H9    H     H_    0.276900 0.672153 0.382464 0.140275
H10   H     H_    0.937466 0.574057 0.364087 0.148510
H11   H     H_    0.246658 0.405939 0.562249 0.227733
H12   H     H_    0.574560 0.705597 0.012382 0.190215
H13   H     H_    0.529684 0.472940 0.976944 0.171646
H14   H     H_    0.462409 0.661363 0.106692 0.165467
N1    N     N_R   0.774070 0.445420 0.541180 -0.145105
N2    N     N_R   0.226730 0.554050 0.459240 -0.146322
O1    O     O_R   0.631480 0.627510 0.519670 -0.543869
O2    O     O_R   0.455770 0.662400 0.493360 -0.644349
O3    O     O_R   0.598240 0.480510 0.398910 -0.560868
O4    O     O_R   0.422540 0.515400 0.372600 -0.635507
O5    O     O_R   0.544230 0.337600 0.506640 -0.632753
O6    O     O_R   0.368520 0.372490 0.480330 -0.640711
O7    O     O_R   0.577460 0.484600 0.627400 -0.597354
O8    O     O_R   0.401760 0.519490 0.601090 -0.614050
Zn1   Zn    Zn3+2 0.617320 0.476700 0.517570 0.988262
Zn2   Zn    Zn3+2 0.382680 0.523300 0.482430 0.920481
C45   C     C_3   0.443835 0.677711 0.265124 -0.345862
C46   C     C_3   0.444403 0.781567 0.223630 -0.921721
H15   H     H_    0.525925 0.808666 0.207464 0.271569
H16   H     H_    0.382607 0.776436 0.169013 0.259445
H17   H     H_    0.423383 0.838902 0.265376 0.257790
H18   H     H_    0.358901 0.648220 0.271846 0.209581
H19   H     H_    0.491406 0.693794 0.325885 0.221691
C47   C     C_2   0.786923 0.802434 0.600047 0.977802
O9    O     O_2   0.880130 0.845906 0.608247 -0.606363
O10   O     O_R   0.760800 0.717604 0.647244 -0.806067
H20   H     H_    0.826336 0.697415 0.683034 0.364947
C48   C     C_3   0.670658 0.064470 0.402239 -0.380935
C49   C     C_3   0.599401 0.035640 0.321967 -0.881632
H21   H     H_    0.626548 0.087747 0.274503 0.250848
H22   H     H_    0.606355 0.955668 0.304417 0.270126
H23   H     H_    0.513372 0.042800 0.325767 0.265142
H24   H     H_    0.667142 0.145105 0.418230 0.200333
H25   H     H_    0.755936 0.063484 0.391924 0.222355
C50   C     C_3   0.383674 0.766557 0.615395 -0.310170
C51   C     C_3   0.352891 0.821519 0.687417 -0.815043
H26   H     H_    0.275276 0.853024 0.670781 0.267513
H27   H     H_    0.342883 0.766735 0.737027 0.263338
H28   H     H_    0.417690 0.884983 0.709661 0.256398
H29   H     H_    0.316612 0.706168 0.591530 0.267326
H30   H     H_    0.455829 0.729591 0.638482 0.202463
C52   C     C_3   0.111881 0.264191 0.629090 -0.377433
C53   C     C_3   0.232175 0.261670 0.659853 -0.870876
H31   H     H_    0.276790 0.246142 0.609736 0.251033
H32   H     H_    0.269735 0.334483 0.690751 0.276114
H33   H     H_    0.240340 0.198853 0.703729 0.267855
H34   H     H_    0.070750 0.269171 0.683127 0.231683
H35   H     H_    0.083821 0.189358 0.597944 0.254534
C54   C     C_2   0.876894 0.203207 0.599527 0.846013
O11   O     O_2   0.896706 0.141805 0.550829 -0.669099
O12   O     O_R   0.840841 0.168993 0.671256 -0.795562
H36   H     H_    0.837272 0.091864 0.676971 0.359488
C55   C     C_2   0.840444 0.604432 0.477453 0.915010
O13   O     O_2   0.770539 0.617373 0.421462 -0.631473
O14   O     O_R   0.917491 0.686738 0.507607 -0.776296
H37   H     H_    0.908497 0.751848 0.476315 0.342123
C56   C     C_3   0.082989 0.709564 0.300519 -0.421856
C57   C     C_3   0.115254 0.820867 0.329587 -0.843310
H38   H     H_    0.071671 0.837087 0.380386 0.266176
H39   H     H_    0.203956 0.836570 0.349455 0.253419
H40   H     H_    0.093861 0.873130 0.279531 0.254384
H41   H     H_    0.130092 0.693494 0.251727 0.204483
H42   H     H_    0.995873 0.699280 0.274415 0.220078
C58   C     C_2   0.295960 0.531092 0.744657 0.878891
O15   O     O_2   0.254199 0.564235 0.681560 -0.623053
O16   O     O_R   0.231966 0.469003 0.792213 -0.804638
H43   H     H_    0.153591 0.453787 0.766240 0.357402
C59   C     C_3   0.652557 0.379530 0.099088 -0.429409
C60   C     C_3   0.761147 0.436410 0.082379 -0.802393
H44   H     H_    0.749441 0.499783 0.039678 0.277417
H45   H     H_    0.809906 0.468579 0.139321 0.254183
H46   H     H_    0.807225 0.382267 0.055309 0.250744
H47   H     H_    0.670320 0.310067 0.132487 0.215157
H48   H     H_    0.603556 0.349054 0.041902 0.196602
C61   C     C_2   0.742262 0.657107 0.887215 0.908939
O17   O     O_2   0.816651 0.627379 0.857910 -0.627923
O18   O     O_R   0.765613 0.721896 0.955289 -0.811261
H49   H     H_    0.846183 0.737262 0.974888 0.348877
C62   C     C_3   0.605866 0.338270 0.269049 -0.387057
C63   C     C_3   0.727024 0.349144 0.301592 -0.791902
H50   H     H_    0.777096 0.352975 0.252170 0.247138
H51   H     H_    0.752200 0.419512 0.339567 0.281101
H52   H     H_    0.744576 0.281953 0.338801 0.235591
H53   H     H_    0.559152 0.320134 0.319789 0.202286
H54   H     H_    0.581564 0.268900 0.229808 0.180895

loop_
_geom_bond_atom_site_label_1
_geom_bond_atom_site_label_2
_ccdc_geom_bond_type
C39   H7    S    
C50   H30   S    
C6    H1    S    
C52   H35   S    
C41   C42   A    
C59   H47   S    
C19   C20   A    
C18   C26   A    
C8    C43   S    
C1    O2    A    
C42   H14   S    
C63   H52   S    
C57   H39   S    
C53   H31   S    
C60   H44   S    
O6    Zn2   S    
O16   H43   S    
C30   H10   S    
C13   C23   S    
C4    H8    S    
C23   O6    A    
C36   C37   A    
C3    C7    A    
C30   C31   A    
C12   O4    A    
C48   H25   S    
C60   H45   S    
C11   C25   A    
C15   C16   A    
C50   H29   S    
O2    Zn2   S    
C15   H6    S    
C44   C59   S    
C38   C55   S    
C58   O15   D    
C17   C19   A    
O3    Zn1   S    
C27   C39   A    
C8    C9    D    
C55   O13   D    
C31   C33   A    
C56   H41   S    
O4    Zn2   S    
C41   C45   S    
C62   H53   S    
C3    C61   S    
C21   C22   A    
C55   O14   S    
C13   C25   A    
C11   H4    S    
C46   H17   S    
C57   H38   S    
C53   H32   S    
C28   N2    A    
C11   C20   A    
C1    C26   S    
C2    C62   S    
C54   O12   S    
C34   O8    A    
C12   O3    A    
C47   O9    D    
C16   C17   A    
C60   H46   S    
C63   H51   S    
C27   C35   A    
C3    C4    A    
C13   C24   A    
O7    Zn1   S    
C35   C36   A    
C12   C40   S    
C43   C44   A    
C29   C30   A    
C8    H13   S    
C36   C52   S    
C51   H27   S    
C49   H21   S    
N2    Zn2   S    
C39   N1    A    
C52   C53   S    
C16   C48   S    
C17   C18   A    
C10   C34   S    
C9    H12   S    
C32   C37   A    
C14   C26   A    
C63   H50   S    
N1    Zn1   S    
C46   H16   S    
C40   C41   A    
C49   H22   S    
C62   H54   S    
C62   C63   S    
O10   H20   S    
C42   C43   A    
C32   N2    A    
C4    C10   A    
O18   H49   S    
C45   H18   S    
C45   H19   S    
C53   H33   S    
C2    C44   A    
C51   H28   S    
C61   O17   D    
O1    Zn1   S    
C24   H5    S    
C7    C9    S    
C28   C29   A    
C56   C57   S    
C18   C22   A    
C29   C56   S    
C31   C32   A    
C46   H15   S    
C1    O1    A    
C34   O7    A    
C28   H9    S    
C6    C7    A    
O12   H36   S    
C33   C38   A    
C5    C58   S    
C56   H42   S    
C23   O5    A    
C19   C24   A    
C59   C60   S    
C45   C46   S    
O14   H37   S    
C51   H26   S    
C5    C6    A    
O5    Zn1   S    
C27   C54   S    
C33   C35   A    
C22   C50   S    
C47   O10   S    
C14   C47   S    
C59   H48   S    
C58   O16   S    
C38   N1    A    
C37   H11   S    
C2    C40   A    
C5    C10   A    
C49   H23   S    
C20   C21   A    
O8    Zn2   S    
C48   C49   S    
C54   O11   D    
C14   C15   A    
C61   O18   S    
C50   C51   S    
C52   H34   S    
C25   H2    S    
C57   H40   S    
C48   H24   S    
C21   H3    S    
