data_mof_unit_66230.cif
_audit_creation_date              2012-10-26T17:15:03-0400
_audit_creation_method            fapswitch 2.2
_symmetry_space_group_name_H-M    P1
_symmetry_Int_Tables_number       1
_space_group_crystal_system       triclinic
_cell_length_a                    18.945205
_cell_length_b                    18.767343
_cell_length_c                    19.080594
_cell_angle_alpha                 109.183073
_cell_angle_beta                  110.559543
_cell_angle_gamma                 108.911183
_cell_volume                      5205.95733645

loop_
_atom_site_label
_atom_site_type_symbol
_atom_type_description
_atom_site_fract_x
_atom_site_fract_y
_atom_site_fract_z
_atom_type_partial_charge
C1    C     C_R   0.615560 0.618176 0.498629 0.561987
C2    C     C_2   0.818439 0.505934 0.828610 -0.147271
C3    C     C_2   0.760540 0.578760 0.756134 0.239681
C4    C     C_R   0.381395 0.500028 0.381091 0.551401
C5    C     C_2   0.692983 0.504484 0.684469 -0.072637
C6    C     C_2   0.258005 0.254475 0.577873 0.237200
C7    C     C_2   0.181803 0.191509 0.505366 -0.068599
C8    C     C_2   0.315429 0.327367 0.574019 -0.175922
C9    C     C_2   0.325171 0.312723 0.505273 -0.159290
C10   C     C_R   0.008039 0.618133 0.124888 0.557544
C11   C     C_R   0.125914 0.499827 0.125577 0.554847
C12   C     C_3   0.191936 0.417409 0.192261 -0.119732
C13   C     C_R   0.005232 0.381827 0.888401 0.558410
C14   C     C_R   0.887582 0.501921 0.889910 0.563965
C15   C     C_R   0.000316 0.119006 0.616366 0.559621
C16   C     C_R   0.384581 0.381838 0.501534 0.558047
C17   C     C_R   0.882612 0.880035 0.497756 0.581438
C18   C     C_R   0.999479 0.880679 0.383755 0.559326
C19   C     C_R   0.117376 0.119917 0.502197 0.583216
C20   C     C_2   0.010928 0.749891 0.327054 -0.154799
C21   C     C_2   0.993777 0.810453 0.315765 -0.107079
C22   C     C_2   0.999848 0.677059 0.255148 -0.159214
C23   C     C_3   0.218588 0.459734 0.288625 -0.114080
C24   C     C_2   0.014720 0.687530 0.194575 -0.115042
C25   C     C_2   0.989178 0.249762 0.677370 -0.154865
C26   C     C_2   0.005966 0.187990 0.685495 -0.107674
C27   C     C_2   0.004088 0.322621 0.752552 -0.155695
C28   C     C_R   0.621085 0.501809 0.619131 0.583449
C29   C     C_2   0.995708 0.312567 0.816186 -0.115343
C30   C     C_3   0.315917 0.582331 0.313784 -0.121507
C31   C     C_3   0.219221 0.542136 0.288044 -0.114234
C32   C     C_3   0.193692 0.499858 0.192863 0.047652
C33   C     C_3   0.289312 0.540068 0.217546 -0.126944
C34   C     C_3   0.314096 0.499877 0.313231 0.046421
C35   C     C_3   0.288507 0.457560 0.217954 -0.126701
C36   C     C_3   0.841814 0.724494 0.800784 -0.008674
C37   C     C_3   0.830015 0.795272 0.784968 -0.360626
C38   C     C_3   0.364568 0.294380 0.713313 -0.000082
C39   C     C_3   0.377326 0.270673 0.784042 -0.361508
C40   C     C_3   0.633414 0.708390 0.288606 -0.001569
C41   C     C_3   0.619688 0.733266 0.218632 -0.360801
C42   C     C_2   0.741307 0.746162 0.422301 0.238276
C43   C     C_2   0.818195 0.808279 0.494440 -0.069090
C44   C     C_2   0.684034 0.673072 0.426006 -0.174964
C45   C     C_2   0.675207 0.687353 0.495211 -0.161144
C46   C     C_2   0.832986 0.574984 0.817037 -0.162178
Cu1   Cu    Cu3+1 0.500860 0.438990 0.439830 0.923605
Cu2   Cu    Cu3+1 0.499140 0.561010 0.560170 0.957013
Cu3   Cu    Cu3+1 0.946020 0.438950 0.007030 0.930333
Cu4   Cu    Cu3+1 0.068040 0.560950 0.006980 0.921545
Cu5   Cu    Cu3+1 0.938110 0.000000 0.438130 0.957402
Cu6   Cu    Cu3+1 0.061890 0.000000 0.561870 0.951565
H1    H     H_    0.189437 0.576769 0.315275 0.109024
H2    H     H_    0.967091 0.804263 0.252164 0.107482
H3    H     H_    0.040052 0.751282 0.200232 0.104952
H4    H     H_    0.034239 0.192897 0.748387 0.105736
H5    H     H_    0.018089 0.383902 0.753411 0.145189
H6    H     H_    0.971880 0.248919 0.810829 0.102051
H7    H     H_    0.318083 0.422946 0.190312 0.120702
H8    H     H_    0.139833 0.349876 0.141152 0.115762
H9    H     H_    0.191077 0.426828 0.319128 0.111076
H10   H     H_    0.646330 0.608127 0.370132 0.140756
H11   H     H_    0.898249 0.630443 0.855432 0.126870
H12   H     H_    0.707259 0.753247 0.548239 0.092870
H13   H     H_    0.873485 0.702179 0.765670 0.118137
H14   H     H_    0.884600 0.753024 0.871398 0.132534
H15   H     H_    0.799789 0.820375 0.820008 0.162731
H16   H     H_    0.894113 0.849710 0.808354 0.089835
H17   H     H_    0.787623 0.768726 0.714750 0.161104
H18   H     H_    0.395554 0.366353 0.744308 0.128723
H19   H     H_    0.397293 0.271059 0.680205 0.129563
H20   H     H_    0.347419 0.199007 0.755320 0.160401
H21   H     H_    0.447793 0.301361 0.830340 0.092644
H22   H     H_    0.346604 0.294081 0.819406 0.160947
H23   H     H_    0.752634 0.453051 0.797005 0.098885
H24   H     H_    0.983819 0.615786 0.254708 0.144400
H25   H     H_    0.970082 0.250302 0.616884 0.145121
H26   H     H_    0.317257 0.572976 0.187276 0.119594
H27   H     H_    0.601885 0.731848 0.323258 0.127193
H28   H     H_    0.601722 0.636325 0.256713 0.125574
H29   H     H_    0.649165 0.709742 0.181744 0.163278
H30   H     H_    0.549068 0.703439 0.173514 0.089364
H31   H     H_    0.650258 0.805053 0.248265 0.161000
H32   H     H_    0.838087 0.802987 0.552482 0.049841
H33   H     H_    0.695318 0.444413 0.667227 0.048828
H34   H     H_    0.162372 0.195968 0.446859 0.052481
H35   H     H_    0.352292 0.392568 0.629367 0.142846
H36   H     H_    0.293883 0.246674 0.452839 0.099815
H37   H     H_    0.028444 0.750780 0.388118 0.145331
H38   H     H_    0.368065 0.649856 0.364873 0.114732
O1    O     O_R   0.589740 0.537510 0.449170 -0.506216
O2    O     O_R   0.051000 0.089020 0.640050 -0.505578
O3    O     O_R   0.858720 0.910970 0.447760 -0.457756
O4    O     O_R   0.588290 0.640550 0.550800 -0.504947
O5    O     O_R   0.963250 0.910970 0.552260 -0.529185
O6    O     O_R   0.949000 0.910980 0.359950 -0.503347
O7    O     O_R   0.053520 0.910980 0.464460 -0.512233
O8    O     O_R   0.036750 0.089030 0.447740 -0.527237
O9    O     O_R   0.141280 0.089030 0.552240 -0.458642
O10   O     O_R   0.410430 0.448470 0.358910 -0.518022
O11   O     O_R   0.408980 0.551520 0.460540 -0.513879
O12   O     O_R   0.057320 0.640510 0.094780 -0.510571
O13   O     O_R   0.411710 0.359450 0.449200 -0.507521
O14   O     O_R   0.410260 0.462490 0.550830 -0.508915
O15   O     O_R   0.591020 0.448480 0.539460 -0.521856
O16   O     O_R   0.589570 0.551530 0.641090 -0.455508
O17   O     O_R   0.954280 0.537480 0.094820 -0.502813
O18   O     O_3   0.759796 0.656353 0.771362 -0.527174
O19   O     O_3   0.274668 0.255314 0.655471 -0.530469
O20   O     O_3   0.723490 0.746365 0.344980 -0.529281
O21   O     O_R   0.045810 0.448440 0.097300 -0.514180
O22   O     O_R   0.148850 0.551460 0.097260 -0.513381
O23   O     O_R   0.956740 0.359390 0.919230 -0.508790
O24   O     O_R   0.059790 0.462410 0.919190 -0.503056
O25   O     O_R   0.865220 0.448430 0.916750 -0.503873
O26   O     O_R   0.968260 0.551460 0.916710 -0.508685
O27   O     O_R   0.946480 0.089020 0.535540 -0.510939

loop_
_geom_bond_atom_site_label_1
_geom_bond_atom_site_label_2
_ccdc_geom_bond_type
Cu3   O23   S    
C38   H18   S    
C37   H17   S    
C36   O18   S    
C18   C21   S    
C18   O6    A    
C22   H24   S    
C30   H38   S    
Cu6   O9    S    
Cu3   O17   S    
C2    C46   D    
C24   H3    S    
C12   C23   S    
Cu2   O4    S    
C25   H25   S    
C29   H6    S    
C13   C29   S    
C36   C37   S    
C9    C16   S    
C9    H36   S    
C38   C39   S    
C36   H14   S    
C33   H26   S    
C7    H34   S    
C27   C29   D    
Cu2   O11   S    
C14   O25   A    
C41   H31   S    
C37   H16   S    
Cu6   O7    S    
Cu6   O5    S    
C35   H7    S    
C34   C35   S    
C39   H22   S    
C33   C35   S    
C15   O2    A    
C16   O14   A    
Cu2   O16   S    
C31   C32   S    
C28   O16   A    
C1    O4    A    
Cu1   O15   S    
C39   H20   S    
C40   H28   S    
C17   O5    A    
C18   O7    A    
C21   H2    S    
C13   O24   A    
Cu5   O6    S    
Cu3   O21   S    
C5    H33   S    
Cu5   O8    S    
C1    O1    A    
C12   C32   S    
C43   H32   S    
C10   O17   A    
C42   C44   S    
C19   O8    A    
C4    C34   S    
Cu1   O13   S    
C30   C34   S    
C11   O21   A    
Cu5   Cu6   S    
C10   O12   A    
C27   H5    S    
C19   O9    A    
C36   H13   S    
C8    C9    D    
C15   C26   S    
C6    C8    S    
C10   C24   S    
C25   C26   D    
Cu1   O10   S    
C15   O27   A    
Cu4   O24   S    
C23   C31   S    
C17   C43   S    
C5    C28   S    
C16   O13   A    
Cu1   Cu2   S    
C28   O15   A    
C23   C34   S    
C41   H29   S    
C4    O11   A    
Cu4   O22   S    
C40   H27   S    
C31   H1    S    
C12   C35   S    
Cu5   O3    S    
C40   C41   S    
Cu3   O25   S    
C20   C22   S    
C11   C32   S    
Cu4   O12   S    
C7    C19   S    
C4    O10   A    
C6    O19   S    
C22   C24   D    
Cu6   O2    S    
C17   O3    A    
C42   C43   D    
C44   C45   D    
C38   H19   S    
C3    C46   S    
C30   C33   S    
C11   O22   A    
Cu1   O1    S    
C38   O19   S    
C3    C5    D    
C26   H4    S    
C40   O20   S    
C6    C7    D    
C3    O18   S    
C25   C27   S    
C20   H37   S    
C45   H12   S    
C46   H11   S    
C8    H35   S    
C44   H10   S    
C32   C33   S    
C42   O20   S    
C1    C45   S    
C30   C31   S    
C14   O26   A    
C41   H30   S    
C37   H15   S    
Cu5   O27   S    
Cu4   O26   S    
C39   H21   S    
C2    C14   S    
C12   H8    S    
C23   H9    S    
C20   C21   D    
Cu3   Cu4   S    
C13   O23   A    
C2    H23   S    
Cu2   O14   S    
