data_mof_unit_49470.cif
_audit_creation_date              2012-12-10T17:31:20-0500
_audit_creation_method            fapswitch 2.2
_symmetry_space_group_name_H-M    P1
_symmetry_Int_Tables_number       1
_space_group_crystal_system       triclinic
_cell_length_a                    19.002872
_cell_length_b                    18.280135
_cell_length_c                    12.364402
_cell_angle_alpha                 90.046181
_cell_angle_beta                  129.043118
_cell_angle_gamma                 89.988156
_cell_volume                      3335.87151408

loop_
_atom_site_label
_atom_site_type_symbol
_atom_type_description
_atom_site_fract_x
_atom_site_fract_y
_atom_site_fract_z
_atom_type_partial_charge
C1    C     C_R   0.613002 0.898541 0.653535 0.838873
C2    C     C_R   0.611861 0.102356 0.652081 0.833618
C3    C     C_R   0.113001 0.398541 0.653534 0.838870
C4    C     C_R   0.111862 0.602356 0.652082 0.833621
C5    C     C_R   0.241739 0.779146 0.033253 0.073891
C6    C     C_R   0.244519 0.222956 0.036655 0.088437
C7    C     C_R   0.741733 0.279153 0.033242 0.073891
C8    C     C_R   0.744521 0.722956 0.036656 0.088440
C9    C     C_R   0.658534 0.281809 0.010118 0.090376
C10   C     C_R   0.659329 0.716030 0.006513 0.087279
C11   C     C_R   0.158541 0.781798 0.010132 0.090375
C12   C     C_R   0.159330 0.216034 0.006519 0.087280
C13   C     C_R   0.579922 0.254935 0.886373 -0.241242
C14   C     C_R   0.581205 0.740971 0.880123 -0.243938
C15   C     C_R   0.079928 0.754926 0.886386 -0.241241
C16   C     C_R   0.081205 0.240976 0.880131 -0.243941
C17   C     C_R   0.582898 0.222003 0.788034 0.365071
C18   C     C_R   0.586056 0.775837 0.785318 0.375944
C19   C     C_R   0.082903 0.722000 0.788042 0.365068
C20   C     C_R   0.086054 0.275840 0.785322 0.375947
C21   C     C_R   0.317794 0.812028 0.154097 -0.180827
C22   C     C_R   0.319992 0.190360 0.158778 -0.156868
C23   C     C_R   0.817790 0.312030 0.154092 -0.180828
C24   C     C_R   0.819993 0.690361 0.158780 -0.156865
C25   C     C_R   0.229288 0.851208 0.222660 -0.165576
C26   C     C_R   0.227593 0.145287 0.216618 -0.159306
C27   C     C_R   0.729282 0.351217 0.222647 -0.165582
C28   C     C_R   0.727590 0.645282 0.216609 -0.159309
C29   C     C_R   0.676659 0.161454 0.736907 -0.083361
C30   C     C_R   0.680890 0.842201 0.742690 -0.080041
C31   C     C_R   0.176662 0.661452 0.736910 -0.083361
C32   C     C_R   0.180887 0.342198 0.742686 -0.080043
C33   C     C_R   0.683913 0.013456 0.286204 0.282171
C34   C     C_R   0.183913 0.513456 0.286204 0.282169
C35   C     C_R   0.343776 0.997650 0.626020 -0.070204
C36   C     C_R   0.843777 0.497654 0.626020 -0.070216
C37   C     C_R   0.307098 0.002972 0.694395 0.360320
C38   C     C_R   0.807099 0.502978 0.694396 0.360334
C39   C     C_R   0.384186 0.098847 0.342594 0.844921
C40   C     C_R   0.384095 0.901149 0.342484 0.848618
C41   C     C_R   0.884186 0.598846 0.342594 0.844915
C42   C     C_R   0.884094 0.401150 0.342483 0.848616
C43   C     C_R   0.364544 0.013609 0.839299 0.289598
C44   C     C_R   0.864546 0.513612 0.839301 0.289617
C45   C     C_R   0.460337 0.006605 0.919620 -0.145515
C46   C     C_R   0.960338 0.506605 0.919621 -0.145527
C47   C     C_R   0.493419 0.002803 0.842251 0.235216
C48   C     C_R   0.993419 0.502802 0.842252 0.235218
C49   C     C_R   0.525250 0.005469 0.071307 -0.030865
C50   C     C_R   0.025250 0.505468 0.071307 -0.030865
C51   C     C_R   0.619505 0.010339 0.139211 0.069266
C52   C     C_R   0.119506 0.510339 0.139211 0.069268
C53   C     C_R   0.648444 0.009841 0.059961 -0.216339
C54   C     C_R   0.148444 0.509841 0.059961 -0.216339
C55   C     C_R   0.587422 0.003740 0.916561 -0.151174
C56   C     C_R   0.087422 0.503740 0.916561 -0.151173
C57   C     C_R   0.502292 0.995997 0.160154 0.039172
C58   C     C_R   0.002293 0.495997 0.160154 0.039175
C59   C     C_R   0.655011 0.009279 0.365020 0.019844
C60   C     C_R   0.155010 0.509279 0.365020 0.019841
C61   C     C_R   0.653625 0.315903 0.106992 -0.150814
C62   C     C_R   0.652156 0.679459 0.098971 -0.152254
C63   C     C_R   0.153633 0.815891 0.107008 -0.150815
C64   C     C_R   0.152159 0.179466 0.098982 -0.152256
C65   C     C_R   0.310547 0.851442 0.243066 -0.011878
C66   C     C_R   0.310707 0.148379 0.243056 -0.017731
C67   C     C_R   0.810544 0.351446 0.243060 -0.011879
C68   C     C_R   0.810706 0.648378 0.243054 -0.017729
C69   C     C_R   0.755930 0.163722 0.751048 -0.182925
C70   C     C_R   0.762966 0.845675 0.765208 -0.171109
C71   C     C_R   0.255933 0.663717 0.751052 -0.182927
C72   C     C_R   0.262961 0.345667 0.765195 -0.171115
C73   C     C_R   0.328098 0.707407 0.851613 -0.139597
C74   C     C_R   0.337539 0.306347 0.872230 -0.125167
C75   C     C_R   0.828090 0.207419 0.851600 -0.139587
C76   C     C_R   0.837546 0.806359 0.872249 -0.125169
C77   C     C_R   0.324605 0.745905 0.944918 -0.151799
C78   C     C_R   0.332856 0.265967 0.962533 -0.111200
C79   C     C_R   0.824596 0.245919 0.944901 -0.151797
C80   C     C_R   0.832862 0.765978 0.962548 -0.111219
C81   C     C_R   0.745788 0.244596 0.934332 0.042006
C82   C     C_R   0.750785 0.760657 0.942463 0.059546
C83   C     C_R   0.245795 0.744588 0.934343 0.042004
C84   C     C_R   0.250782 0.260653 0.942457 0.059538
C85   C     C_R   0.667361 0.208564 0.818495 -0.011996
C86   C     C_R   0.671508 0.793500 0.822123 -0.004633
C87   C     C_R   0.167366 0.708560 0.818502 -0.012003
C88   C     C_R   0.171505 0.293499 0.822121 -0.004633
Cu1   Cu    Cu3+1 0.526340 0.000000 0.421010 0.966994
Cu2   Cu    Cu3+1 0.026340 0.500000 0.421010 0.966993
Cu3   Cu    Cu3+1 0.473640 0.000000 0.578990 0.992706
Cu4   Cu    Cu3+1 0.973640 0.500000 0.578990 0.992708
H1    H     H_    0.222906 0.881531 0.291402 0.141420
H2    H     H_    0.219680 0.112780 0.281578 0.148398
H3    H     H_    0.722900 0.381544 0.291386 0.141422
H4    H     H_    0.719676 0.612772 0.281565 0.148386
H5    H     H_    0.719699 0.011819 0.108497 0.205618
H6    H     H_    0.219699 0.511819 0.108497 0.205618
H7    H     H_    0.434732 0.982483 0.119397 0.197380
H8    H     H_    0.934732 0.482482 0.119397 0.197379
H9    H     H_    0.299128 0.994351 0.513644 0.142990
H10   H     H_    0.799129 0.494356 0.513644 0.142982
H11   H     H_    0.617598 0.000368 0.867732 0.190975
H12   H     H_    0.117598 0.500367 0.867732 0.190975
H13   H     H_    0.514948 0.263007 0.862586 0.173101
H14   H     H_    0.515348 0.729716 0.851427 0.166383
H15   H     H_    0.014954 0.762998 0.862601 0.173106
H16   H     H_    0.015348 0.229725 0.851441 0.166380
H17   H     H_    0.590239 0.318210 0.089805 0.128220
H18   H     H_    0.587270 0.674135 0.076485 0.133120
H19   H     H_    0.090248 0.818193 0.089825 0.128219
H20   H     H_    0.087274 0.174145 0.076502 0.133124
H21   H     H_    0.383542 0.810035 0.180221 0.144211
H22   H     H_    0.386765 0.193761 0.188898 0.142872
H23   H     H_    0.883540 0.310030 0.180224 0.144211
H24   H     H_    0.886767 0.693764 0.188904 0.142872
H25   H     H_    0.763679 0.129460 0.687608 0.165030
H26   H     H_    0.770925 0.881685 0.703990 0.160990
H27   H     H_    0.263680 0.629456 0.687608 0.165030
H28   H     H_    0.270919 0.381675 0.703975 0.160994
H29   H     H_    0.384221 0.777220 0.022011 0.127923
H30   H     H_    0.394682 0.239072 0.045597 0.136374
H31   H     H_    0.884205 0.277243 0.021984 0.127924
H32   H     H_    0.894690 0.739087 0.045620 0.136364
H33   H     H_    0.388853 0.708866 0.861461 0.140416
H34   H     H_    0.400797 0.309959 0.889488 0.134524
H35   H     H_    0.888844 0.208881 0.861444 0.140418
H36   H     H_    0.900807 0.809977 0.889515 0.134524
H37   H     H_    0.703592 0.012875 0.477397 0.154598
H38   H     H_    0.203591 0.512876 0.477397 0.154598
N1    N     N_R   0.566260 0.000000 0.302220 -0.223252
N2    N     N_R   0.066260 0.500000 0.302220 -0.223251
N3    N     N_R   0.434410 0.000000 0.697680 -0.207336
N4    N     N_R   0.934410 0.500000 0.697680 -0.207334
O1    O     O_R   0.608610 0.924520 0.551740 -0.581704
O2    O     O_R   0.608610 0.075480 0.551740 -0.594347
O3    O     O_R   0.108610 0.424520 0.551740 -0.581706
O4    O     O_R   0.108610 0.575480 0.551740 -0.594348
O5    O     O_R   0.564110 0.924510 0.685150 -0.575717
O6    O     O_R   0.564110 0.075490 0.685150 -0.565909
O7    O     O_R   0.064110 0.424510 0.685150 -0.575715
O8    O     O_R   0.064110 0.575490 0.685150 -0.565908
O9    O     O_R   0.435880 0.075470 0.314850 -0.573430
O10   O     O_R   0.435880 0.924530 0.314850 -0.595040
O11   O     O_R   0.935880 0.575470 0.314850 -0.573427
O12   O     O_R   0.935880 0.424530 0.314850 -0.595040
O13   O     O_R   0.391380 0.075460 0.448260 -0.550223
O14   O     O_R   0.391380 0.924540 0.448260 -0.560879
O15   O     O_R   0.891380 0.575460 0.448260 -0.550225
O16   O     O_R   0.891380 0.424540 0.448260 -0.560874
Cl1   Cl    Cl    0.801343 0.023025 0.376917 -0.596814
Cl2   Cl    Cl    0.301343 0.523026 0.376916 -0.596814
Cl3   Cl    Cl    0.311586 0.048849 0.905323 -0.600024
Cl4   Cl    Cl    0.811588 0.548851 0.905326 -0.600009
O17   O     O_3   0.213989 0.005280 0.617809 -0.548192
C89   C     C_3   0.175270 0.935904 0.557367 0.091227
H39   H     H_    0.141836 0.915839 0.599864 0.199508
H40   H     H_    0.225062 0.892839 0.581052 0.113276
C90   C     C_3   0.103597 0.943970 0.399341 -0.335516
H41   H     H_    0.050700 0.983182 0.375239 0.257725
H42   H     H_    0.135604 0.966065 0.355865 0.196202
C91   C     C_3   0.059012 0.870694 0.329679 -0.904334
H43   H     H_    0.110411 0.831112 0.349686 0.257059
H44   H     H_    0.007260 0.878535 0.215417 0.252319
H45   H     H_    0.025249 0.847901 0.369872 0.280135
O18   O     O_3   0.713992 0.505294 0.617817 -0.548187
C92   C     C_3   0.675260 0.435929 0.557325 0.091208
H46   H     H_    0.641807 0.415856 0.599787 0.199521
H47   H     H_    0.725042 0.392859 0.580994 0.113275
C93   C     C_3   0.603603 0.444024 0.399306 -0.335526
H48   H     H_    0.550725 0.483254 0.375222 0.257734
H49   H     H_    0.635628 0.466117 0.355857 0.196183
C94   C     C_3   0.558986 0.370765 0.329596 -0.904342
H50   H     H_    0.610369 0.331168 0.349597 0.257049
H51   H     H_    0.507246 0.378626 0.215339 0.252332
H52   H     H_    0.525202 0.347978 0.369759 0.280128
Cl5   Cl    Cl    0.478280 0.215336 0.618798 -0.618188
Cl6   Cl    Cl    0.483353 0.781163 0.613490 -0.598565
Cl7   Cl    Cl    0.978285 0.715338 0.618805 -0.618191
Cl8   Cl    Cl    0.983348 0.281166 0.613497 -0.598561

loop_
_geom_bond_atom_site_label_1
_geom_bond_atom_site_label_2
_ccdc_geom_bond_type
C26   H2    S    
C83   C87   A    
C25   H1    S    
Cu1   O1    S    
C72   C74   A    
C14   C18   A    
C27   H3    S    
C3    O7    A    
C48   C56   A    
C61   H17   S    
C35   N3    A    
Cu3   O13   S    
C32   C72   A    
C74   H34   S    
C94   H50   S    
C15   C19   A    
C39   O13   A    
C59   N1    A    
C18   C86   A    
C75   C79   A    
C2    C29   S    
C9    C61   A    
C48   N4    A    
C89   H39   S    
C28   C68   A    
C23   H23   S    
C5    C11   A    
Cu2   O11   S    
C11   C63   A    
C6    C12   A    
C12   C64   A    
C9    C13   A    
C73   H33   S    
C64   H20   S    
C41   O15   A    
C93   H48   S    
C77   C83   A    
C23   C67   A    
C6    C22   A    
C55   H11   S    
C49   C57   A    
C41   O11   A    
C36   H10   S    
C25   C63   A    
C15   H15   S    
C29   C69   A    
C37   O17   S    
C22   C66   A    
C26   C64   A    
C27   C61   A    
Cu2   O4    S    
C11   C15   A    
C89   H40   S    
C12   C16   A    
C44   C46   A    
C49   C51   A    
C62   H18   S    
C50   C52   A    
C90   H42   S    
C3    O3    A    
C30   C86   A    
Cu4   O8    S    
C29   C85   A    
C1    O5    A    
Cu2   N2    S    
C53   C55   A    
C33   C59   A    
Cu1   O2    S    
C47   N3    A    
C34   C60   A    
C92   H47   S    
C60   N2    A    
C10   C62   A    
C42   O16   A    
C17   C85   A    
C21   C65   A    
Cu3   O14   S    
C30   C70   A    
C52   C54   A    
C92   C93   S    
C46   C48   A    
C45   C47   A    
C54   C56   A    
C31   C87   A    
C28   C62   A    
C40   O14   A    
C26   C66   A    
C84   C88   A    
C6    C84   A    
C56   H12   S    
C13   H13   S    
C33   Cl1   S    
C58   N2    A    
C92   H46   S    
C79   C81   A    
C77   H29   S    
C34   Cl2   S    
C53   H5    S    
C82   C86   A    
C24   C68   A    
C79   H31   S    
C2    O2    A    
C51   C53   A    
C50   C58   A    
C37   C43   A    
C38   C44   A    
C78   C84   A    
C20   Cl8   S    
C91   H45   S    
Cu2   Cu4   S    
C90   H41   S    
Cu3   N3    S    
C45   C49   A    
C16   C20   A    
C72   H28   S    
C90   C91   S    
C58   H8    S    
Cu4   O7    S    
C43   C45   A    
C94   H51   S    
Cu3   O5    S    
C21   H21   S    
C7    C81   A    
C39   O9    A    
C24   H24   S    
C40   C65   S    
C40   O10   A    
Cu4   O16   S    
O18   C92   S    
C76   H36   S    
C39   C66   S    
C8    C82   A    
C32   C88   A    
Cu1   Cu3   S    
C70   C76   A    
C60   H38   S    
C42   O12   A    
C19   Cl7   S    
O17   C89   S    
Cu2   O3    S    
C47   C55   A    
C91   H43   S    
C80   H32   S    
C94   H52   S    
C17   Cl5   S    
C38   O18   S    
C41   C68   S    
C59   H37   S    
C35   C37   A    
C57   N1    A    
C89   C90   S    
Cu4   N4    S    
C76   C80   A    
C35   H9    S    
C36   N4    A    
C5    C83   A    
C13   C17   A    
C33   C51   A    
Cu1   O10   S    
C46   C50   A    
C34   C52   A    
Cu1   N1    S    
C71   H27   S    
C28   H4    S    
C2    O6    A    
C36   C38   A    
C19   C87   A    
C44   Cl4   S    
Cu2   O12   S    
C91   H44   S    
Cu1   O9    S    
C4    O8    A    
C69   H25   S    
C42   C67   S    
C93   H49   S    
C70   H26   S    
C7    C23   A    
C20   C88   A    
C31   C71   A    
C1    C30   S    
C8    C24   A    
C80   C82   A    
C69   C75   A    
C75   H35   S    
C63   H19   S    
C3    C32   S    
C78   H30   S    
C4    C31   S    
C27   C67   A    
C16   H16   S    
C4    O4    A    
Cu3   O6    S    
C7    C9    A    
C22   H22   S    
C5    C21   A    
C18   Cl6   S    
C8    C10   A    
C74   C78   A    
C14   H14   S    
C71   C73   A    
Cu4   O15   S    
C25   C65   A    
C73   C77   A    
C54   H6    S    
C1    O1    A    
C43   Cl3   S    
C81   C85   A    
C10   C14   A    
C93   C94   S    
C57   H7    S    
