data_mof_unit_24685.cif
_audit_creation_date              2012-12-11T14:21:08-0500
_audit_creation_method            fapswitch 2.2
_symmetry_space_group_name_H-M    P1
_symmetry_Int_Tables_number       1
_space_group_crystal_system       triclinic
_cell_length_a                    11.628534
_cell_length_b                    11.695022
_cell_length_c                    19.439528
_cell_angle_alpha                 90.638611
_cell_angle_beta                  89.745987
_cell_angle_gamma                 59.617457
_cell_volume                      2280.33547758

loop_
_atom_site_label
_atom_site_type_symbol
_atom_type_description
_atom_site_fract_x
_atom_site_fract_y
_atom_site_fract_z
_atom_type_partial_charge
C1    C     C_R   0.640464 0.117506 0.598905 0.544574
C2    C     C_1   0.641374 0.703523 0.667605 0.011023
C3    C     C_1   0.127256 0.198402 0.859560 0.006484
C4    C     C_1   0.170694 0.171076 0.727511 -0.029521
C5    C     C_1   0.150307 0.182219 0.798946 -0.030131
C6    C     C_1   0.194252 0.162061 0.666959 0.010096
C7    C     C_1   0.678828 0.190793 0.861053 0.004087
C8    C     C_1   0.658348 0.167776 0.728896 -0.029525
C9    C     C_1   0.665700 0.180797 0.800428 -0.030076
C10   C     C_1   0.652735 0.150384 0.668289 0.003467
C11   C     C_R   0.691324 0.587850 0.208061 -0.004882
C12   C     C_R   0.612425 0.746136 0.598305 0.541894
C13   C     C_R   0.581051 0.603569 0.248547 0.009286
C14   C     C_R   0.598580 0.587263 0.320068 0.046591
C15   C     C_R   0.786122 0.618773 0.311642 -0.173983
C16   C     C_R   0.798865 0.584121 0.242142 -0.167928
C17   C     C_R   0.450812 0.648860 0.223903 -0.125171
C18   C     C_R   0.350464 0.663082 0.268609 -0.148084
C19   C     C_R   0.379368 0.621011 0.336168 -0.051215
C20   C     C_R   0.509236 0.566706 0.360265 0.053431
C21   C     C_R   0.679507 0.630552 0.349903 0.005330
C22   C     C_R   0.156849 0.192768 0.191579 -0.018401
C23   C     C_R   0.240828 0.145677 0.597769 0.550789
C24   C     C_R   0.162902 0.289373 0.232631 0.014737
C25   C     C_R   0.137899 0.293912 0.303794 0.012178
C26   C     C_R   0.171402 0.072162 0.295865 -0.038607
C27   C     C_R   0.171294 0.079473 0.223874 -0.168092
C28   C     C_R   0.188431 0.384640 0.204510 -0.088561
C29   C     C_R   0.161581 0.496133 0.242653 -0.145872
C30   C     C_R   0.104992 0.516239 0.308279 -0.121126
C31   C     C_R   0.092766 0.415826 0.339630 0.044334
C32   C     C_R   0.166249 0.174903 0.336432 -0.025513
C33   C     C_R   0.713548 0.208489 0.205907 -0.021967
C34   C     C_R   0.623290 0.085945 0.393891 0.528954
C35   C     C_R   0.802696 0.084557 0.236479 0.034078
C36   C     C_R   0.752173 0.035614 0.285690 0.028389
C37   C     C_R   0.555219 0.250733 0.296988 -0.045781
C38   C     C_R   0.589079 0.290595 0.236821 -0.164418
C39   C     C_R   0.932805 0.997423 0.211547 -0.065079
C40   C     C_R   0.983657 0.861926 0.212826 -0.102777
C41   C     C_R   0.913723 0.814135 0.248307 -0.117340
C42   C     C_R   0.805341 0.898763 0.289583 -0.075518
C43   C     C_R   0.641204 0.124010 0.324225 -0.029333
C44   C     C_R   0.081793 0.231115 0.928938 0.548028
C45   C     C_R   0.623280 0.727707 0.407074 0.536197
C46   C     C_R   0.683929 0.604008 0.929706 0.558149
C47   C     C_R   0.708457 0.206595 0.930403 0.560366
C48   C     C_R   0.087828 0.233656 0.124244 0.523821
C49   C     C_R   0.705473 0.556396 0.133834 0.543442
C50   C     C_R   0.738772 0.234098 0.135135 0.531234
C51   C     C_R   0.238468 0.143307 0.402861 0.539874
C52   C     C_1   0.670544 0.646142 0.860303 0.004944
C53   C     C_1   0.655036 0.683156 0.728194 -0.028993
C54   C     C_1   0.663693 0.666278 0.799673 -0.030660
Cr1   Cr    Cr6+3 0.404720 0.198220 0.499960 1.054762
Cr2   Cr    Cr6+3 0.698290 0.897110 0.500380 1.045787
Cr3   Cr    Cr6+3 0.396970 0.904720 0.499610 1.039011
Cr4   Cr    Cr6+3 0.926180 0.151990 0.028120 1.014006
Cr5   Cr    Cr6+3 0.921330 0.451820 0.027470 1.024092
Cr6   Cr    Cr6+3 0.626260 0.446870 0.028710 1.017471
H1    H     H_    0.853204 0.645075 0.334851 0.127357
H2    H     H_    0.179033 0.569407 0.219731 0.103714
H3    H     H_    0.078863 0.606679 0.336611 0.126700
H4    H     H_    0.984949 0.032772 0.181416 0.144247
H5    H     H_    0.518398 0.384057 0.214050 0.144507
H6    H     H_    0.070401 0.796296 0.181977 0.087721
H7    H     H_    0.940516 0.713627 0.242123 0.109914
H8    H     H_    0.753891 0.860483 0.318839 0.130585
H9    H     H_    0.418609 0.687896 0.173300 0.158452
H10   H     H_    0.886967 0.565083 0.213799 0.154020
H11   H     H_    0.249606 0.708174 0.251037 0.116884
H12   H     H_    0.299950 0.632452 0.369910 0.154312
H13   H     H_    0.228552 0.373568 0.152917 0.143363
H14   H     H_    0.179262 0.998400 0.192975 0.111842
O1    O     O_R   0.267740 0.231960 0.575440 -0.493735
O2    O     O_R   0.685970 0.784660 0.430010 -0.517132
O3    O     O_R   0.502530 0.767000 0.423990 -0.514389
O4    O     O_R   0.288330 0.026350 0.429250 -0.482901
O5    O     O_3   0.499990 0.000020 0.499980 -0.280817
O6    O     O_R   0.821500 0.119340 0.952830 -0.496200
O7    O     O_R   0.037130 0.162530 0.957360 -0.492066
O8    O     O_R   0.056440 0.344740 0.951340 -0.502851
O9    O     O_R   0.797900 0.560360 0.957470 -0.485129
O10   O     O_R   0.596130 0.579390 0.952730 -0.501655
O11   O     O_R   0.639060 0.321160 0.958670 -0.489048
O12   O     O_R   0.527280 0.186640 0.570530 -0.496253
O13   O     O_R   0.821240 0.124200 0.104370 -0.511614
O14   O     O_R   0.036890 0.167040 0.097840 -0.529626
O15   O     O_R   0.056180 0.349610 0.102880 -0.527901
O16   O     O_R   0.797660 0.564870 0.097950 -0.491407
O17   O     O_R   0.595880 0.584250 0.104270 -0.535493
O18   O     O_R   0.638830 0.325670 0.099150 -0.506429
O19   O     O_3   0.824590 0.350230 0.028100 -0.289811
O20   O     O_R   0.728090 0.003450 0.576380 -0.496468
O21   O     O_R   0.682970 0.789190 0.570490 -0.485678
O22   O     O_R   0.499290 0.771880 0.575530 -0.519685
O23   O     O_R   0.285330 0.030870 0.569730 -0.493601
O24   O     O_R   0.270980 0.227080 0.423890 -0.489243
O25   O     O_R   0.530280 0.182120 0.430050 -0.486805
O26   O     O_R   0.731330 0.998570 0.424830 -0.503179
C55   C     C_1   0.029692 0.442207 0.406997 0.205641
N1    N     N_1   0.979161 0.463508 0.460745 -0.303994
C56   C     C_1   0.434773 0.340048 0.332360 0.236784
N2    N     N_1   0.343443 0.405503 0.366901 -0.304084
C57   C     C_3   0.546665 0.500676 0.430489 -0.270297
C58   C     C_3   0.685121 0.376139 0.429877 -0.417140
H15   H     H_    0.698653 0.319702 0.477666 0.160655
H16   H     H_    0.698308 0.311271 0.385061 0.169109
H17   H     H_    0.763664 0.403357 0.427695 0.160472
H18   H     H_    0.544129 0.567996 0.471593 0.178205
H19   H     H_    0.473154 0.472442 0.447000 0.163235
C59   C     C_1   0.152811 0.972254 0.328073 0.225211
N3    N     N_1   0.133875 0.895656 0.355169 -0.310644

loop_
_geom_bond_atom_site_label_1
_geom_bond_atom_site_label_2
_ccdc_geom_bond_type
C25   C31   A    
Cr2   O21   S    
C22   C48   S    
C57   H18   S    
C26   C32   A    
C55   N1    T    
Cr2   O2    S    
C26   C59   S    
C11   C13   A    
C41   C42   A    
Cr3   O5    S    
C36   C42   A    
C35   C36   A    
Cr5   O8    S    
C49   O16   A    
C2    C12   S    
Cr4   O13   S    
C41   H7    S    
C53   C54   S    
C17   H9    S    
C39   H4    S    
C26   C27   A    
C29   C30   A    
Cr2   O5    S    
C45   O2    A    
C31   C55   S    
C14   C21   A    
C28   C29   A    
Cr4   O19   S    
Cr5   O9    S    
C44   O8    A    
C30   C31   A    
C58   H15   S    
C15   C16   A    
C46   C52   S    
C18   H11   S    
C18   C19   A    
Cr5   O15   S    
C19   C20   A    
C8    C9    S    
Cr3   O22   S    
C34   O26   A    
C48   O14   A    
C12   O21   A    
C27   H14   S    
Cr4   O6    S    
Cr1   O1    S    
Cr6   O19   S    
C51   O24   A    
C57   H19   S    
C40   H6    S    
C30   H3    S    
C42   H8    S    
C19   H12   S    
Cr2   O20   S    
C47   O6    A    
C49   O17   A    
C28   H13   S    
C59   N3    T    
C52   C54   T    
C17   C18   A    
C21   C45   S    
Cr6   O18   S    
C3    C44   S    
C34   C43   S    
Cr3   O3    S    
C16   H10   S    
C24   C25   A    
C4    C6    T    
C44   O7    A    
Cr4   O7    S    
C39   C40   A    
C37   C56   S    
C1    O20   A    
C33   C50   S    
Cr5   O16   S    
C7    C47   S    
C37   C43   A    
C35   C39   A    
C32   C51   S    
C37   C38   A    
C11   C49   S    
C14   C20   A    
Cr1   O5    S    
C11   C16   A    
C38   H5    S    
Cr3   O23   S    
C34   O25   A    
C15   H1    S    
C50   O13   A    
C46   O10   A    
C50   O18   A    
C40   C41   A    
C23   O23   A    
C48   O15   A    
C22   C24   A    
Cr2   O26   S    
C47   O11   A    
C20   C57   S    
Cr6   O17   S    
C1    O12   A    
C7    C9    T    
C29   H2    S    
Cr3   O4    S    
C1    C10   S    
C24   C28   A    
C23   O1    A    
C4    C5    S    
C3    C5    T    
C2    C53   T    
Cr4   O14   S    
Cr6   O11   S    
C57   C58   S    
C33   C38   A    
C13   C17   A    
C22   C27   A    
Cr1   O12   S    
C51   O4    A    
Cr6   O10   S    
C58   H16   S    
C25   C32   A    
C6    C23   S    
Cr1   O24   S    
C33   C35   A    
C46   O9    A    
C15   C21   A    
C8    C10   T    
Cr1   O25   S    
C56   N2    T    
C12   O22   A    
C36   C43   A    
C45   O3    A    
Cr5   O19   S    
C13   C14   A    
C58   H17   S    
