data_mof_unit_33041.cif
_audit_creation_date              2012-12-10T17:17:54-0500
_audit_creation_method            fapswitch 2.2
_symmetry_space_group_name_H-M    P1
_symmetry_Int_Tables_number       1
_space_group_crystal_system       triclinic
_cell_length_a                    14.822345
_cell_length_b                    15.905772
_cell_length_c                    9.590083
_cell_angle_alpha                 89.297431
_cell_angle_beta                  90.732313
_cell_angle_gamma                 90.027033
_cell_volume                      2260.6112744

loop_
_atom_site_label
_atom_site_type_symbol
_atom_type_description
_atom_site_fract_x
_atom_site_fract_y
_atom_site_fract_z
_atom_type_partial_charge
C1    C     C_R   0.386301 0.876984 0.500830 0.800716
C2    C     C_R   0.386263 0.122678 0.498822 0.796469
C3    C     C_R   0.886301 0.376984 0.500830 0.800714
C4    C     C_R   0.886263 0.622677 0.498822 0.796470
C5    C     C_R   0.270237 0.209272 0.381048 -0.213409
C6    C     C_R   0.283157 0.780668 0.378935 -0.213710
C7    C     C_R   0.770232 0.709267 0.381051 -0.213407
C8    C     C_R   0.783158 0.280667 0.378935 -0.213710
C9    C     C_R   0.702954 0.769376 0.385234 -0.214055
C10   C     C_R   0.714271 0.222090 0.379802 -0.215860
C11   C     C_R   0.202957 0.269379 0.385230 -0.214054
C12   C     C_R   0.214270 0.722091 0.379802 -0.215858
C13   C     C_R   0.685190 0.811745 0.509269 -0.117548
C14   C     C_R   0.679756 0.192109 0.506235 -0.116939
C15   C     C_R   0.185188 0.311743 0.509269 -0.117548
C16   C     C_R   0.179756 0.692109 0.506236 -0.116940
C17   C     C_R   0.665680 0.006619 0.146871 -0.144806
C18   C     C_R   0.165680 0.506616 0.146871 -0.144811
C19   C     C_R   0.746430 0.013750 0.075892 -0.244348
C20   C     C_R   0.246430 0.513743 0.075892 -0.244345
C21   C     C_R   0.746249 0.014390 0.932084 -0.181009
C22   C     C_R   0.246250 0.514382 0.932084 -0.181003
C23   C     C_R   0.665380 0.007166 0.858564 -0.140983
C24   C     C_R   0.165381 0.507162 0.858563 -0.140978
C25   C     C_R   0.581361 0.003676 0.926486 0.138152
C26   C     C_R   0.081361 0.503674 0.926486 0.138149
C27   C     C_R   0.581362 0.003743 0.076032 0.194400
C28   C     C_R   0.081362 0.503741 0.076032 0.194399
C29   C     C_R   0.422964 0.995293 0.074969 -0.072281
C30   C     C_R   0.922963 0.495295 0.074969 -0.072280
C31   C     C_R   0.615252 0.122126 0.501110 0.774998
C32   C     C_R   0.617790 0.879649 0.502486 0.781157
C33   C     C_R   0.115253 0.622126 0.501110 0.774998
C34   C     C_R   0.117789 0.379648 0.502486 0.781159
C35   C     C_R   0.421288 0.997354 0.927257 0.231317
C36   C     C_R   0.921288 0.497356 0.927257 0.231331
C37   C     C_R   0.385523 0.249045 0.721726 -0.159123
C38   C     C_R   0.349254 0.773052 0.757339 -0.175152
C39   C     C_R   0.885535 0.749053 0.721709 -0.159158
C40   C     C_R   0.849251 0.273055 0.757341 -0.175150
C41   C     C_R   0.367386 0.284457 0.850272 -0.172426
C42   C     C_R   0.311369 0.751911 0.885206 -0.177113
C43   C     C_R   0.867404 0.784470 0.850253 -0.172414
C44   C     C_R   0.811363 0.251915 0.885208 -0.177112
C45   C     C_R   0.781412 0.814502 0.876093 -0.157724
C46   C     C_R   0.722388 0.225053 0.890050 -0.132992
C47   C     C_R   0.281392 0.314487 0.876105 -0.157718
C48   C     C_R   0.222394 0.725049 0.890051 -0.132993
C49   C     C_R   0.717461 0.819262 0.768137 -0.184047
C50   C     C_R   0.674834 0.210354 0.766400 -0.161128
C51   C     C_R   0.217446 0.319250 0.768143 -0.184033
C52   C     C_R   0.174838 0.710351 0.766402 -0.161130
C53   C     C_R   0.738784 0.793683 0.631262 0.098388
C54   C     C_R   0.716078 0.222425 0.634798 0.096784
C55   C     C_R   0.238775 0.293677 0.631267 0.098379
C56   C     C_R   0.216080 0.722423 0.634799 0.096784
C57   C     C_R   0.318139 0.246112 0.616056 0.105538
C58   C     C_R   0.298086 0.767110 0.631856 0.099441
C59   C     C_R   0.818146 0.746118 0.616047 0.105531
C60   C     C_R   0.798084 0.267112 0.631857 0.099441
C61   C     C_R   0.326808 0.195781 0.496903 -0.115578
C62   C     C_R   0.324825 0.804874 0.504001 -0.119693
C63   C     C_R   0.826808 0.695781 0.496901 -0.115571
C64   C     C_R   0.824825 0.304874 0.504001 -0.119693
Cu1   Cu    Cu3+1 0.499990 0.000000 0.640660 0.901559
Cu2   Cu    Cu3+1 0.999990 0.500000 0.640660 0.901557
Cu3   Cu    Cu3+1 0.500010 1.000000 0.359340 0.922082
Cu4   Cu    Cu3+1 0.000010 0.500000 0.359340 0.922083
H1    H     H_    0.277332 0.172729 0.287197 0.162835
H2    H     H_    0.303840 0.806894 0.279550 0.159566
H3    H     H_    0.777322 0.672720 0.287205 0.162831
H4    H     H_    0.803843 0.306892 0.279550 0.159566
H5    H     H_    0.809439 0.017788 0.876851 0.161934
H6    H     H_    0.309440 0.517778 0.876850 0.161931
H7    H     H_    0.672717 0.002122 0.748915 0.207676
H8    H     H_    0.172716 0.502119 0.748914 0.207677
H9    H     H_    0.452199 0.223753 0.705966 0.143922
H10   H     H_    0.419128 0.792423 0.758374 0.163041
H11   H     H_    0.952210 0.723758 0.705944 0.143926
H12   H     H_    0.919125 0.292425 0.758378 0.163040
H13   H     H_    0.418310 0.283978 0.932201 0.140203
H14   H     H_    0.350145 0.759044 0.980774 0.134547
H15   H     H_    0.918331 0.783992 0.932177 0.140207
H16   H     H_    0.850137 0.259050 0.980777 0.134546
H17   H     H_    0.764359 0.834857 0.979758 0.157095
H18   H     H_    0.690831 0.213325 0.989629 0.138411
H19   H     H_    0.264334 0.334840 0.979770 0.157088
H20   H     H_    0.190839 0.713319 0.989630 0.138412
H21   H     H_    0.650979 0.838614 0.797494 0.171746
H22   H     H_    0.605229 0.192192 0.777093 0.157534
H23   H     H_    0.150962 0.338601 0.797495 0.171741
H24   H     H_    0.105233 0.692189 0.777097 0.157536
H25   H     H_    0.662678 0.780677 0.291793 0.165316
H26   H     H_    0.687051 0.201293 0.280658 0.164848
H27   H     H_    0.162687 0.280685 0.291785 0.165315
H28   H     H_    0.187049 0.701295 0.280658 0.164847
H29   H     H_    0.360941 0.990348 0.132728 0.149165
H30   H     H_    0.860942 0.490350 0.132729 0.149155
H31   H     H_    0.673466 0.002499 0.256994 0.204558
H32   H     H_    0.173466 0.502499 0.256994 0.204559
H33   H     H_    0.809770 0.016896 0.133115 0.155159
H34   H     H_    0.309771 0.516887 0.133115 0.155158
N1    N     N_R   0.501200 1.000000 0.147910 -0.219331
N2    N     N_R   0.001200 0.500000 0.147910 -0.219330
N3    N     N_R   0.501270 0.000000 0.852040 -0.227903
N4    N     N_R   0.001270 0.500000 0.852040 -0.227903
O1    O     O_R   0.409820 0.909830 0.618810 -0.612215
O2    O     O_R   0.409820 0.090170 0.618810 -0.590313
O3    O     O_R   0.909820 0.409830 0.618810 -0.612216
O4    O     O_R   0.909820 0.590170 0.618810 -0.590313
O5    O     O_R   0.409840 0.909830 0.381240 -0.580708
O6    O     O_R   0.409840 0.090170 0.381240 -0.577368
O7    O     O_R   0.909840 0.409830 0.381240 -0.580709
O8    O     O_R   0.909840 0.590170 0.381240 -0.577368
O9    O     O_R   0.590170 0.090170 0.618760 -0.614512
O10   O     O_R   0.590170 0.909830 0.618760 -0.616619
O11   O     O_R   0.090170 0.590170 0.618760 -0.614512
O12   O     O_R   0.090170 0.409830 0.618760 -0.616619
O13   O     O_R   0.590190 0.090180 0.381190 -0.596034
O14   O     O_R   0.590190 0.909820 0.381190 -0.595138
O15   O     O_R   0.090190 0.590180 0.381190 -0.596033
O16   O     O_R   0.090190 0.409820 0.381190 -0.595139
C65   C     C_3   0.327687 0.994498 0.860886 -0.362422
C66   C     C_3   0.268049 0.067562 0.905897 -0.884977
H35   H     H_    0.246624 0.059565 0.015675 0.234970
H36   H     H_    0.304832 0.127645 0.895023 0.284614
H37   H     H_    0.206326 0.070460 0.839108 0.249612
H38   H     H_    0.327522 0.996460 0.747510 0.273213
H39   H     H_    0.294459 0.934590 0.891548 0.186499
C67   C     C_3   0.827687 0.494500 0.860886 -0.362454
C68   C     C_3   0.768054 0.567568 0.905884 -0.884922
H40   H     H_    0.746659 0.559599 0.015688 0.234966
H41   H     H_    0.804829 0.627655 0.894937 0.284624
H42   H     H_    0.706310 0.570441 0.839127 0.249594
H43   H     H_    0.827521 0.496456 0.747511 0.273214
H44   H     H_    0.794456 0.434597 0.891558 0.186499

loop_
_geom_bond_atom_site_label_1
_geom_bond_atom_site_label_2
_ccdc_geom_bond_type
C34   O12   A    
Cu2   Cu4   S    
C58   C62   A    
C40   C60   A    
C43   H15   S    
C13   C32   S    
C67   H43   S    
C42   H14   S    
C14   C31   S    
C68   H42   S    
C1    C62   S    
C26   N4    A    
C30   N2    A    
C53   C59   A    
Cu3   N1    S    
C65   C66   S    
C54   C60   A    
C3    C64   S    
C33   O11   A    
C4    C63   S    
C2    O6    A    
C50   C54   A    
C4    O8    A    
C19   C21   A    
C24   C26   A    
C38   C42   A    
C20   C22   A    
C6    C12   A    
C20   H34   S    
C10   H26   S    
C21   H5    S    
C29   N1    A    
C6    H2    S    
C31   O9    A    
C9    C13   A    
C5    H1    S    
C51   H23   S    
C38   C58   A    
C11   C15   A    
C50   H22   S    
C12   C16   A    
Cu1   Cu3   S    
Cu2   O11   S    
C48   H20   S    
Cu3   O14   S    
C15   C34   S    
C18   C20   A    
C2    C61   S    
Cu4   O7    S    
C39   C59   A    
C34   O16   A    
C65   H39   S    
C33   O15   A    
Cu1   O9    S    
C18   H32   S    
Cu2   N4    S    
Cu1   N3    S    
C2    O2    A    
C44   C46   A    
C46   C50   A    
C13   C53   A    
C8    H4    S    
C25   N3    A    
C17   C27   A    
C18   C28   A    
C3    O7    A    
Cu4   O16   S    
C24   H8    S    
C39   C43   A    
C38   H10   S    
C68   H41   S    
C36   N4    A    
C32   O10   A    
C47   H19   S    
C45   H17   S    
C16   C56   A    
C35   N3    A    
C36   C67   S    
C16   C33   S    
C43   C45   A    
C28   N2    A    
C45   C49   A    
C41   H13   S    
C40   H12   S    
C41   C47   A    
C5    C61   A    
C42   C48   A    
Cu2   O4    S    
C57   C61   A    
C17   H31   S    
C7    C63   A    
C39   H11   S    
C8    C64   A    
C66   H37   S    
Cu3   O5    S    
C14   C54   A    
C1    O1    A    
C55   C57   A    
C10   C14   A    
Cu1   O10   S    
C22   C24   A    
C52   H24   S    
C22   H6    S    
C40   C44   A    
C68   H40   S    
C9    H25   S    
C66   H36   S    
C11   H27   S    
C7    C9    A    
C4    O4    A    
C49   H21   S    
Cu1   O2    S    
C59   C63   A    
C67   H44   S    
Cu4   N2    S    
C23   H7    S    
C44   H16   S    
Cu4   O15   S    
C47   C51   A    
C5    C11   A    
C29   H29   S    
C25   C27   A    
C29   C35   A    
C30   H30   S    
C26   C28   A    
C30   C36   A    
C60   C64   A    
C6    C62   A    
C21   C23   A    
C67   C68   S    
C1    O5    A    
C7    H3    S    
C19   H33   S    
C65   H38   S    
C37   H9    S    
C3    O3    A    
C49   C53   A    
C35   C65   S    
C17   C19   A    
C56   C58   A    
C51   C55   A    
C23   C25   A    
Cu2   O3    S    
C37   C41   A    
Cu3   O6    S    
C48   C52   A    
C32   O14   A    
C8    C10   A    
Cu2   O12   S    
Cu4   O8    S    
C12   H28   S    
C31   O13   A    
Cu3   O13   S    
C27   N1    A    
Cu1   O1    S    
C37   C57   A    
C52   C56   A    
C15   C55   A    
C66   H35   S    
C46   H18   S    
