data_mof_unit_49312.cif
_audit_creation_date              2012-12-11T16:24:13-0500
_audit_creation_method            fapswitch 2.2
_symmetry_space_group_name_H-M    P1
_symmetry_Int_Tables_number       1
_space_group_crystal_system       triclinic
_cell_length_a                    14.758196
_cell_length_b                    14.761422
_cell_length_c                    33.275638
_cell_angle_alpha                 95.918395
_cell_angle_beta                  96.110218
_cell_angle_gamma                 61.188916
_cell_volume                      6304.54987199

loop_
_atom_site_label
_atom_site_type_symbol
_atom_type_description
_atom_site_fract_x
_atom_site_fract_y
_atom_site_fract_z
_atom_type_partial_charge
C1    C     C_R   0.390890 0.700174 0.446287 0.542202
C2    C     C_R   0.327088 0.339377 0.309225 0.044142
C3    C     C_R   0.424133 0.273983 0.326989 -0.188108
C4    C     C_R   0.445256 0.284511 0.368289 -0.192070
C5    C     C_R   0.389323 0.247888 0.166667 -0.110987
C6    C     C_R   0.382317 0.231648 0.124697 -0.120962
C7    C     C_R   0.207185 0.375277 0.122080 -0.124875
C8    C     C_R   0.214389 0.391183 0.164089 -0.099306
C9    C     C_R   0.304239 0.325408 0.186409 0.035125
C10   C     C_1   0.307627 0.332859 0.229650 0.002741
C11   C     C_1   0.313647 0.336313 0.265959 0.057349
C12   C     C_R   0.405794 0.386142 0.433970 0.570103
C13   C     C_R   0.289714 0.292733 0.102149 0.019752
C14   C     C_R   0.756694 0.373074 0.410230 0.020638
C15   C     C_R   0.792421 0.433345 0.394082 -0.120301
C16   C     C_R   0.822788 0.412246 0.354515 -0.104309
C17   C     C_R   0.817801 0.330603 0.330421 0.036581
C18   C     C_R   0.791199 0.264631 0.347823 -0.121074
C19   C     C_R   0.760949 0.285655 0.387443 -0.133716
C20   C     C_R   0.836271 0.314011 0.205109 0.375457
C21   C     C_R   0.830141 0.321009 0.286595 0.338264
C22   C     C_R   0.827787 0.394459 0.140917 0.248810
C23   C     C_R   0.700726 0.410039 0.447522 0.543491
C24   C     C_R   0.858900 0.380698 0.101315 -0.123431
C25   C     C_R   0.915668 0.196934 0.100738 -0.147437
C26   C     C_R   0.885584 0.209565 0.140045 -0.168860
C27   C     C_R   0.846725 0.306916 0.161180 0.072918
C28   C     C_R   0.907472 0.281506 0.081916 -0.009137
C29   C     C_R   0.370877 0.757989 0.410009 -0.024229
C30   C     C_R   0.276023 0.792531 0.387223 -0.160687
C31   C     C_R   0.266456 0.822325 0.348007 -0.169369
C32   C     C_R   0.350991 0.819862 0.331062 0.040593
C33   C     C_R   0.442127 0.798526 0.355858 0.274633
C34   C     C_R   0.393452 0.701225 0.561260 0.541517
C35   C     C_R   0.451913 0.765783 0.394849 -0.109365
C36   C     C_R   0.341234 0.836287 0.205624 0.343230
C37   C     C_R   0.345456 0.830449 0.287075 0.363205
C38   C     C_R   0.255303 0.838204 0.136775 -0.117504
C39   C     C_R   0.236345 0.866575 0.096892 -0.130428
C40   C     C_R   0.381066 0.902866 0.104988 -0.130038
C41   C     C_R   0.399986 0.874543 0.144911 -0.114648
C42   C     C_R   0.334145 0.846750 0.161710 0.038948
C43   C     C_R   0.295900 0.903989 0.081299 0.021419
C44   C     C_R   0.371674 0.367967 0.584902 0.022352
C45   C     C_R   0.407382 0.388673 0.548983 0.547116
C46   C     C_R   0.283566 0.445937 0.603333 -0.125903
C47   C     C_R   0.263827 0.435632 0.642201 -0.114844
C48   C     C_R   0.332168 0.347429 0.663188 0.034592
C49   C     C_R   0.414864 0.265760 0.643315 -0.121831
C50   C     C_R   0.434279 0.275789 0.604465 -0.131816
C51   C     C_R   0.314395 0.345585 0.787604 0.344981
C52   C     C_R   0.323555 0.344363 0.706607 0.345857
C53   C     C_R   0.210840 0.392477 0.847905 -0.140318
C54   C     C_R   0.201615 0.374453 0.887054 -0.166159
C55   C     C_R   0.388474 0.264693 0.895305 0.235765
C56   C     C_R   0.702358 0.412830 0.562472 0.531164
C57   C     C_R   0.396226 0.280867 0.855474 -0.051505
C58   C     C_R   0.307395 0.341536 0.831086 -0.015710
C59   C     C_R   0.288901 0.305719 0.910342 0.008169
C60   C     C_R   0.755047 0.378123 0.602744 0.006383
C61   C     C_R   0.810563 0.424048 0.626031 0.237754
C62   C     C_R   0.833997 0.407372 0.667439 -0.042849
C63   C     C_R   0.807399 0.342547 0.685419 -0.011196
C64   C     C_R   0.760866 0.290646 0.661932 -0.130860
C65   C     C_R   0.734976 0.308090 0.621018 -0.160915
C66   C     C_R   0.886180 0.216044 0.822684 -0.107536
C67   C     C_R   0.370937 0.363766 0.392511 0.003686
C68   C     C_R   0.914346 0.203060 0.863950 -0.122074
C69   C     C_R   0.869337 0.384633 0.874320 -0.125819
C70   C     C_R   0.841116 0.397382 0.833113 -0.111309
C71   C     C_R   0.852431 0.312483 0.807114 0.040546
C72   C     C_1   0.836275 0.322908 0.764236 -0.016834
C73   C     C_1   0.823971 0.331758 0.728278 -0.021624
C74   C     C_R   0.909623 0.286502 0.889928 0.021173
C75   C     C_R   0.376141 0.754707 0.601974 0.016603
C76   C     C_R   0.281049 0.789194 0.619193 -0.124367
C77   C     C_R   0.271514 0.818489 0.660399 -0.109803
C78   C     C_R   0.270438 0.427550 0.374907 0.254080
C79   C     C_R   0.356586 0.814016 0.684819 0.039293
C80   C     C_R   0.449573 0.785980 0.667567 -0.108084
C81   C     C_R   0.459301 0.756821 0.626299 -0.123467
C82   C     C_R   0.396539 0.885074 0.832608 -0.108181
C83   C     C_R   0.376781 0.912446 0.873428 -0.122158
C84   C     C_R   0.228195 0.882085 0.862818 -0.125900
C85   C     C_R   0.248237 0.854637 0.822052 -0.110665
C86   C     C_R   0.330665 0.858824 0.806700 0.038444
C87   C     C_1   0.342990 0.842839 0.763942 -0.020532
C88   C     C_1   0.350245 0.830577 0.727897 -0.020165
C89   C     C_R   0.247287 0.411505 0.333065 0.264114
C90   C     C_R   0.290362 0.914436 0.888671 0.017011
C91   C     C_R   0.963451 0.264176 0.045515 0.551148
C92   C     C_R   0.272520 0.259257 0.060080 0.541148
C93   C     C_R   0.259067 0.959803 0.043841 0.544549
C94   C     C_R   0.962499 0.267844 0.930791 0.543815
C95   C     C_R   0.271271 0.264895 0.945716 0.533554
C96   C     C_R   0.256100 0.965182 0.928932 0.542334
Cr1   Cr    Cr6+3 0.576280 0.580550 0.506370 1.027018
Cr2   Cr    Cr6+3 0.346780 0.572400 0.496520 1.034773
Cr3   Cr    Cr6+3 0.576960 0.347070 0.497150 1.009528
Cr4   Cr    Cr6+3 0.087320 0.083240 0.984860 1.021345
Cr5   Cr    Cr6+3 0.087720 0.316210 0.996740 1.015025
Cr6   Cr    Cr6+3 0.317350 0.090340 0.995890 1.029405
H1    H     H_    0.447144 0.167550 0.110262 0.132306
H2    H     H_    0.734530 0.237288 0.399199 0.127309
H3    H     H_    0.849869 0.446786 0.086459 0.116584
H4    H     H_    0.844803 0.463411 0.342200 0.151258
H5    H     H_    0.787968 0.200242 0.330195 0.135349
H6    H     H_    0.952330 0.119584 0.086321 0.144239
H7    H     H_    0.899478 0.141570 0.154818 0.144239
H8    H     H_    0.211185 0.790315 0.398653 0.125796
H9    H     H_    0.525760 0.740091 0.412076 0.140914
H10   H     H_    0.170879 0.865467 0.079179 0.132090
H11   H     H_    0.459455 0.197136 0.183850 0.118070
H12   H     H_    0.194172 0.842309 0.330240 0.146741
H13   H     H_    0.204444 0.815103 0.148622 0.138926
H14   H     H_    0.428870 0.930588 0.093684 0.131486
H15   H     H_    0.462478 0.880251 0.163188 0.140361
H16   H     H_    0.233535 0.517605 0.588852 0.133677
H17   H     H_    0.502142 0.213819 0.590852 0.130839
H18   H     H_    0.124534 0.408549 0.897827 0.144964
H19   H     H_    0.198788 0.499402 0.656648 0.139414
H20   H     H_    0.467648 0.195952 0.658472 0.134191
H21   H     H_    0.485146 0.216927 0.308581 0.130141
H22   H     H_    0.141171 0.440930 0.829986 0.145942
H23   H     H_    0.472113 0.244385 0.843457 0.159693
H24   H     H_    0.945675 0.126431 0.874968 0.131380
H25   H     H_    0.894899 0.149947 0.802700 0.114779
H26   H     H_    0.740712 0.239727 0.675595 0.128913
H27   H     H_    0.693339 0.271053 0.604329 0.144321
H28   H     H_    0.814621 0.472419 0.821287 0.114535
H29   H     H_    0.864744 0.450379 0.893530 0.129537
H30   H     H_    0.522895 0.234653 0.380659 0.147920
H31   H     H_    0.872492 0.445682 0.685635 0.144312
H32   H     H_    0.425941 0.937288 0.892465 0.144607
H33   H     H_    0.460699 0.888276 0.820960 0.121303
H34   H     H_    0.515804 0.782452 0.686284 0.120477
H35   H     H_    0.533696 0.730227 0.614039 0.146336
H36   H     H_    0.215620 0.788436 0.601325 0.130677
H37   H     H_    0.197004 0.834086 0.802178 0.115820
H38   H     H_    0.160991 0.882987 0.873541 0.130727
H39   H     H_    0.199111 0.840394 0.673527 0.114020
H40   H     H_    0.148456 0.451800 0.179251 0.139225
H41   H     H_    0.134759 0.423561 0.105594 0.133936
H42   H     H_    0.791085 0.500554 0.411105 0.139664
N1    N     N_R   0.844695 0.389955 0.229123 -0.127515
N2    N     N_R   0.237884 0.415442 0.725325 -0.230574
N3    N     N_R   0.404613 0.274338 0.729190 -0.232501
N4    N     N_R   0.400040 0.274751 0.768876 -0.232944
N5    N     N_R   0.841129 0.393735 0.269009 -0.211646
N6    N     N_R   0.822570 0.244387 0.262634 -0.234101
N7    N     N_R   0.826334 0.240512 0.222677 -0.246217
N8    N     N_R   0.270094 0.821332 0.222478 -0.228714
N9    N     N_R   0.272427 0.818073 0.262353 -0.236567
N10   N     N_R   0.416445 0.845662 0.270201 -0.153742
N11   N     N_R   0.414106 0.849039 0.230301 -0.224173
N12   N     N_R   0.233122 0.415565 0.765034 -0.229150
O1    O     O_R   0.679450 0.499830 0.463150 -0.518113
O2    O     O_R   0.356040 0.477400 0.534170 -0.497727
O3    O     O_R   0.495910 0.323070 0.537100 -0.522628
O4    O     O_R   0.663920 0.359620 0.542290 -0.505820
O5    O     O_3   0.500010 0.500010 0.500010 -0.244455
O6    O     O_R   0.170070 0.978950 0.027680 -0.519220
O7    O     O_R   0.001760 0.175230 0.026640 -0.498067
O8    O     O_R   0.984760 0.333570 0.037150 -0.517692
O9    O     O_R   0.183410 0.309240 0.041890 -0.502032
O10   O     O_R   0.340240 0.172500 0.045430 -0.520497
O11   O     O_R   0.309670 0.000990 0.032050 -0.502035
O12   O     O_R   0.480650 0.664000 0.464630 -0.502019
O13   O     O_R   0.168330 0.982130 0.939200 -0.519453
O14   O     O_R   0.000140 0.178170 0.944610 -0.499657
O15   O     O_R   0.983010 0.336750 0.948660 -0.520764
O16   O     O_R   0.181800 0.312190 0.959860 -0.506166
O17   O     O_R   0.338500 0.175680 0.956950 -0.493869
O18   O     O_R   0.308050 0.003930 0.950020 -0.497544
O19   O     O_3   0.164130 0.163270 0.992500 -0.240448
O20   O     O_R   0.323930 0.675950 0.455370 -0.528957
O21   O     O_R   0.354700 0.475360 0.451930 -0.456657
O22   O     O_R   0.494470 0.320860 0.448390 -0.531036
O23   O     O_R   0.662580 0.357570 0.460050 -0.504428
O24   O     O_R   0.680900 0.502040 0.551870 -0.497250
O25   O     O_R   0.481990 0.666040 0.546870 -0.498226
O26   O     O_R   0.325370 0.678160 0.544080 -0.518972
O27   O     O_3   0.781723 0.491702 0.160544 -0.665734
H43   H     H_    0.774247 0.543828 0.142067 0.320864
O28   O     O_3   0.527023 0.795230 0.340384 -0.537642
C97   C     C_3   0.536840 0.882379 0.356661 -0.102752
H44   H     H_    0.556577 0.878785 0.389875 0.100570
H45   H     H_    0.465188 0.955887 0.349797 0.124028
H46   H     H_    0.601152 0.883006 0.342424 0.155183
O29   O     O_3   0.479117 0.206409 0.917826 -0.690376
H47   H     H_    0.466734 0.226578 0.946856 0.335980
O30   O     O_3   0.841811 0.486175 0.609964 -0.692667
H48   H     H_    0.850388 0.466343 0.580724 0.337367
O31   O     O_3   0.196013 0.504917 0.398498 -0.572437
C98   C     C_3   0.184887 0.601537 0.389698 -0.091497
H49   H     H_    0.261017 0.599487 0.388519 0.139465
H50   H     H_    0.142933 0.659739 0.414081 0.144755
H51   H     H_    0.138267 0.628325 0.360766 0.129616
O32   O     O_3   0.149310 0.466519 0.314620 -0.692836
H52   H     H_    0.098382 0.497891 0.335691 0.352100

loop_
_geom_bond_atom_site_label_1
_geom_bond_atom_site_label_2
_ccdc_geom_bond_type
C66   C68   A    
C87   C88   T    
C1    O20   A    
O29   H47   S    
Cr3   O3    S    
C41   C42   A    
C74   C94   S    
C36   C42   S    
N3    N4    A    
C45   O3    A    
O27   H43   S    
C7    H41   S    
C57   C58   A    
C7    C8    A    
C4    H30   S    
C40   H14   S    
C85   C86   A    
C25   C28   A    
C81   H35   S    
C26   C27   A    
Cr6   O11   S    
C68   H24   S    
C96   O18   A    
C34   O25   A    
C93   O6    A    
C62   H31   S    
C76   H36   S    
C38   C42   A    
C54   H18   S    
C57   H23   S    
C5    C6    A    
C80   C81   A    
C47   H19   S    
C68   C74   A    
C15   C16   A    
C70   H28   S    
C66   H25   S    
C46   H16   S    
Cr5   O16   S    
C18   C19   A    
C78   O31   S    
C82   H33   S    
C18   H5    S    
C83   H32   S    
C43   C93   S    
Cr3   O5    S    
C8    H40   S    
C92   O9    A    
C40   C43   A    
C47   C48   A    
C44   C46   A    
C16   C17   A    
C64   H26   S    
C61   O30   S    
Cr5   O15   S    
C70   C71   A    
C21   N5    A    
Cr4   O7    S    
C29   C30   A    
C95   O16   A    
C85   H37   S    
C31   H12   S    
C23   O23   A    
C16   H4    S    
C34   C75   S    
C98   H51   S    
O31   C98   S    
O32   H52   S    
Cr6   O10   S    
Cr3   O4    S    
C91   O7    A    
C61   C62   A    
C67   C78   A    
C59   C95   S    
Cr4   O19   S    
C92   O10   A    
C2    C11   S    
C14   C19   A    
C56   O24   A    
C79   C88   S    
C3    H21   S    
C54   C59   A    
C77   C79   A    
C78   C89   A    
C89   O32   S    
C12   C67   S    
C51   N12   A    
Cr4   O14   S    
C50   H17   S    
C55   O29   S    
Cr2   O2    S    
C76   C77   A    
Cr3   O22   S    
C86   C87   S    
C8    C9    A    
Cr1   O24   S    
C39   C43   A    
C98   H49   S    
C63   C73   S    
C1    O12   A    
C25   C26   A    
C53   C54   A    
C90   C96   S    
C17   C21   S    
C63   C64   A    
C60   C61   A    
Cr6   O17   S    
Cr1   O1    S    
C14   C23   S    
Cr2   O26   S    
C2    C89   A    
C75   C76   A    
C66   C71   A    
Cr3   O23   S    
C22   O27   S    
C37   N9    A    
C94   O15   A    
Cr2   O20   S    
C19   H2    S    
C31   C32   A    
C14   C15   A    
C48   C52   S    
C30   C31   A    
C69   H29   S    
C62   C63   A    
C1    C29   S    
C17   C18   A    
C69   C74   A    
C51   C58   S    
C32   C37   S    
C84   C85   A    
Cr2   O21   S    
Cr5   O9    S    
C26   H7    S    
C84   H38   S    
N10   N11   A    
C15   H42   S    
C39   H10   S    
C30   H8    S    
C60   C65   A    
C49   C50   A    
C52   N3    A    
Cr1   O5    S    
C22   C27   A    
C55   C57   A    
C13   C92   S    
C36   N11   A    
C22   C24   A    
C91   O8    A    
Cr5   O19   S    
C97   H45   S    
C3    C4    A    
C55   C59   A    
Cr2   O5    S    
C35   H9    S    
C44   C45   S    
C9    C10   S    
C84   C90   A    
C44   C50   A    
C83   C90   A    
C6    H1    S    
C46   C47   A    
C40   C41   A    
C52   N2    A    
C5    H11   S    
Cr4   O13   S    
N6    N7    A    
C12   O21   A    
C37   N10   A    
Cr5   O8    S    
C36   N8    A    
C45   O2    A    
C24   C28   A    
C5    C9    A    
C72   C73   T    
C53   H22   S    
C4    C67   A    
C65   H27   S    
C53   C58   A    
Cr1   O25   S    
C20   C27   S    
C75   C81   A    
Cr6   O18   S    
Cr1   O12   S    
C29   C35   A    
C80   H34   S    
C20   N7    A    
C96   O13   A    
C41   H15   S    
O30   H48   S    
C97   H46   S    
C2    C3    A    
Cr6   O19   S    
C71   C72   S    
C56   O4    A    
C82   C86   A    
C32   C33   A    
C6    C13   A    
C38   H13   S    
C21   N6    A    
O28   C97   S    
C38   C39   A    
C51   N4    A    
C48   C49   A    
C49   H20   S    
C23   O1    A    
C64   C65   A    
C33   C35   A    
C34   O26   A    
C28   C91   S    
C95   O17   A    
C69   C70   A    
C77   H39   S    
C12   O22   A    
C10   C11   T    
C79   C80   A    
C56   C60   S    
C7    C13   A    
N2    N12   A    
N8    N9    A    
C93   O11   A    
C82   C83   A    
N1    N5    A    
C20   N1    A    
C33   O28   S    
C24   H3    S    
Cr4   O6    S    
C97   H44   S    
C94   O14   A    
C25   H6    S    
C98   H50   S    
