data_mof_unit_56276.cif
_audit_creation_date              2013-03-05T16:10:40-0500
_audit_creation_method            fapswitch 2.2
_symmetry_space_group_name_H-M    P1
_symmetry_Int_Tables_number       1
_space_group_crystal_system       triclinic
_cell_length_a                    9.858579
_cell_length_b                    10.717087
_cell_length_c                    15.430019
_cell_angle_alpha                 90.097151
_cell_angle_beta                  67.318126
_cell_angle_gamma                 90.012653
_cell_volume                      1504.17587607

loop_
_atom_site_label
_atom_site_type_symbol
_atom_site_description
_atom_site_fract_x
_atom_site_fract_y
_atom_site_fract_z
_atom_type_partial_charge
O1    O     O_R   0.385370 0.683250 0.500010 -0.620499
O2    O     O_R   0.614630 0.316750 0.499990 -0.620500
O3    O     O_R   0.614700 0.683220 0.500000 -0.635225
O4    O     O_R   0.385300 0.316780 0.500000 -0.635223
C1    C     C_R   0.500019 0.740082 0.500056 0.872321
C2    C     C_R   0.499981 0.259918 0.499944 0.872325
O5    O     O_R   0.319830 0.500020 0.632250 -0.592732
O6    O     O_R   0.680170 0.499980 0.367750 -0.592729
O7    O     O_R   0.549160 0.499990 0.632240 -0.590965
O8    O     O_R   0.450840 0.500010 0.367760 -0.590966
C3    C     C_R   0.407821 0.498553 0.676300 0.899860
C4    C     C_R   0.592179 0.501450 0.323699 0.899858
Zn1   Zn    Zn3+2 0.346870 0.500020 0.500000 0.995274
Zn2   Zn    Zn3+2 0.653130 0.499980 0.500000 0.995274
C5    C     C_R   0.349669 0.484767 0.777936 -0.108542
C6    C     C_R   0.650332 0.515247 0.222063 -0.108544
C7    C     C_R   0.180401 0.390799 0.921994 0.357003
C8    C     C_R   0.819600 0.609230 0.078010 0.357001
C9    C     C_R   0.223137 0.415809 0.826057 -0.167718
C10   C     C_R   0.776863 0.584207 0.173944 -0.167708
C11   C     C_R   0.436977 0.524401 0.824138 -0.128421
C12   C     C_R   0.563025 0.475626 0.175860 -0.128425
C13   C     C_R   0.411882 0.483023 0.914296 0.048857
C14   C     C_R   0.588122 0.517015 0.085704 0.048859
C15   C     C_R   0.272340 0.430372 0.969696 -0.034919
C16   C     C_R   0.727663 0.569665 0.030306 -0.034915
C17   C     C_R   0.521336 0.500543 0.951197 -0.057520
C18   C     C_R   0.478669 0.499504 0.048802 -0.057525
C19   C     C_R   0.327645 0.481784 0.106530 0.209479
C20   C     C_R   0.672362 0.518266 0.893469 0.209473
C21   C     C_R   0.231297 0.429764 0.068707 0.279036
C22   C     C_R   0.768708 0.570281 0.931296 0.279039
H1    H     H_    0.470941 0.414837 0.212459 0.181482
H2    H     H_    0.529059 0.585192 0.787537 0.181479
H3    H     H_    0.842003 0.619675 0.211352 0.205665
H4    H     H_    0.157995 0.380336 0.788651 0.205664
C23   C     C_R   0.631552 0.936086 0.483047 -0.172800
C24   C     C_R   0.368448 0.063914 0.516953 -0.172800
H5    H     H_    0.734165 0.887440 0.469285 0.165231
H6    H     H_    0.265835 0.112560 0.530715 0.165230
C25   C     C_R   0.631555 0.063910 0.482953 -0.153111
C26   C     C_R   0.368445 0.936090 0.517046 -0.153108
H7    H     H_    0.734183 0.112548 0.469112 0.162209
H8    H     H_    0.265817 0.887452 0.530888 0.162210
C27   C     C_R   0.499995 0.127450 0.499927 -0.021478
C28   C     C_R   0.500005 0.872550 0.500073 -0.021477
C29   C     C_R   0.955924 0.408967 0.453910 -0.001005
C30   C     C_R   0.044075 0.591033 0.546090 -0.000999
H9    H     H_    0.924075 0.336344 0.416744 0.144834
H10   H     H_    0.075925 0.663656 0.583256 0.144834
C31   C     C_R   0.099551 0.408856 0.454093 -0.004095
C32   C     C_R   0.900449 0.591144 0.545907 -0.004087
H11   H     H_    0.176197 0.336169 0.417012 0.136978
H12   H     H_    0.823803 0.663830 0.582988 0.136980
N1    N     N_R   0.142780 0.500030 0.500020 -0.085361
N2    N     N_R   0.857220 0.499970 0.499980 -0.085361
Br1   Br    Br    0.044660 0.372154 0.158735 -0.424994
Br2   Br    Br    0.955358 0.627883 0.841273 -0.424987
Br3   Br    Br    0.004096 0.292492 0.973012 -0.385847
Br4   Br    Br    0.995890 0.707552 0.027005 -0.385844
Br5   Br    Br    0.241232 0.560515 0.229260 -0.473004
Br6   Br    Br    0.758780 0.439537 0.770740 -0.473021

loop_
_geom_bond_atom_site_label_1
_geom_bond_atom_site_label_2
_geom_bond_distance
_ccdc_geom_bond_type
C15   C21   1.421630 A    
C30   N1    1.366749 A    
O5    C3    1.292085 A    
O7    Zn2   1.897659 S    
C16   C22   1.421625 A    
C2    C27   1.419667 S    
C13   C17   1.413232 A    
C29   H9    1.081870 S    
C25   H7    1.083733 S    
C1    C28   1.419667 S    
Zn2   N2    2.011918 S    
C8    C16   1.434009 A    
C6    C10   1.393081 A    
C22   Br2   1.930722 S    
O6    C4    1.292089 A    
C7    C15   1.434030 A    
C21   Br1   1.930693 S    
C30   H10   1.081870 S    
O3    C1    1.284195 A    
C23   H5    1.083715 S    
C17   C20   1.422651 A    
C20   C22   1.407058 A    
O7    C3    1.293617 A    
C14   C16   1.426862 A    
O2    C2    1.284060 A    
O3    Zn2   2.000094 S    
C26   H8    1.083733 S    
C7    Br3   1.922896 S    
O1    C1    1.284061 A    
O8    C4    1.293621 A    
C12   C14   1.389157 A    
C8    Br4   1.922860 S    
C18   C19   1.422642 A    
C24   H6    1.083715 S    
C32   H12   1.081882 S    
C24   C26   1.369904 A    
C30   C32   1.417045 A    
C8    C10   1.400332 A    
C9    H4    1.084027 S    
C13   C15   1.426876 A    
C11   C13   1.389149 A    
C23   C25   1.369904 A    
O2    Zn2   1.999966 S    
C19   Br5   1.942816 S    
O4    C2    1.284196 A    
O1    Zn1   1.999966 S    
C20   Br6   1.942815 S    
C4    C6    1.455094 S    
C5    C11   1.378973 A    
C14   C18   1.413211 A    
C19   C21   1.407058 A    
C26   C28   1.397257 A    
C17   C18   1.398828 A    
C12   H1    1.083089 S    
C25   C27   1.397257 A    
C24   C27   1.397136 A    
C6    C12   1.378936 A    
C11   H2    1.083101 S    
O6    Zn2   1.953373 S    
C31   N1    1.367106 A    
C7    C9    1.400348 A    
C23   C28   1.397136 A    
C5    C9    1.393080 A    
O5    Zn1   1.953371 S    
C3    C5    1.455077 S    
C10   H3    1.084010 S    
C29   C31   1.417044 A    
C32   N2    1.367105 A    
O4    Zn1   2.000094 S    
Zn1   N1    2.011919 S    
C29   N2    1.366750 A    
C31   H11   1.081883 S    
O8    Zn1   1.897662 S    
