data_mof_unit_41358.cif
_audit_creation_date              2012-12-10T19:42:33-0500
_audit_creation_method            fapswitch 2.2
_symmetry_space_group_name_H-M    P1
_symmetry_Int_Tables_number       1
_space_group_crystal_system       triclinic
_cell_length_a                    10.797694
_cell_length_b                    10.819305
_cell_length_c                    9.78618
_cell_angle_alpha                 98.598454
_cell_angle_beta                  98.589937
_cell_angle_gamma                 90.683327
_cell_volume                      1117.03996405

loop_
_atom_site_label
_atom_site_type_symbol
_atom_type_description
_atom_site_fract_x
_atom_site_fract_y
_atom_site_fract_z
_atom_type_partial_charge
C1    C     C_R   0.495511 0.262264 0.500666 0.794818
C2    C     C_R   0.504489 0.737736 0.499332 0.794803
C3    C     C_R   0.871594 0.494854 0.500676 -0.059180
C4    C     C_R   0.128404 0.505104 0.499324 -0.059164
C5    C     C_R   0.953363 0.452342 0.609559 -0.010557
C6    C     C_R   0.046634 0.547601 0.390435 -0.010530
C7    C     C_R   0.146310 0.180683 0.189446 -0.142876
C8    C     C_R   0.853719 0.818989 0.810131 -0.142847
C9    C     C_R   0.228013 0.142304 0.298626 -0.145438
C10   C     C_R   0.771930 0.857401 0.701052 -0.145062
C11   C     C_R   0.341251 0.087811 0.272847 0.129468
C12   C     C_R   0.658875 0.912177 0.727040 0.129532
C13   C     C_R   0.372327 0.073157 0.137222 -0.117821
C14   C     C_R   0.628076 0.927096 0.862782 -0.118239
C15   C     C_R   0.291486 0.114065 0.028862 -0.185269
C16   C     C_R   0.708990 0.886140 0.971044 -0.185279
C17   C     C_R   0.178304 0.167258 0.054810 -0.161887
C18   C     C_R   0.821985 0.832656 0.944880 -0.161901
C19   C     C_R   0.436584 0.917354 0.387077 -0.251174
C20   C     C_R   0.563433 0.082645 0.612909 -0.251204
C21   C     C_R   0.507625 0.871677 0.498877 -0.076085
C22   C     C_R   0.492387 0.128322 0.501110 -0.076052
C23   C     C_R   0.262330 0.503842 0.500156 0.812032
C24   C     C_R   0.737669 0.496139 0.499845 0.812004
C25   C     C_R   0.573447 0.954915 0.612194 0.001130
C26   C     C_R   0.426590 0.045082 0.387776 0.001049
C27   C     C_2   0.510911 0.509226 0.078866 -0.031803
C28   C     C_2   0.489093 0.490770 0.921134 -0.031767
C29   C     C_R   0.137188 0.785347 0.172782 -0.278081
C30   C     C_R   0.862925 0.214588 0.827274 -0.278063
C31   C     C_R   0.101058 0.733115 0.283790 -0.174920
C32   C     C_R   0.899019 0.266819 0.716245 -0.174973
C33   C     C_R   0.090522 0.602909 0.275888 0.125235
C34   C     C_R   0.909477 0.397026 0.724105 0.125228
C35   C     C_R   0.115330 0.525815 0.155310 -0.137537
C36   C     C_R   0.884632 0.474119 0.844666 -0.137556
C37   C     C_R   0.154283 0.577781 0.045814 -0.130437
C38   C     C_R   0.845707 0.422156 0.954175 -0.130403
C39   C     C_R   0.164910 0.708183 0.053425 0.083742
C40   C     C_R   0.835158 0.291756 0.946607 0.083783
C41   C     C_R   0.918703 0.541700 0.392585 -0.204536
C42   C     C_R   0.081295 0.458250 0.607411 -0.204567
Cu1   Cu    Cu3+1 0.521120 0.521140 0.639640 0.983639
Cu2   Cu    Cu3+1 0.478880 0.478860 0.360360 0.983633
H1    H     H_    0.459441 0.031291 0.116095 0.120566
H2    H     H_    0.541123 0.969211 0.884083 0.120549
H3    H     H_    0.316182 0.103746 0.924616 0.131795
H4    H     H_    0.684507 0.896661 0.075383 0.131819
H5    H     H_    0.385008 0.853366 0.301072 0.171058
H6    H     H_    0.615025 0.146633 0.698902 0.171052
H7    H     H_    0.417464 0.422799 0.865324 0.146218
H8    H     H_    0.582545 0.577192 0.134676 0.146230
H9    H     H_    0.621116 0.615951 0.905048 0.199372
H10   H     H_    0.378876 0.384057 0.094951 0.199393
H11   H     H_    0.143283 0.886044 0.179915 0.153976
H12   H     H_    0.856892 0.113890 0.820174 0.154030
H13   H     H_    0.080180 0.794038 0.375216 0.138518
H14   H     H_    0.919935 0.205895 0.624839 0.138541
H15   H     H_    0.104715 0.425490 0.146270 0.139478
H16   H     H_    0.895207 0.574441 0.853690 0.139430
H17   H     H_    0.174169 0.516028 0.954548 0.148007
H18   H     H_    0.825791 0.483913 0.045424 0.148010
H19   H     H_    0.855647 0.576231 0.310713 0.145004
H20   H     H_    0.144354 0.423721 0.689282 0.145001
H21   H     H_    0.115703 0.198384 0.970714 0.141394
H22   H     H_    0.884639 0.801494 0.028900 0.141409
H23   H     H_    0.058503 0.221360 0.209533 0.143226
H24   H     H_    0.941385 0.778087 0.789872 0.143285
H25   H     H_    0.202700 0.153849 0.402718 0.106576
H26   H     H_    0.797030 0.845646 0.596866 0.106398
N1    N     N_2   0.447120 0.447110 0.150550 -0.268148
N2    N     N_2   0.552880 0.552890 0.849450 -0.268138
O1    O     O_R   0.517830 0.337490 0.617920 -0.592014
O2    O     O_R   0.482170 0.662510 0.382080 -0.591998
O3    O     O_R   0.482150 0.301790 0.382070 -0.547880
O4    O     O_R   0.517850 0.698210 0.617930 -0.547846
O5    O     O_R   0.337480 0.517860 0.617920 -0.546935
O6    O     O_R   0.662520 0.482140 0.382080 -0.546959
O7    O     O_R   0.301810 0.482160 0.382070 -0.578588
O8    O     O_R   0.698190 0.517840 0.617930 -0.578616
C43   C     C_2   0.203047 0.765032 0.937332 0.282162
H27   H     H_    0.205248 0.865799 0.942487 0.086598
O9    O     O_2   0.231942 0.700327 0.834394 -0.542682
C44   C     C_2   0.797063 0.234922 0.062728 0.282002
H28   H     H_    0.794945 0.134178 0.057632 0.086528
O10   O     O_2   0.768124 0.299617 0.165634 -0.542706

loop_
_geom_bond_atom_site_label_1
_geom_bond_atom_site_label_2
_ccdc_geom_bond_type
Cu1   O1    S    
C13   H1    S    
C5    C42   A    
Cu1   N2    S    
C40   C44   S    
C32   H14   S    
C16   H4    S    
C43   H27   S    
C27   N1    D    
C14   H2    S    
C38   C40   A    
C44   O10   D    
C28   H7    S    
C20   C25   A    
Cu2   N1    S    
C35   H15   S    
C19   C26   A    
C20   H6    S    
C24   O8    A    
H10   N1    S    
C7    C17   A    
C6    C41   A    
C31   C33   A    
C15   H3    S    
C2    O2    A    
C1    C22   S    
C3    C24   S    
C28   N2    D    
C43   O9    D    
C1    O3    A    
C44   H28   S    
C39   C43   S    
C4    C6    A    
C4    C23   S    
C29   H11   S    
C11   C26   S    
C36   H16   S    
Cu1   O8    S    
C30   H12   S    
C8    C18   A    
C32   C34   A    
Cu2   O3    S    
Cu1   Cu2   S    
C19   H5    S    
C29   C31   A    
C5    C34   S    
C29   C39   A    
C2    C21   S    
C30   C40   A    
C16   C18   A    
C23   O5    A    
Cu2   O2    S    
C9    C11   A    
C10   C12   A    
C10   H26   S    
C24   O6    A    
C20   C22   A    
C8    H24   S    
C13   C15   A    
C14   C16   A    
C18   H22   S    
C41   H19   S    
C42   H20   S    
C2    O4    A    
C27   H8    S    
C35   C37   A    
Cu1   O4    S    
C15   C17   A    
C21   C25   A    
C3    C41   A    
C19   C21   A    
Cu2   O7    S    
C9    H25   S    
C3    C5    A    
C37   H17   S    
Cu1   O5    S    
C17   H21   S    
C6    C33   S    
C12   C25   S    
C1    O1    A    
C31   H13   S    
Cu2   O6    S    
C12   C14   A    
C37   C39   A    
C30   C32   A    
C11   C13   A    
C4    C42   A    
C36   C38   A    
C33   C35   A    
C34   C36   A    
C7    H23   S    
C7    C9    A    
C8    C10   A    
C22   C26   A    
C27   C28   S    
C23   O7    A    
H9    N2    S    
C38   H18   S    
