data_mof_unit_27111.cif
_audit_creation_date              2012-12-11T17:36:16-0500
_audit_creation_method            fapswitch 2.2
_symmetry_space_group_name_H-M    P1
_symmetry_Int_Tables_number       1
_space_group_crystal_system       triclinic
_cell_length_a                    25.808472
_cell_length_b                    6.899243
_cell_length_c                    21.690657
_cell_angle_alpha                 90.000429
_cell_angle_beta                  96.215786
_cell_angle_gamma                 89.999249
_cell_volume                      3839.5096513

loop_
_atom_site_label
_atom_site_type_symbol
_atom_type_description
_atom_site_fract_x
_atom_site_fract_y
_atom_site_fract_z
_atom_type_partial_charge
O1    O     O_R   0.208650 0.594520 0.175450 -0.535954
O2    O     O_R   0.791350 0.405480 0.824550 -0.531442
O3    O     O_R   0.291350 0.094520 0.324550 -0.535955
O4    O     O_R   0.708650 0.905480 0.675450 -0.531446
O5    O     O_R   0.192980 0.260780 0.300160 -0.540826
O6    O     O_R   0.807020 0.739220 0.699840 -0.540750
O7    O     O_R   0.307020 0.760780 0.199840 -0.540822
O8    O     O_R   0.692980 0.239220 0.800160 -0.540746
C1    C     C_R   0.178684 0.432901 0.318288 0.684858
C2    C     C_R   0.821173 0.567135 0.681512 0.683759
C3    C     C_R   0.321317 0.932900 0.181712 0.684866
C4    C     C_R   0.678826 0.067137 0.818488 0.683770
O9    O     O_R   0.202550 0.264660 0.174420 -0.535328
O10   O     O_R   0.797450 0.735340 0.825580 -0.539529
O11   O     O_R   0.297450 0.764660 0.325580 -0.535325
O12   O     O_R   0.702550 0.235340 0.674420 -0.539525
O13   O     O_R   0.300990 0.096480 0.197920 -0.538842
O14   O     O_R   0.699010 0.903520 0.802080 -0.538719
O15   O     O_R   0.199010 0.596480 0.302080 -0.538845
O16   O     O_R   0.800990 0.403520 0.697920 -0.538721
C5    C     C_R   0.191308 0.432590 0.150719 0.702273
C6    C     C_R   0.808879 0.566986 0.849097 0.698479
C7    C     C_R   0.308691 0.932588 0.349282 0.702270
C8    C     C_R   0.691122 0.066988 0.650902 0.698485
O17   O     O_3   0.282290 0.427760 0.257860 -0.363799
O18   O     O_3   0.717710 0.572240 0.742140 -0.362930
O19   O     O_3   0.217710 0.927760 0.242140 -0.363804
O20   O     O_3   0.782290 0.072240 0.757860 -0.362935
V1    V     V_3+5 0.244010 0.152080 0.248540 1.416272
V2    V     V_3+5 0.755990 0.847920 0.751460 1.419504
V3    V     V_3+5 0.255990 0.652080 0.251460 1.416283
V4    V     V_3+5 0.744010 0.347920 0.748540 1.419523
C9    C     C_R   0.658341 0.063532 0.590726 -0.084462
C10   C     C_R   0.343014 0.929966 0.408451 -0.085722
C11   C     C_R   0.841663 0.563510 0.909270 -0.084419
C12   C     C_R   0.156988 0.429982 0.091548 -0.085691
C13   C     C_R   0.645967 0.163453 0.483316 -0.147576
C14   C     C_R   0.362068 0.773731 0.508033 -0.136318
C15   C     C_R   0.854019 0.663169 0.016706 -0.147520
C16   C     C_R   0.137959 0.273909 0.991936 -0.136315
C17   C     C_R   0.677506 0.147950 0.539292 -0.161729
C18   C     C_R   0.326980 0.821286 0.457230 -0.150477
C19   C     C_R   0.822484 0.647757 0.960723 -0.161726
C20   C     C_R   0.173037 0.321402 0.042755 -0.150503
C21   C     C_R   0.606802 0.994046 0.585505 -0.178559
C22   C     C_R   0.394890 0.995888 0.412033 -0.181967
C23   C     C_R   0.893210 0.494113 0.914477 -0.178582
C24   C     C_R   0.105107 0.495845 0.087969 -0.181962
C25   C     C_R   0.574265 0.001338 0.527988 0.084651
C26   C     C_R   0.432959 0.935586 0.461215 0.093086
C27   C     C_R   0.925743 0.501303 0.971998 0.084670
C28   C     C_R   0.067048 0.435580 0.038772 0.093067
C29   C     C_R   0.594568 0.093928 0.477539 0.053469
C30   C     C_R   0.414745 0.825550 0.509855 0.061141
C31   C     C_R   0.905426 0.593717 0.022470 0.053504
C32   C     C_R   0.085278 0.325675 0.990112 0.061137
C33   C     C_R   0.521678 0.929063 0.519610 -0.115201
C34   C     C_R   0.488027 0.978241 0.464298 -0.111521
C35   C     C_R   0.978336 0.429080 0.980363 -0.115210
C36   C     C_R   0.011976 0.478155 0.035692 -0.111524
C37   C     C_R   0.511890 0.056938 0.413474 0.464675
C38   C     C_R   0.502211 0.800043 0.562741 0.457616
C39   C     C_R   0.988101 0.556657 0.086535 0.464649
C40   C     C_R   0.997819 0.300199 0.937202 0.457617
C41   C     C_R   0.563797 0.116293 0.421259 -0.270829
C42   C     C_R   0.449331 0.757672 0.558743 -0.260922
C43   C     C_R   0.936189 0.615959 0.078761 -0.270796
C44   C     C_R   0.050703 0.257875 0.941201 -0.260937
H1    H     H_    0.580261 0.180091 0.382029 0.144041
H2    H     H_    0.435571 0.663434 0.593549 0.146585
H3    H     H_    0.919713 0.679604 0.118008 0.144039
H4    H     H_    0.064475 0.163740 0.906375 0.146584
H5    H     H_    0.403882 0.089793 0.375178 0.176382
H6    H     H_    0.592230 0.948082 0.627859 0.166534
H7    H     H_    0.096099 0.589680 0.124837 0.176346
H8    H     H_    0.907790 0.448283 0.872112 0.166512
H9    H     H_    0.287386 0.767197 0.454918 0.107250
H10   H     H_    0.716795 0.205431 0.542864 0.108966
H11   H     H_    0.212635 0.267359 0.045065 0.107246
H12   H     H_    0.783188 0.705162 0.957163 0.108944
H13   H     H_    0.661672 0.232526 0.444480 0.115023
H14   H     H_    0.348388 0.687671 0.544833 0.115402
H15   H     H_    0.838303 0.732099 0.055559 0.115011
H16   H     H_    0.151651 0.187943 0.955121 0.115401
C45   C     C_R   0.428261 0.793773 0.080651 -0.134464
C46   C     C_R   0.573002 0.206498 0.921121 -0.131296
C47   C     C_R   0.071738 0.293778 0.419345 -0.134458
C48   C     C_R   0.927009 0.706492 0.578896 -0.131296
H17   H     H_    0.446750 0.663222 0.065970 0.106017
H18   H     H_    0.554825 0.337126 0.936247 0.105613
H19   H     H_    0.053247 0.163228 0.434021 0.106016
H20   H     H_    0.945196 0.837117 0.563785 0.105620
C49   C     C_R   0.388853 0.778800 0.120397 -0.175239
C50   C     C_R   0.612103 0.221436 0.880958 -0.165918
C51   C     C_R   0.111145 0.278805 0.379598 -0.175245
C52   C     C_R   0.887907 0.721429 0.619059 -0.165925
H21   H     H_    0.377875 0.636409 0.135440 0.120466
H22   H     H_    0.623198 0.363888 0.866095 0.119866
H23   H     H_    0.122121 0.136414 0.364551 0.120463
H24   H     H_    0.876822 0.863879 0.633936 0.119876
C53   C     C_R   0.363894 0.945900 0.140163 -0.058838
C54   C     C_R   0.636590 0.054206 0.860519 -0.056908
C55   C     C_R   0.136107 0.445904 0.359838 -0.058812
C56   C     C_R   0.863408 0.554202 0.639480 -0.056902
C57   C     C_R   0.379768 0.127930 0.119187 -0.162025
C58   C     C_R   0.620659 0.872123 0.881397 -0.162102
C59   C     C_R   0.120236 0.627933 0.380820 -0.162007
C60   C     C_R   0.879328 0.372122 0.618583 -0.162098
H25   H     H_    0.361679 0.260145 0.133127 0.122093
H26   H     H_    0.638434 0.739822 0.867008 0.122446
H27   H     H_    0.138327 0.760147 0.366884 0.122082
H28   H     H_    0.861544 0.239824 0.632957 0.122439
C61   C     C_R   0.419051 0.142404 0.079571 -0.135747
C62   C     C_R   0.581680 0.857687 0.921429 -0.135442
C63   C     C_R   0.080952 0.642407 0.420436 -0.135735
C64   C     C_R   0.918307 0.357687 0.578552 -0.135440
H29   H     H_    0.430236 0.284175 0.064096 0.105118
H30   H     H_    0.570388 0.715857 0.936737 0.105014
H31   H     H_    0.069770 0.784177 0.435915 0.105115
H32   H     H_    0.929591 0.215859 0.563230 0.105016
C65   C     C_R   0.443493 0.975719 0.059902 0.130305
C66   C     C_R   0.557625 0.024469 0.941649 0.129874
C67   C     C_R   0.056508 0.475723 0.440100 0.130313
C68   C     C_R   0.942374 0.524466 0.558351 0.129877
C69   C     C_1   0.483826 0.992426 0.018280 -0.059123
C70   C     C_1   0.517401 0.007741 0.983415 -0.058466
C71   C     C_1   0.016175 0.492427 0.481721 -0.059120
C72   C     C_1   0.982599 0.507740 0.516585 -0.058463
O21   O     O_3   0.486492 0.069806 0.354274 -0.565504
C73   C     C_3   0.492077 0.891639 0.323747 -0.273616
H33   H     H_    0.474758 0.769785 0.348222 0.146748
H34   H     H_    0.533730 0.860959 0.318571 0.145591
H35   H     H_    0.470864 0.900875 0.276531 0.169506
O22   O     O_3   0.534515 0.701633 0.607159 -0.563640
C74   C     C_3   0.553572 0.534362 0.579634 -0.230980
H36   H     H_    0.577145 0.572308 0.541309 0.145106
H37   H     H_    0.521270 0.434616 0.562457 0.139983
H38   H     H_    0.579473 0.455131 0.615259 0.168955
O23   O     O_3   0.013490 0.569354 0.145745 -0.565503
C75   C     C_3   0.007933 0.391044 0.176199 -0.273547
H39   H     H_    0.025279 0.269343 0.151680 0.146738
H40   H     H_    0.966285 0.360216 0.181353 0.145585
H41   H     H_    0.029137 0.400149 0.223422 0.169495
O24   O     O_3   0.965528 0.201867 0.892751 -0.563631
C76   C     C_3   0.946483 0.034485 0.920225 -0.231018
H42   H     H_    0.922903 0.072282 0.958556 0.145111
H43   H     H_    0.978793 0.934737 0.937377 0.139971
H44   H     H_    0.920593 0.955317 0.884574 0.168917

loop_
_geom_bond_atom_site_label_1
_geom_bond_atom_site_label_2
_ccdc_geom_bond_type
O17   V3    S    
C74   H38   S    
C48   C52   A    
O1    C5    A    
C47   H19   S    
O19   V1    S    
C9    C21   A    
C16   H16   S    
O3    C7    A    
C10   C18   A    
C75   H41   S    
C60   C64   A    
C48   C68   A    
C11   C23   A    
C76   H42   S    
C25   C33   A    
C74   H36   S    
C5    C12   S    
O7    C3    A    
C6    C11   S    
O5    C1    A    
C26   C30   A    
C58   C62   A    
C36   C39   A    
C40   C44   A    
C57   C61   A    
C75   H40   S    
C23   H8    S    
C14   C18   A    
C58   H26   S    
O4    C8    A    
C51   H23   S    
C44   H4    S    
C50   H22   S    
O1    V3    S    
O13   V1    S    
C31   C43   A    
O2    V4    S    
O3    V1    S    
C46   C50   A    
C65   C69   S    
C45   C49   A    
C1    O15   A    
C15   C31   A    
C48   H20   S    
C2    O16   A    
C16   C32   A    
C47   C51   A    
O2    C6    A    
C45   C65   A    
C10   C22   A    
C11   C19   A    
C16   C20   A    
C43   H3    S    
C37   O21   S    
C68   C72   S    
C13   C29   A    
C34   C37   A    
O11   C7    A    
O15   V3    S    
C35   C36   A    
O12   C8    A    
C14   H14   S    
C53   C57   A    
C24   H7    S    
C13   H13   S    
C59   H27   S    
O10   V2    S    
C76   H43   S    
C51   C55   A    
O5    V1    S    
O17   V1    S    
C39   C43   A    
C63   C67   A    
C38   C42   A    
O19   V3    S    
C26   C34   A    
O20   V4    S    
O7    V3    S    
C75   H39   S    
C46   H18   S    
C49   C53   A    
C17   H10   S    
C45   H17   S    
O18   V4    S    
C23   C27   A    
C40   O24   S    
C33   C38   A    
C19   H12   S    
C32   C44   A    
C64   H32   S    
C21   H6    S    
O8    V4    S    
C66   C70   S    
C73   H34   S    
C4    C54   S    
C37   C41   A    
C67   C71   S    
C14   C30   A    
C21   C25   A    
O8    C4    A    
C7    C10   S    
C35   C40   A    
O9    C5    A    
C3    C53   S    
C59   C63   A    
C62   H30   S    
C61   H29   S    
O6    V2    S    
O18   V2    S    
C63   H31   S    
C52   C56   A    
C69   C70   T    
C12   C20   A    
C73   H35   S    
C27   C35   A    
C71   C72   T    
C49   H21   S    
C56   C60   A    
C76   H44   S    
C29   C41   A    
O21   C73   S    
O16   V4    S    
O9    V1    S    
C74   H37   S    
C57   H25   S    
C3    O13   A    
C64   C68   A    
C39   O23   S    
C20   H11   S    
O24   C76   S    
O6    C2    A    
C15   C19   A    
O23   C75   S    
O11   V3    S    
O22   C74   S    
C30   C42   A    
O12   V4    S    
C22   C26   A    
C8    C9    S    
C9    C17   A    
C38   O22   S    
C2    C56   S    
C73   H33   S    
C15   H15   S    
C47   C67   A    
O10   C6    A    
C33   C34   A    
C42   H2    S    
C41   H1    S    
C52   H24   S    
O20   V2    S    
C1    C55   S    
C12   C24   A    
C27   C31   A    
C13   C17   A    
C46   C66   A    
C25   C29   A    
O14   V2    S    
C62   C66   A    
C60   H28   S    
C24   C28   A    
C61   C65   A    
C50   C54   A    
C18   H9    S    
C28   C36   A    
C54   C58   A    
C4    O14   A    
C55   C59   A    
C22   H5    S    
O4    V2    S    
C28   C32   A    
