data_mof_unit_31960.cif
_audit_creation_date              2012-12-10T19:16:25-0500
_audit_creation_method            fapswitch 2.2
_symmetry_space_group_name_H-M    P1
_symmetry_Int_Tables_number       1
_space_group_crystal_system       triclinic
_cell_length_a                    10.634892
_cell_length_b                    9.675955
_cell_length_c                    27.734057
_cell_angle_alpha                 89.810578
_cell_angle_beta                  90.09202
_cell_angle_gamma                 90.093428
_cell_volume                      2853.88731072

loop_
_atom_site_label
_atom_site_type_symbol
_atom_type_description
_atom_site_fract_x
_atom_site_fract_y
_atom_site_fract_z
_atom_type_partial_charge
C1    C     C_R   0.257755 0.499717 0.501149 0.865061
C2    C     C_R   0.509934 0.377907 0.277998 -0.107878
C3    C     C_R   0.512260 0.503302 0.252854 0.248466
C4    C     C_R   0.510059 0.489244 0.101765 -0.046123
C5    C     C_R   0.396118 0.494388 0.127516 -0.017145
C6    C     C_R   0.282081 0.496546 0.102638 -0.129217
C7    C     C_R   0.624845 0.486912 0.127188 -0.017069
C8    C     C_R   0.504697 0.501338 0.353294 -0.073502
C9    C     C_R   0.500819 0.498694 0.646674 -0.043457
C10   C     C_R   0.392083 0.476666 0.974703 0.047655
C11   C     C_R   0.623907 0.495642 0.974268 0.047496
C12   C     C_R   0.500949 0.500289 0.405927 0.881541
C13   C     C_R   0.507533 0.486840 0.949260 0.071211
C14   C     C_R   0.279703 0.458659 0.948056 -0.213648
C15   C     C_R   0.280101 0.458226 0.898083 -0.136024
C16   C     C_R   0.392388 0.474983 0.872809 -0.020980
C17   C     C_R   0.506532 0.488721 0.898192 -0.051932
C18   C     C_R   0.619620 0.504701 0.872384 -0.021171
C19   C     C_R   0.616303 0.507497 0.821976 0.503831
C20   C     C_R   0.393502 0.477582 0.822400 0.503636
C21   C     C_R   0.510839 0.621631 0.722384 -0.102181
C22   C     C_R   0.509415 0.623331 0.672284 -0.226666
C23   C     C_R   0.742686 0.500037 0.499709 0.860085
C24   C     C_R   0.493362 0.372637 0.671780 -0.225414
C25   C     C_R   0.494394 0.371400 0.721835 -0.103372
C26   C     C_R   0.503263 0.495740 0.747039 0.328014
C27   C     C_R   0.392594 0.484470 0.025689 0.047063
C28   C     C_R   0.509219 0.486934 0.050707 0.072470
C29   C     C_R   0.625022 0.487822 0.025278 0.047919
C30   C     C_R   0.280062 0.491948 0.052705 -0.209614
C31   C     C_R   0.737994 0.480405 0.101950 -0.129292
C32   C     C_R   0.735411 0.514104 0.947213 -0.213151
C33   C     C_R   0.733034 0.518337 0.897252 -0.135934
C34   C     C_R   0.500177 0.499732 0.594040 0.876565
C35   C     C_R   0.738357 0.480495 0.051962 -0.209239
C36   C     C_3   0.071731 0.603988 0.537961 -0.413708
C37   C     C_3   0.071134 0.352801 0.512798 -0.412734
C38   C     C_3   0.927948 0.603695 0.537347 -0.442516
C39   C     C_3   0.928401 0.354915 0.514379 -0.443211
C40   C     C_3   0.077113 0.541453 0.449395 -0.379338
C41   C     C_3   0.121761 0.499267 0.500482 0.115175
C42   C     C_3   0.879262 0.500244 0.498631 0.171911
C43   C     C_3   0.930903 0.539192 0.446486 0.396332
C44   C     C_3   0.384253 0.081395 0.476158 -0.232559
C45   C     C_3   0.384294 0.918604 0.476119 -0.230546
C46   C     C_3   0.608640 0.081808 0.471913 -0.227140
C47   C     C_3   0.608655 0.919028 0.471924 -0.235757
C48   C     C_3   0.506353 0.080845 0.548592 -0.233526
C49   C     C_3   0.506320 0.918313 0.548593 -0.232325
C50   C     C_R   0.399154 0.498942 0.177874 0.554447
C51   C     C_R   0.623489 0.490922 0.177587 0.560886
C52   C     C_R   0.511806 0.630754 0.277784 0.004922
C53   C     C_R   0.507989 0.627518 0.328208 -0.263427
C54   C     C_R   0.506240 0.376616 0.327904 -0.204545
H1    H     H_    0.504213 0.278050 0.346527 0.162164
H2    H     H_    0.827290 0.475705 0.120755 0.190248
H3    H     H_    0.826334 0.529234 0.963510 0.139870
H4    H     H_    0.486593 0.275186 0.652839 0.149038
H5    H     H_    0.820951 0.532716 0.878173 0.190973
H6    H     H_    0.488596 0.274103 0.741123 0.134443
H7    H     H_    0.829471 0.472027 0.035362 0.138021
H8    H     H_    0.105851 0.710246 0.529610 0.177123
H9    H     H_    0.101851 0.277057 0.485060 0.176535
H10   H     H_    0.106209 0.576351 0.574674 0.176389
H11   H     H_    0.108308 0.317481 0.548325 0.179084
H12   H     H_    0.892693 0.573145 0.573662 0.174598
H13   H     H_    0.896619 0.330835 0.551747 0.179951
H14   H     H_    0.510119 0.281000 0.258551 0.141163
H15   H     H_    0.892994 0.710301 0.530968 0.179294
H16   H     H_    0.891079 0.270677 0.491270 0.179469
H17   H     H_    0.115117 0.646016 0.440687 0.164540
H18   H     H_    0.119666 0.470656 0.422343 0.156299
H19   H     H_    0.375697 0.120747 0.438564 0.152936
H20   H     H_    0.375948 0.880087 0.438496 0.155150
H21   H     H_    0.299766 0.118467 0.495768 0.143821
H22   H     H_    0.299692 0.880664 0.495629 0.144029
H23   H     H_    0.607172 0.120981 0.434162 0.154615
H24   H     H_    0.607113 0.880608 0.434170 0.156252
H25   H     H_    0.592621 0.119326 0.566944 0.147045
H26   H     H_    0.592573 0.879806 0.566959 0.146147
H27   H     H_    0.425225 0.118736 0.570071 0.145777
H28   H     H_    0.425152 0.879803 0.570067 0.147767
H29   H     H_    0.697879 0.119357 0.488172 0.143436
H30   H     H_    0.697906 0.881380 0.488191 0.148632
H31   H     H_    0.193368 0.502488 0.121682 0.191250
H32   H     H_    0.515423 0.721750 0.653700 0.149015
H33   H     H_    0.517569 0.717765 0.742112 0.134798
H34   H     H_    0.191491 0.444833 0.879315 0.190485
H35   H     H_    0.189517 0.441756 0.964665 0.139363
H36   H     H_    0.188285 0.498115 0.036403 0.138561
H37   H     H_    0.507595 0.723629 0.348123 0.197305
N1    N     N_R   0.511750 0.498462 0.201546 -0.342813
N2    N     N_R   0.504359 0.493971 0.798325 -0.359248
N3    N     N_3   0.499750 0.138610 0.498940 -0.035203
N4    N     N_3   0.499750 0.861390 0.498940 -0.035455
O1    O     O_R   0.314910 0.616040 0.499990 -0.634783
O2    O     O_R   0.314910 0.383960 0.499990 -0.633568
O3    O     O_R   0.500140 0.616020 0.428740 -0.629231
O4    O     O_R   0.500140 0.383980 0.428740 -0.628108
O5    O     O_R   0.685320 0.616040 0.499970 -0.632755
O6    O     O_R   0.685320 0.383960 0.499970 -0.636300
O7    O     O_R   0.500090 0.616050 0.571230 -0.630727
O8    O     O_R   0.500090 0.383950 0.571230 -0.630966
O9    O     O_2   0.290855 0.504395 0.203124 -0.551145
O10   O     O_2   0.284918 0.464563 0.797527 -0.553625
O11   O     O_2   0.732523 0.488436 0.202561 -0.550090
O12   O     O_2   0.723815 0.522845 0.796686 -0.553589
Zn1   Zn    Zn3+2 0.500150 0.654960 0.499980 0.905291
Zn2   Zn    Zn3+2 0.500150 0.345040 0.499980 0.905853
C55   C     C_2   0.514901 0.767578 0.252752 0.937101
O13   O     O_2   0.522908 0.775130 0.208859 -0.619186
O14   O     O_R   0.509041 0.889382 0.279734 -0.828375
H38   H     H_    0.512081 0.975627 0.258888 0.346238
C56   C     C_3   0.884544 0.682640 0.428431 -0.899845
H39   H     H_    0.909810 0.766720 0.453693 0.216914
H40   H     H_    0.928943 0.708442 0.393263 0.247241
H41   H     H_    0.781423 0.683296 0.422330 0.254639
C57   C     C_3   0.888846 0.432014 0.408037 -0.882951
H42   H     H_    0.784875 0.421721 0.407017 0.234384
H43   H     H_    0.920378 0.464677 0.371534 0.260476
H44   H     H_    0.930331 0.328657 0.414755 0.223894

loop_
_geom_bond_atom_site_label_1
_geom_bond_atom_site_label_2
_ccdc_geom_bond_type
C10   C27   A    
C20   N2    A    
C21   H33   S    
C50   O9    S    
C40   H17   S    
C54   H1    S    
C30   H36   S    
C56   H39   S    
C52   C53   A    
C34   O7    A    
C6    H31   S    
C48   N3    S    
C45   H22   S    
C48   H25   S    
C28   C29   A    
C38   C42   S    
C2    H14   S    
C1    O1    A    
C43   C56   S    
C5    C6    A    
C9    C22   A    
O6    Zn2   S    
C15   C16   A    
O4    Zn2   S    
O3    Zn1   S    
C48   H27   S    
C18   C19   A    
C57   H42   S    
C12   O4    A    
C4    C28   A    
C55   O13   D    
C40   C43   S    
C38   H12   S    
C16   C17   A    
C37   H11   S    
C53   H37   S    
O7    Zn1   S    
C25   H6    S    
C31   H2    S    
C12   O3    A    
C19   N2    A    
C8    C12   S    
C26   N2    S    
C23   O5    A    
O1    Zn1   S    
C38   H15   S    
C33   H5    S    
C21   C22   A    
C27   C30   A    
C36   C41   S    
C32   H3    S    
C4    C7    A    
C36   H8    S    
O14   H38   S    
C37   H9    S    
C21   C26   A    
C39   C42   S    
C55   O14   S    
O5    Zn1   S    
C7    C31   A    
C24   C25   A    
C2    C54   A    
C1    O2    A    
C25   C26   A    
C45   H20   S    
C57   H44   S    
C49   H28   S    
C44   H21   S    
C14   H35   S    
C51   N1    A    
O2    Zn2   S    
C46   N3    S    
C52   C55   S    
C16   C20   A    
C17   C18   A    
C35   H7    S    
C47   H30   S    
C49   N4    S    
C23   C42   S    
C1    C41   S    
C48   C49   S    
C6    C30   A    
C11   C32   A    
C10   C14   A    
C9    C34   S    
C31   C35   A    
C5    C50   A    
C42   C43   S    
C8    C54   A    
C45   N4    S    
C44   C45   S    
C20   O10   S    
C50   N1    A    
C46   C47   S    
C40   C41   S    
C40   H18   S    
C39   H13   S    
C4    C5    A    
C10   C13   A    
C8    C53   A    
C46   H23   S    
C56   H40   S    
C3    C52   A    
C9    C24   A    
C29   C35   A    
N3    Zn2   S    
C34   O8    A    
C49   H26   S    
C13   C17   A    
O8    Zn2   S    
C32   C33   A    
C36   C38   S    
C2    C3    A    
C7    C51   A    
C37   C39   S    
C11   C13   A    
C23   O6    A    
C51   O11   S    
C39   H16   S    
C22   H32   S    
C37   C41   S    
C44   H19   S    
C18   C33   A    
C57   H43   S    
C56   H41   S    
C44   N3    S    
N4    Zn1   S    
C43   C57   S    
C46   H29   S    
C11   C29   A    
C24   H4    S    
C27   C28   A    
C47   N4    S    
C14   C15   A    
C3    N1    S    
C47   H24   S    
C36   H10   S    
C15   H34   S    
C19   O12   S    
