data_mof_unit_15174.cif
_audit_creation_date              2013-03-05T16:59:36-0500
_audit_creation_method            fapswitch 2.2
_symmetry_space_group_name_H-M    P1
_symmetry_Int_Tables_number       1
_space_group_crystal_system       triclinic
_cell_length_a                    8.580136
_cell_length_b                    16.188109
_cell_length_c                    16.702465
_cell_angle_alpha                 88.189461
_cell_angle_beta                  91.972564
_cell_angle_gamma                 100.302408
_cell_volume                      2280.38978473

loop_
_atom_site_label
_atom_site_type_symbol
_atom_site_description
_atom_site_fract_x
_atom_site_fract_y
_atom_site_fract_z
_atom_type_partial_charge
O1    O     O_R   0.493140 0.422050 0.612640 -0.585443
O2    O     O_R   0.506860 0.577950 0.387360 -0.585609
O3    O     O_R   0.505450 0.562230 0.618920 -0.640353
O4    O     O_R   0.494550 0.437770 0.381080 -0.640258
C1    C     C_R   0.493330 0.489195 0.653239 0.914682
C2    C     C_R   0.506659 0.510802 0.346760 0.914542
O5    O     O_R   0.723530 0.446300 0.497600 -0.586581
O6    O     O_R   0.276470 0.553700 0.502400 -0.586317
O7    O     O_R   0.735850 0.586490 0.503880 -0.617094
O8    O     O_R   0.264150 0.413510 0.496120 -0.617048
C3    C     C_R   0.800508 0.521475 0.502028 0.967558
C4    C     C_R   0.199494 0.478532 0.497917 0.967854
Zn1   Zn    Zn3+2 0.491780 0.406400 0.495810 1.018551
Zn2   Zn    Zn3+2 0.508220 0.593600 0.504190 1.018459
C5    C     C_2   0.966010 0.532573 0.506924 -0.304892
C6    C     C_2   0.034000 0.467464 0.492910 -0.304509
H1    H     H_    0.031410 0.593810 0.523536 0.208943
H2    H     H_    0.968607 0.406247 0.476248 0.209109
C7    C     C_R   0.468458 0.484306 0.739349 -0.109791
C8    C     C_R   0.531472 0.515672 0.260644 -0.109900
C9    C     C_R   0.465298 0.558881 0.779660 -0.268311
C10   C     C_R   0.534401 0.441074 0.220329 -0.268151
C11   C     C_R   0.439629 0.557242 0.861416 0.298454
C12   C     C_R   0.560030 0.442690 0.138572 0.298475
C13   C     C_R   0.425352 0.479614 0.903793 0.221170
C14   C     C_R   0.574470 0.520321 0.096191 0.221128
C15   C     C_R   0.416927 0.404819 0.863085 -0.138143
C16   C     C_R   0.583122 0.595131 0.136901 -0.137996
C17   C     C_R   0.437192 0.406973 0.780846 -0.140280
C18   C     C_R   0.562922 0.592997 0.219146 -0.140352
N1    N     N_2   0.438894 0.476383 0.987617 -0.105462
N2    N     N_2   0.560911 0.523557 0.012366 -0.105541
H3    H     H_    0.518680 0.381176 0.252520 0.212138
H4    H     H_    0.480879 0.618776 0.747467 0.212070
H5    H     H_    0.402421 0.345239 0.895835 0.213651
H6    H     H_    0.597770 0.654714 0.104151 0.213606
H7    H     H_    0.430178 0.348573 0.750261 0.227441
H8    H     H_    0.570151 0.651404 0.249737 0.227471
N3    N     N_R   0.519180 0.718290 0.509780 -0.165191
N4    N     N_R   0.480820 0.281710 0.490220 -0.165345
C19   C     C_R   0.433196 0.757357 0.454162 0.325940
C20   C     C_R   0.567300 0.242739 0.545665 0.326127
C21   C     C_R   0.443692 0.845720 0.452227 0.136899
C22   C     C_R   0.556718 0.154372 0.547740 0.137074
C23   C     C_R   0.539658 0.894390 0.510405 0.183193
C24   C     C_R   0.460174 0.105593 0.489838 0.183311
C25   C     C_R   0.626131 0.852285 0.566184 -0.241313
C26   C     C_R   0.373240 0.147612 0.434208 -0.241090
C27   C     C_R   0.614471 0.764514 0.565052 -0.070611
C28   C     C_R   0.384963 0.235391 0.435227 -0.070344
N5    N     N_2   0.557567 0.984408 0.513769 -0.073886
N6    N     N_2   0.442251 0.015567 0.486541 -0.074135
H9    H     H_    0.702760 0.887593 0.610790 0.219321
H10   H     H_    0.296184 0.112228 0.389813 0.219221
H11   H     H_    0.682812 0.733379 0.608180 0.176736
H12   H     H_    0.316218 0.266456 0.392245 0.176720
N7    N     N_R   0.570066 0.366021 0.099109 0.220053
O9    O     O_R   0.657590 0.367410 0.036794 -0.335205
O10   O     O_R   0.504791 0.293722 0.129826 -0.336827
N8    N     N_R   0.429405 0.633885 0.900882 0.220063
O11   O     O_R   0.341939 0.632428 0.963229 -0.335118
O12   O     O_R   0.494448 0.706219 0.870143 -0.336936
N9    N     N_R   0.664635 0.290926 0.604810 0.248986
O13   O     O_R   0.811658 0.320437 0.589119 -0.364500
O14   O     O_R   0.625222 0.280825 0.679405 -0.349976
N10   N     N_R   0.336583 0.709296 0.394672 0.248839
O15   O     O_R   0.189788 0.678923 0.410206 -0.364362
O16   O     O_R   0.376087 0.720144 0.320118 -0.349562
N11   N     N_R   0.636735 0.115338 0.611276 0.243761
O17   O     O_R   0.555481 0.063247 0.661753 -0.311486
O18   O     O_R   0.789394 0.136174 0.622267 -0.293074
N12   N     N_R   0.364105 0.884872 0.388603 0.243838
O19   O     O_R   0.445694 0.937204 0.338434 -0.311289
O20   O     O_R   0.211573 0.863854 0.377171 -0.293104

loop_
_geom_bond_atom_site_label_1
_geom_bond_atom_site_label_2
_geom_bond_distance
_ccdc_geom_bond_type
C13   N1    1.400985 S    
C26   H10   1.082907 S    
O7    Zn2   1.977118 S    
N9    O14   1.299912 A    
C14   N2    1.401013 S    
C19   N10   1.428715 S    
C1    C7    1.458859 S    
C15   C17   1.389050 A    
C19   C21   1.416507 A    
C14   C16   1.396731 A    
N1    N2    1.246712 D    
C25   H9    1.082964 S    
O6    C4    1.279594 A    
C15   H5    1.083223 S    
C16   C18   1.389070 A    
N10   O15   1.299373 A    
N11   O18   1.300947 A    
C22   N11   1.435065 S    
N3    C19   1.374692 A    
C6    H2    1.087247 S    
C8    C18   1.399043 A    
C22   C24   1.415689 A    
N8    O12   1.301596 A    
O5    C3    1.279643 A    
C26   C28   1.407068 A    
C21   C23   1.415701 A    
C18   H8    1.079925 S    
N7    O9    1.301564 A    
C21   N12   1.435122 S    
O3    Zn2   1.966694 S    
C20   C22   1.416463 A    
N8    O11   1.301571 A    
O1    C1    1.298902 A    
C5    C6    1.323230 D    
O8    C4    1.276171 A    
C25   C27   1.407077 A    
C7    C9    1.405624 A    
C12   C14   1.410623 A    
C10   C12   1.389281 A    
O7    C3    1.276127 A    
C9    C11   1.389304 A    
N11   O17   1.301228 A    
O2    Zn2   1.975016 S    
N5    N6    1.254285 D    
C24   C26   1.405777 A    
N7    O10   1.301568 A    
O4    C2    1.286257 A    
O1    Zn1   1.975016 S    
N10   O16   1.300120 A    
C23   N5    1.440398 S    
C13   C15   1.396737 A    
N9    O13   1.299045 A    
C7    C17   1.399071 A    
C24   N6    1.440450 S    
N4    C28   1.361347 A    
O5    Zn1   1.977306 S    
C11   C13   1.410619 A    
C2    C8    1.458864 S    
C16   H6    1.083216 S    
N12   O20   1.301024 A    
C23   C25   1.405791 A    
C17   H7    1.079977 S    
O4    Zn1   1.966694 S    
C5    H1    1.087316 S    
C10   H3    1.082933 S    
N4    C20   1.374557 A    
C12   N7    1.440864 S    
Zn1   N4    2.008806 S    
O6    Zn2   1.977307 S    
C9    H4    1.082938 S    
C4    C6    1.398980 S    
N3    C27   1.361449 A    
Zn2   N3    2.008806 S    
C27   H11   1.081869 S    
C3    C5    1.398977 S    
C20   N9    1.428539 S    
C11   N8    1.440890 S    
C28   H12   1.081830 S    
O2    C2    1.298935 A    
C8    C10   1.405610 A    
N12   O19   1.301269 A    
O3    C1    1.286285 A    
O8    Zn1   1.977119 S    
