data_mof_unit_29171.cif
_audit_creation_date              2013-03-05T16:22:22-0500
_audit_creation_method            fapswitch 2.2
_symmetry_space_group_name_H-M    P1
_symmetry_Int_Tables_number       1
_space_group_crystal_system       triclinic
_cell_length_a                    13.888072
_cell_length_b                    15.088887
_cell_length_c                    15.755711
_cell_angle_alpha                 89.493093
_cell_angle_beta                  70.556378
_cell_angle_gamma                 88.699785
_cell_volume                      3112.59468367

loop_
_atom_site_label
_atom_site_type_symbol
_atom_site_description
_atom_site_fract_x
_atom_site_fract_y
_atom_site_fract_z
_atom_type_partial_charge
O1    O     O_R   0.418570 0.628550 0.499990 -0.486508
O2    O     O_R   0.581430 0.371450 0.500010 -0.568265
O3    O     O_R   0.581440 0.628540 0.499990 -0.555259
O4    O     O_R   0.418560 0.371460 0.500010 -0.591588
C1    C     C_R   0.498368 0.670350 0.501769 0.828951
C2    C     C_R   0.500657 0.330366 0.500592 0.949547
O5    O     O_R   0.372890 0.500010 0.629830 -0.581197
O6    O     O_R   0.627110 0.499990 0.370170 -0.537683
O7    O     O_R   0.535760 0.500000 0.629840 -0.607720
O8    O     O_R   0.464240 0.500000 0.370160 -0.595936
C3    C     C_R   0.438396 0.501847 0.672529 0.811783
C4    C     C_R   0.561639 0.500749 0.327522 0.817772
Cu1   Cu    Cu3+1 0.403570 0.500010 0.500000 0.981218
Cu2   Cu    Cu3+1 0.596430 0.499990 0.500000 0.980285
C5    C     C_R   0.403061 0.514709 0.770803 -0.096505
C6    C     C_R   0.597877 0.507907 0.228788 -0.084613
C7    C     C_R   0.266482 0.544558 0.911727 0.248029
C8    C     C_R   0.736705 0.512937 0.086307 0.242951
C9    C     C_R   0.299460 0.522165 0.820291 -0.233331
C10   C     C_R   0.701827 0.503496 0.179863 -0.256503
C11   C     C_R   0.474823 0.523850 0.814377 -0.254586
C12   C     C_R   0.527567 0.520947 0.183698 -0.249699
C13   C     C_R   0.445693 0.545592 0.906193 0.028334
C14   C     C_R   0.559209 0.536409 0.090257 0.019833
C15   C     C_R   0.339781 0.558638 0.955610 0.011555
C16   C     C_R   0.665876 0.533360 0.040423 0.039690
C17   C     C_R   0.519699 0.550528 0.950492 0.031059
C18   C     C_R   0.486712 0.552054 0.045220 0.026086
C19   C     C_R   0.383149 0.573564 0.091793 -0.255354
C20   C     C_R   0.625303 0.556300 0.903022 -0.267816
C21   C     C_R   0.310962 0.584212 0.047302 0.257024
C22   C     C_R   0.698378 0.551575 0.946901 0.251250
H1    H     H_    0.447775 0.516922 0.222962 0.158612
H2    H     H_    0.553745 0.510963 0.775599 0.154327
H3    H     H_    0.756598 0.490011 0.214074 0.182339
H4    H     H_    0.243544 0.509851 0.787963 0.157396
H5    H     H_    0.359364 0.588191 0.162198 0.157123
H6    H     H_    0.651263 0.570873 0.832142 0.153347
C23   C     C_R   0.414213 0.908021 0.484848 0.185308
C24   C     C_R   0.474860 0.100978 0.597247 0.166643
C25   C     C_R   0.425816 0.815839 0.472783 0.338252
C26   C     C_R   0.492529 0.192693 0.587412 0.323150
C27   C     C_R   0.493709 0.767613 0.506560 -0.296420
C28   C     C_R   0.499803 0.234518 0.505668 -0.262421
C29   C     C_R   0.554935 0.813361 0.546607 0.399167
C30   C     C_R   0.497246 0.185831 0.431444 0.338960
C31   C     C_R   0.552173 0.905540 0.547670 -0.337101
C32   C     C_R   0.495432 0.093640 0.437276 -0.256881
H7    H     H_    0.604937 0.940038 0.572624 0.175346
H8    H     H_    0.503315 0.055345 0.377405 0.163604
C33   C     C_R   0.479985 0.953182 0.520395 -0.018733
C34   C     C_R   0.482301 0.050640 0.519586 -0.002452
C35   C     C_R   0.919589 0.456784 0.429229 0.224887
C36   C     C_R   0.096635 0.576587 0.520843 0.215384
C37   C     C_R   0.815228 0.453007 0.435018 0.515394
C38   C     C_R   0.195546 0.573206 0.528413 0.539332
N1    N     N_R   0.741310 0.499980 0.500000 -0.217072
N2    N     N_R   0.258690 0.500020 0.500000 -0.225989
C39   C     C_R   0.765806 0.543121 0.565233 -0.038418
C40   C     C_R   0.221159 0.426437 0.473066 -0.082045
H9    H     H_    0.706647 0.577510 0.617753 0.166329
H10   H     H_    0.269117 0.368023 0.451615 0.169500
C41   C     C_R   0.866663 0.542246 0.565973 -0.317626
C42   C     C_R   0.119491 0.424083 0.474235 -0.300772
H11   H     H_    0.882536 0.575618 0.619902 0.202243
H12   H     H_    0.091763 0.362708 0.456962 0.201065
C43   C     C_R   0.945902 0.499043 0.497713 0.039683
C44   C     C_R   0.055072 0.499832 0.497590 0.029895
N3    N     N_2   0.211947 0.623809 0.091684 -0.394868
H13   H     H_    0.189014 0.667332 0.051070 0.278153
C45   C     C_3   0.185574 0.658188 0.182259 -0.775914
H14   H     H_    0.104767 0.682024 0.205561 0.225314
H15   H     H_    0.234442 0.715077 0.182825 0.234968
H16   H     H_    0.192904 0.605761 0.229659 0.235560
N4    N     N_2   0.803341 0.570324 0.899636 -0.389158
H17   H     H_    0.832042 0.621156 0.926837 0.260810
C46   C     C_3   0.843940 0.564985 0.802605 -0.722668
H18   H     H_    0.928663 0.565674 0.780392 0.225464
H19   H     H_    0.816973 0.623201 0.772544 0.216771
H20   H     H_    0.821106 0.502244 0.778910 0.233541
O9    O     O_3   0.995203 0.416785 0.358444 -0.605132
C47   C     C_3   0.012876 0.469096 0.280295 0.092047
H21   H     H_    0.030612 0.538377 0.292622 0.133728
H22   H     H_    0.945667 0.469939 0.256865 0.170906
C48   C     C_3   0.103232 0.429443 0.205610 -0.775882
H23   H     H_    0.088363 0.359305 0.194130 0.238915
H24   H     H_    0.114940 0.467027 0.142290 0.238289
H25   H     H_    0.173522 0.432275 0.224265 0.247410
O10   O     O_3   0.041064 0.655453 0.537428 -0.593649
C49   C     C_3   0.066439 0.704276 0.456420 0.098717
H26   H     H_    0.047058 0.667095 0.403623 0.127735
H27   H     H_    0.149219 0.719898 0.431415 0.186723
C50   C     C_3   0.005709 0.791244 0.473443 -0.773690
H28   H     H_    0.025053 0.830703 0.524554 0.247335
H29   H     H_    0.024494 0.830014 0.409967 0.190938
H30   H     H_    0.922548 0.777998 0.498157 0.262944
O11   O     O_3   0.788516 0.408344 0.370238 -0.571794
C51   C     C_3   0.799624 0.315918 0.380283 0.054634
H31   H     H_    0.753973 0.293662 0.449180 0.136328
H32   H     H_    0.880599 0.295357 0.366849 0.175859
C52   C     C_3   0.762376 0.268918 0.312479 -0.754523
H33   H     H_    0.761382 0.196254 0.324441 0.197910
H34   H     H_    0.684254 0.293029 0.318983 0.289073
H35   H     H_    0.813799 0.282958 0.243055 0.229518
O12   O     O_3   0.230586 0.646871 0.559357 -0.513508
C53   C     C_3   0.182948 0.654023 0.653480 0.112551
H36   H     H_    0.179720 0.588868 0.688023 0.103128
H37   H     H_    0.104046 0.681695 0.669574 0.167355
C54   C     C_3   0.243324 0.716906 0.690556 -0.782084
H38   H     H_    0.249675 0.782215 0.656275 0.248278
H39   H     H_    0.204106 0.726596 0.763784 0.188365
H40   H     H_    0.321134 0.688995 0.679814 0.229888
N5    N     N_2   0.159863 0.543556 0.960757 -0.429765
H41   H     H_    0.130787 0.480570 0.969093 0.251827
C55   C     C_3   0.097451 0.606316 0.930747 -0.727542
H42   H     H_    0.020612 0.611827 0.982518 0.240709
H43   H     H_    0.088607 0.583916 0.866841 0.220566
H44   H     H_    0.131670 0.673056 0.921179 0.222423
N6    N     N_2   0.842726 0.497800 0.039508 -0.429315
H45   H     H_    0.889206 0.515734 0.075459 0.239693
C56   C     C_3   0.867902 0.409629 0.002275 -0.641640
H46   H     H_    0.950549 0.405176 0.962492 0.218869
H47   H     H_    0.823915 0.394690 0.956922 0.246116
H48   H     H_    0.850920 0.359639 0.057277 0.210630
N7    N     N_2   0.339039 0.955681 0.458220 -0.428217
H49   H     H_    0.323322 0.929069 0.404357 0.270578
C57   C     C_3   0.247229 0.978573 0.531644 -0.677813
H50   H     H_    0.195022 0.018628 0.505617 0.213894
H51   H     H_    0.265759 0.018659 0.582604 0.233195
H52   H     H_    0.207640 0.917497 0.563625 0.235711
N8    N     N_2   0.447484 0.061924 0.684943 -0.428912
H53   H     H_    0.460038 0.994791 0.687790 0.250984
C58   C     C_3   0.347724 0.088188 0.745995 -0.648848
H54   H     H_    0.336234 0.058445 0.813289 0.212222
H55   H     H_    0.287142 0.064382 0.720847 0.202586
H56   H     H_    0.340433 0.161237 0.754117 0.268677
O13   O     O_3   0.368686 0.773218 0.429218 -0.529691
C59   C     C_3   0.429188 0.763150 0.337839 0.094301
H57   H     H_    0.493562 0.715148 0.330323 0.133103
H58   H     H_    0.460445 0.827703 0.306893 0.112164
C60   C     C_3   0.363521 0.727885 0.286441 -0.831825
H59   H     H_    0.298133 0.774379 0.293784 0.232948
H60   H     H_    0.409744 0.722058 0.214068 0.207300
H61   H     H_    0.334199 0.661755 0.313043 0.248892
O14   O     O_3   0.495294 0.243480 0.659318 -0.577189
C61   C     C_3   0.591040 0.229725 0.671104 0.102330
H62   H     H_    0.655466 0.235934 0.606331 0.113530
H63   H     H_    0.595274 0.163094 0.700574 0.166236
C62   C     C_3   0.604437 0.299157 0.735407 -0.790740
H64   H     H_    0.539417 0.297906 0.799721 0.256710
H65   H     H_    0.676563 0.285625 0.749536 0.190165
H66   H     H_    0.608312 0.365841 0.704491 0.254450
O15   O     O_3   0.618678 0.769222 0.584840 -0.551376
C63   C     C_3   0.563551 0.751736 0.676482 0.077413
H67   H     H_    0.529386 0.685141 0.682438 0.147442
H68   H     H_    0.500938 0.801282 0.707865 0.121501
C64   C     C_3   0.636122 0.752679 0.730566 -0.810319
H69   H     H_    0.666925 0.820154 0.729186 0.245982
H70   H     H_    0.594671 0.733997 0.801504 0.206642
H71   H     H_    0.700713 0.705190 0.701982 0.238456
O16   O     O_3   0.505646 0.229156 0.351436 -0.596037
C65   C     C_3   0.417869 0.214591 0.327514 0.089019
H72   H     H_    0.346216 0.219439 0.386733 0.134788
H73   H     H_    0.423227 0.148249 0.295897 0.147019
C66   C     C_3   0.411308 0.284728 0.259536 -0.796893
H74   H     H_    0.480814 0.281269 0.198807 0.254544
H75   H     H_    0.343166 0.273694 0.239340 0.198766
H76   H     H_    0.404655 0.351726 0.289781 0.253294

loop_
_geom_bond_atom_site_label_1
_geom_bond_atom_site_label_2
_geom_bond_distance
_ccdc_geom_bond_type
C15   C21   1.419180 A    
C23   C33   1.409954 A    
C41   H11   1.077696 S    
C16   C22   1.416390 A    
C50   H28   1.111270 S    
C23   N7    1.426654 S    
C8    C16   1.428621 A    
N4    H17   1.031643 S    
C22   N4    1.432425 S    
O16   C65   1.412789 S    
C7    N5    1.424376 S    
C31   H7    1.084090 S    
C48   H23   1.110658 S    
C32   H8    1.083390 S    
O5    C3    1.299990 A    
C66   H74   1.110742 S    
O1    C1    1.295954 A    
C42   C44   1.408562 A    
C35   O9    1.383581 S    
C18   C19   1.411679 A    
C14   C16   1.427000 A    
N5    H41   1.031228 S    
C9    H4    1.081014 S    
C62   H65   1.110406 S    
C61   H63   1.112244 S    
N1    C39   1.360334 A    
C36   C44   1.409736 A    
C53   H36   1.114020 S    
N2    C40   1.366145 A    
C55   H42   1.108474 S    
C61   C62   1.520459 S    
O11   C51   1.412927 S    
C20   H6    1.075485 S    
C40   H10   1.078645 S    
C29   C31   1.390634 A    
O4    Cu1   1.946118 S    
N3    C45   1.447846 S    
C56   H48   1.111767 S    
C54   H39   1.109156 S    
C10   H3    1.083772 S    
C3    C5    1.473465 S    
C64   H69   1.110514 S    
C4    C6    1.470775 S    
C55   H43   1.110570 S    
C30   O16   1.386009 S    
C58   H56   1.109211 S    
C6    C12   1.395554 A    
C13   C17   1.425153 A    
C25   O13   1.381231 S    
C6    C10   1.392294 A    
C35   C37   1.424045 A    
C1    C27   1.469061 S    
O13   C59   1.412306 S    
C64   H70   1.110627 S    
C2    C28   1.447848 S    
Cu1   Cu2   2.678447 S    
C17   C20   1.411509 A    
C25   C27   1.413461 A    
C66   H75   1.110476 S    
O2    C2    1.291271 A    
C60   H59   1.110328 S    
C26   C28   1.403247 A    
O2    Cu2   1.955369 S    
C28   C30   1.397358 A    
O14   C61   1.413119 S    
C65   H73   1.111979 S    
N6    C56   1.446545 S    
C11   C13   1.405968 A    
C36   C38   1.417600 A    
C39   H9    1.079189 S    
C61   H62   1.115816 S    
C48   H24   1.108842 S    
C43   C44   1.515831 S    
C52   H33   1.110469 S    
C36   O10   1.381879 S    
C23   C25   1.403884 A    
C62   H66   1.108568 S    
C45   H15   1.108215 S    
C31   C33   1.398280 A    
Cu1   N2    2.012100 S    
O3    C1    1.294437 A    
C46   H18   1.110591 S    
C59   C60   1.513923 S    
C60   H61   1.111113 S    
O9    C47   1.410588 S    
C33   C34   1.471468 S    
C42   H12   1.081855 S    
C5    C9    1.392164 A    
O7    Cu2   1.935811 S    
C57   H51   1.109042 S    
C41   C43   1.408751 A    
C65   C66   1.521821 S    
O7    C3    1.294105 A    
C21   N3    1.437657 S    
C49   H27   1.114271 S    
O5    Cu1   1.945664 S    
O6    C4    1.297904 A    
C55   H44   1.110859 S    
C37   O11   1.381700 S    
C56   H46   1.110462 S    
C46   H19   1.109967 S    
C27   C29   1.410386 A    
N4    C46   1.444929 S    
C63   H67   1.110840 S    
O3    Cu2   1.946120 S    
O8    C4    1.294903 A    
C63   C64   1.521450 S    
O4    C2    1.288141 A    
C66   H76   1.110205 S    
Cu2   N1    2.012100 S    
C24   N8    1.430720 S    
C47   H21   1.112803 S    
C50   H30   1.111388 S    
C47   H22   1.111974 S    
C37   N1    1.372785 A    
C58   H54   1.110504 S    
C59   H58   1.115713 S    
C12   C14   1.408135 A    
C54   H40   1.110233 S    
O1    Cu1   1.955368 S    
N8    H53   1.027080 S    
C47   C48   1.520740 S    
C49   C50   1.520088 S    
N7    C57   1.445143 S    
C65   H72   1.116214 S    
C52   H34   1.108471 S    
C48   H25   1.110997 S    
C12   H1    1.077216 S    
O6    Cu2   1.945667 S    
C63   H68   1.118187 S    
C14   C18   1.426492 A    
N8    C58   1.447901 S    
O8    Cu1   1.935812 S    
C45   H16   1.109235 S    
N6    H45   1.031908 S    
C11   H2    1.076605 S    
C64   H71   1.108391 S    
C51   C52   1.519804 S    
O12   C53   1.412435 S    
C39   C41   1.404400 A    
C40   C42   1.407202 A    
C7    C15   1.428444 A    
C60   H60   1.109945 S    
O15   C63   1.416694 S    
C57   H52   1.111668 S    
C45   H14   1.110546 S    
C19   C21   1.407424 A    
C24   C34   1.418975 A    
C54   H38   1.110591 S    
C20   C22   1.405695 A    
C46   H20   1.111245 S    
C49   H26   1.115049 S    
N7    H49   1.030752 S    
C5    C11   1.395375 A    
C53   H37   1.111547 S    
C24   C26   1.409138 A    
C7    C9    1.400609 A    
C38   N2    1.375636 A    
C8    C10   1.397062 A    
C13   C15   1.426772 A    
N3    H13   1.030030 S    
C35   C43   1.410553 A    
C51   H32   1.110219 S    
C38   O12   1.379162 S    
C56   H47   1.111014 S    
C59   H57   1.113361 S    
C30   C32   1.393520 A    
C32   C34   1.403235 A    
C29   O15   1.382504 S    
C50   H29   1.110574 S    
C51   H31   1.112704 S    
C19   H5    1.070236 S    
C17   C18   1.408156 A    
C58   H55   1.109996 S    
C52   H35   1.110877 S    
O10   C49   1.411261 S    
C62   H64   1.110773 S    
C26   O14   1.384892 S    
C8    N6    1.424361 S    
C57   H50   1.110336 S    
N5    C55   1.448915 S    
C53   C54   1.522044 S    
