data_mof_unit_60550.cif
_audit_creation_date              2012-12-10T17:19:23-0500
_audit_creation_method            fapswitch 2.2
_symmetry_space_group_name_H-M    P1
_symmetry_Int_Tables_number       1
_space_group_crystal_system       triclinic
_cell_length_a                    18.656724
_cell_length_b                    18.778035
_cell_length_c                    18.826347
_cell_angle_alpha                 109.478955
_cell_angle_beta                  109.315802
_cell_angle_gamma                 109.266435
_cell_volume                      5099.21528642

loop_
_atom_site_label
_atom_site_type_symbol
_atom_type_description
_atom_site_fract_x
_atom_site_fract_y
_atom_site_fract_z
_atom_type_partial_charge
C1    C     C_R   0.381302 0.381238 0.500354 0.785680
C2    C     C_3   0.808664 0.500053 0.809420 -0.147684
C3    C     C_3   0.821707 0.594615 0.841743 0.054138
C4    C     C_3   0.711668 0.437625 0.787203 0.423114
C5    C     C_R   0.242121 0.321633 0.500377 -0.176056
C6    C     C_R   0.177163 0.256616 0.498708 -0.168810
C7    C     C_R   0.186164 0.186022 0.500565 -0.011970
C8    C     C_R   0.259620 0.179918 0.502881 -0.180064
C9    C     C_R   0.323131 0.243445 0.501591 -0.172926
C10   C     C_R   0.314684 0.314620 0.500934 -0.014261
C11   C     C_R   0.319068 0.579090 0.320962 -0.169968
C12   C     C_R   0.622939 0.503370 0.618712 0.915108
C13   C     C_R   0.255719 0.579063 0.255742 -0.168191
C14   C     C_R   0.184414 0.500144 0.184111 -0.013298
C15   C     C_R   0.177626 0.421292 0.177242 -0.174591
C16   C     C_R   0.242556 0.421357 0.240920 -0.170438
C17   C     C_R   0.313056 0.500235 0.313360 -0.013189
C18   C     C_R   0.755923 0.758437 0.578533 -0.149082
C19   C     C_R   0.820609 0.822042 0.578519 -0.167401
C20   C     C_R   0.814161 0.814110 0.499730 -0.006368
C21   C     C_R   0.743912 0.741673 0.420976 -0.170955
C22   C     C_R   0.680685 0.676670 0.421069 -0.173332
C23   C     C_R   0.619063 0.618783 0.499970 0.779896
C24   C     C_R   0.686186 0.685439 0.499829 -0.012951
C25   C     C_R   0.999217 0.381230 0.880027 0.805864
C26   C     C_R   0.877551 0.501562 0.879693 0.894272
C27   C     C_R   0.996795 0.618911 0.116070 0.784477
C28   C     C_R   0.117002 0.499991 0.116838 0.771243
C29   C     C_R   0.000355 0.880883 0.382054 0.779962
C30   C     C_R   0.118970 0.118825 0.500074 0.774493
C31   C     C_R   0.997684 0.117126 0.617896 0.777181
C32   C     C_R   0.881084 0.881110 0.499857 0.755541
C33   C     C_R   0.079605 0.320171 0.819440 0.171755
C34   C     C_R   0.380403 0.500133 0.380515 0.769130
C35   C     C_R   0.076291 0.253683 0.754314 -0.211673
C36   C     C_R   0.996033 0.182504 0.684687 -0.164648
C37   C     C_R   0.916797 0.175718 0.680573 0.419872
C38   C     C_R   0.920184 0.242467 0.745025 -0.210425
C39   C     C_R   0.000388 0.314466 0.813898 -0.109077
C40   C     C_R   0.033009 0.771182 0.200399 -0.171378
C41   C     C_R   0.033274 0.834295 0.265344 -0.226607
C42   C     C_R   0.999139 0.812762 0.315741 0.006155
C43   C     C_R   0.962964 0.726703 0.300521 0.168923
C44   C     C_R   0.962383 0.663644 0.234471 -0.174261
C45   C     C_3   0.747727 0.469684 0.650079 0.657859
C46   C     C_R   0.997351 0.685517 0.184462 -0.065920
C47   C     C_3   0.819509 0.469767 0.724994 0.435562
C48   C     C_3   0.751353 0.594631 0.768795 0.064642
C49   C     C_3   0.643983 0.438526 0.711771 0.165735
C50   C     C_3   0.691640 0.501932 0.685639 -0.184275
Cu1   Cu    Cu3+1 0.500370 0.438230 0.438520 0.992413
Cu2   Cu    Cu3+1 0.499630 0.561770 0.561480 0.974285
Cu3   Cu    Cu3+1 0.935490 0.438190 0.997300 0.943429
Cu4   Cu    Cu3+1 0.059110 0.561720 0.997220 1.005515
Cu5   Cu    Cu3+1 0.937870 0.999900 0.437760 0.975094
Cu6   Cu    Cu3+1 0.062130 0.999920 0.562070 0.964132
H1    H     H_    0.709383 0.609953 0.794663 0.149409
H2    H     H_    0.812157 0.613153 0.899140 0.105383
H3    H     H_    0.235077 0.376410 0.499560 0.143266
H4    H     H_    0.120704 0.261966 0.497348 0.145487
H5    H     H_    0.266869 0.125333 0.504049 0.145793
H6    H     H_    0.379339 0.237855 0.502398 0.163829
H7    H     H_    0.373495 0.640460 0.376464 0.144675
H8    H     H_    0.261420 0.640396 0.261848 0.143114
H9    H     H_    0.122947 0.359915 0.121970 0.142161
H10   H     H_    0.237098 0.359999 0.234473 0.142600
H11   H     H_    0.760881 0.765409 0.639735 0.170217
H12   H     H_    0.874784 0.878026 0.639674 0.145053
H13   H     H_    0.738949 0.734888 0.359823 0.142528
H14   H     H_    0.626780 0.620475 0.359916 0.142986
H15   H     H_    0.136604 0.257691 0.757142 0.161111
H16   H     H_    0.859473 0.237595 0.741662 0.177904
H17   H     H_    0.059863 0.789200 0.162151 0.164555
H18   H     H_    0.060580 0.900285 0.276724 0.139962
H19   H     H_    0.934869 0.597429 0.222479 0.161514
H20   H     H_    0.603407 0.462834 0.733232 0.071162
O1    O     O_R   0.410130 0.357660 0.448070 -0.573872
O2    O     O_R   0.049990 0.461930 0.907530 -0.570689
O3    O     O_R   0.854450 0.447820 0.906640 -0.620595
O4    O     O_R   0.958850 0.552130 0.906580 -0.489791
O5    O     O_R   0.944620 0.537990 0.086990 -0.598896
O6    O     O_R   0.049020 0.642300 0.086930 -0.586488
O7    O     O_R   0.035760 0.447780 0.087940 -0.583317
O8    O     O_R   0.140150 0.552090 0.087880 -0.588844
O9    O     O_R   0.948110 0.909780 0.357760 -0.582190
O10   O     O_R   0.053050 0.909790 0.462730 -0.577798
O11   O     O_R   0.037720 0.090080 0.447430 -0.582731
O12   O     O_R   0.409500 0.461990 0.551910 -0.590962
O13   O     O_R   0.142660 0.090100 0.552410 -0.584818
O14   O     O_R   0.946950 0.090030 0.537090 -0.570027
O15   O     O_R   0.051890 0.090040 0.642060 -0.582545
O16   O     O_R   0.857350 0.909730 0.447410 -0.582776
O17   O     O_R   0.962280 0.909740 0.552390 -0.582854
O18   O     O_R   0.590970 0.447820 0.538740 -0.533726
O19   O     O_R   0.590340 0.552140 0.642570 -0.595505
O20   O     O_R   0.590500 0.538010 0.448090 -0.598536
O21   O     O_R   0.589870 0.642340 0.551930 -0.577230
O22   O     O_R   0.409660 0.447860 0.357430 -0.588452
O23   O     O_R   0.409030 0.552180 0.461260 -0.585913
O24   O     O_R   0.945590 0.357610 0.907590 -0.591501
O25   O     O_3   0.788297 0.525234 0.623126 -0.783711
H21   H     H_    0.743668 0.513125 0.567425 0.342185
C51   C     C_3   0.694359 0.466891 0.865387 -0.988562
H22   H     H_    0.687604 0.525857 0.879304 0.201475
H23   H     H_    0.631624 0.414748 0.849532 0.253360
H24   H     H_    0.746131 0.479882 0.926011 0.259213
O26   O     O_3   0.691786 0.384767 0.577417 -0.671914
H25   H     H_    0.722602 0.373267 0.544598 0.331787
C52   C     C_3   0.167478 0.394332 0.894783 -0.812076
H26   H     H_    0.221724 0.383224 0.892301 0.218901
H27   H     H_    0.178515 0.455597 0.893561 0.251221
H28   H     H_    0.170415 0.401606 0.956864 0.220705
O27   O     O_3   0.835435 0.105059 0.616883 -0.714568
H29   H     H_    0.841896 0.054583 0.588568 0.324855
C53   C     C_3   0.813893 0.379036 0.694172 -0.635979
H30   H     H_    0.857039 0.375783 0.748467 0.189299
H31   H     H_    0.747058 0.323879 0.661840 0.279392
H32   H     H_    0.836847 0.367277 0.646129 0.218282
C54   C     C_3   0.922889 0.698839 0.350954 -0.865366
H33   H     H_    0.923422 0.752267 0.399893 0.230600
H34   H     H_    0.853764 0.646522 0.305621 0.228898
H35   H     H_    0.959318 0.673359 0.385005 0.243172
O28   O     O_3   0.905013 0.525343 0.745367 -0.661252
H36   H     H_    0.911771 0.581312 0.749916 0.399059
O29   O     O_3   0.785591 0.660906 0.750265 -0.698256
H37   H     H_    0.834071 0.659434 0.740465 0.390738
O30   O     O_3   0.907033 0.657519 0.870765 -0.695150
H38   H     H_    0.914642 0.715268 0.905411 0.349154
O31   O     O_3   0.585700 0.354349 0.639371 -0.624957
H39   H     H_    0.542628 0.323577 0.653453 0.333375
O32   O     O_3   0.695505 0.351129 0.758825 -0.691040
H40   H     H_    0.703639 0.337463 0.806505 0.358837

loop_
_geom_bond_atom_site_label_1
_geom_bond_atom_site_label_2
_ccdc_geom_bond_type
Cu5   Cu6   S    
O25   H21   S    
C29   C42   S    
C28   O8    A    
C1    O1    A    
C41   C42   A    
Cu2   O21   S    
C19   C20   A    
Cu4   O8    S    
C48   H1    S    
C32   O16   A    
Cu3   Cu4   S    
C40   H17   S    
C47   C53   S    
C33   C39   A    
C18   C24   A    
C36   C37   A    
Cu3   O3    S    
C37   C38   A    
O31   H39   S    
Cu5   O14   S    
C11   H7    S    
C52   H27   S    
C5    C6    A    
C3    O30   S    
C37   O27   S    
C15   C16   A    
C15   H9    S    
C4    C51   S    
C3    C48   S    
C23   O20   A    
Cu2   O19   S    
Cu3   O5    S    
C18   C19   A    
C34   O22   A    
C41   H18   S    
Cu6   O10   S    
Cu6   O15   S    
C11   C17   A    
C35   C36   A    
C8    C9    A    
C53   H31   S    
O26   H25   S    
C12   O19   A    
C9    C10   A    
C29   O9    A    
C8    H5    S    
C31   O14   A    
C1    O12   A    
C48   C50   S    
C32   O17   A    
C48   O29   S    
C35   H15   S    
C7    C30   S    
C21   C22   A    
C28   O7    A    
C12   O18   A    
C30   O13   A    
C44   C46   A    
C4    O32   S    
Cu4   O4    S    
C45   C47   S    
Cu3   O24   S    
Cu6   O17   S    
C38   H16   S    
C5    H3    S    
Cu1   Cu2   S    
C6    H4    S    
O28   H36   S    
C51   H23   S    
C52   H28   S    
C16   C17   A    
C18   H11   S    
C49   O31   S    
C26   O4    A    
C25   O2    A    
C21   H13   S    
Cu5   O9    S    
C44   H19   S    
C2    C4    S    
C43   C44   A    
Cu1   O1    S    
Cu5   O16   S    
C25   O24   A    
C47   O28   S    
C27   O5    A    
C23   C24   S    
C53   H32   S    
C34   O23   A    
C49   H20   S    
C19   H12   S    
C2    C26   S    
C29   O10   A    
C54   H34   S    
C45   O25   S    
C27   C46   S    
C40   C41   A    
C23   O21   A    
C31   O15   A    
O29   H37   S    
C22   C24   A    
C33   C52   S    
C42   C43   A    
C40   C46   A    
O32   H40   S    
Cu4   O6    S    
O27   H29   S    
C20   C32   S    
C54   H35   S    
Cu6   O13   S    
C31   C36   S    
C27   O6    A    
C1    C10   S    
C26   O3    A    
C12   C50   S    
C54   H33   S    
C6    C7    A    
C2    C47   S    
Cu1   O20   S    
Cu2   O23   S    
C9    H6    S    
C4    C49   S    
Cu3   O7    S    
C2    C3    S    
C5    C10   A    
C52   H26   S    
C25   C39   S    
C11   C13   A    
C38   C39   A    
C13   H8    S    
C45   C50   S    
Cu1   O22   S    
C33   C35   A    
C51   H24   S    
Cu5   O11   S    
Cu2   O12   S    
C7    C8    A    
Cu1   O18   S    
C3    H2    S    
C45   O26   S    
C16   H10   S    
C20   C21   A    
C49   C50   S    
C17   C34   S    
C51   H22   S    
O30   H38   S    
C14   C15   A    
C14   C28   S    
C30   O11   A    
C13   C14   A    
C22   H14   S    
C53   H30   S    
C43   C54   S    
Cu4   O2    S    
