data_mof_unit_53314.cif
_audit_creation_date              2012-10-26T20:31:21-0400
_audit_creation_method            fapswitch 2.2
_symmetry_space_group_name_H-M    P1
_symmetry_Int_Tables_number       1
_space_group_crystal_system       triclinic
_cell_length_a                    11.692966
_cell_length_b                    10.829016
_cell_length_c                    9.594095
_cell_angle_alpha                 90.058356
_cell_angle_beta                  89.291499
_cell_angle_gamma                 91.079211
_cell_volume                      1214.52738686

loop_
_atom_site_label
_atom_site_type_symbol
_atom_type_description
_atom_site_fract_x
_atom_site_fract_y
_atom_site_fract_z
_atom_type_partial_charge
C1    C     C_R   0.499117 0.262567 0.499684 0.543337
C2    C     C_R   0.415803 0.442756 0.077852 0.002068
C3    C     C_R   0.415411 0.439684 0.930020 0.096292
C4    C     C_R   0.284129 0.500270 0.500620 0.542450
C5    C     C_R   0.583778 0.562112 0.924794 0.163112
C6    C     C_3   0.707973 0.532479 0.918626 -0.272207
C7    C     C_3   0.707926 0.533207 0.076060 -0.271700
C8    C     C_R   0.502110 0.737561 0.499933 0.545192
C9    C     C_R   0.715879 0.500390 0.499355 0.547812
C10   C     C_1   0.162421 0.501101 0.501415 -0.039767
C11   C     C_1   0.059913 0.501445 0.500655 -0.057699
C12   C     C_R   0.505127 0.129553 0.496991 0.008945
C13   C     C_1   0.940121 0.501316 0.499198 -0.057421
C14   C     C_1   0.837607 0.500942 0.498431 -0.040287
C15   C     C_R   0.543916 0.065442 0.612098 0.007403
C16   C     C_R   0.622443 0.894938 0.856539 0.050432
C17   C     C_R   0.732704 0.871411 0.802507 -0.076736
C18   C     C_R   0.823712 0.851739 0.892515 -0.133929
C19   C     C_R   0.805669 0.853348 0.036629 -0.121109
C20   C     C_R   0.696419 0.873951 0.091179 -0.112004
C21   C     C_R   0.605361 0.894912 0.001698 -0.099149
C22   C     C_3   0.323251 0.356714 0.868656 -0.226721
C23   C     C_R   0.481577 0.063560 0.374172 -0.163330
C24   C     C_3   0.204358 0.413971 0.883350 -0.301986
C25   C     C_3   0.111737 0.328469 0.824037 -0.449557
C26   C     C_R   0.482660 0.934909 0.375008 -0.171201
C27   C     C_R   0.510184 0.871062 0.497430 -0.006424
C28   C     C_R   0.550295 0.938801 0.611612 0.002734
C29   C     C_3   0.523509 0.931008 0.764978 -0.122133
C30   C     C_3   0.510365 0.071167 0.762247 -0.259771
C31   C     C_R   0.583800 0.561895 0.072309 0.158884
Cu1   Cu    Cu3+1 0.499990 0.499980 0.640670 0.920989
Cu2   Cu    Cu3+1 0.500010 0.500020 0.359330 0.925379
H1    H     H_    0.456307 0.110424 0.280039 0.130109
H2    H     H_    0.723981 0.439422 0.874102 0.148124
H3    H     H_    0.749659 0.870569 0.691418 0.109937
H4    H     H_    0.908299 0.834898 0.850403 0.104807
H5    H     H_    0.876175 0.837640 0.106053 0.107335
H6    H     H_    0.682582 0.874476 0.202884 0.123190
H7    H     H_    0.521651 0.913646 0.045249 0.092076
H8    H     H_    0.130323 0.307322 0.712878 0.157262
H9    H     H_    0.106956 0.240751 0.883928 0.147596
H10   H     H_    0.027519 0.373916 0.831491 0.149408
H11   H     H_    0.183806 0.431105 0.995026 0.145131
H12   H     H_    0.760742 0.607905 0.871385 0.145003
H13   H     H_    0.202821 0.504100 0.828403 0.188904
H14   H     H_    0.340086 0.330195 0.760459 0.208417
H15   H     H_    0.322435 0.267408 0.926008 0.087176
H16   H     H_    0.724276 0.440735 0.121185 0.152242
H17   H     H_    0.759938 0.609748 0.121195 0.136873
H18   H     H_    0.456273 0.885729 0.282221 0.131531
H19   H     H_    0.442422 0.879136 0.787973 0.130078
H20   H     H_    0.420305 0.099885 0.777552 0.110171
H21   H     H_    0.574064 0.124561 0.824382 0.148620
H22   H     H_    0.350496 0.392936 0.137113 0.121769
N1    N     N_R   0.500710 0.500930 0.147930 -0.245615
N2    N     N_R   0.500710 0.500890 0.852020 -0.230796
O1    O     O_R   0.500000 0.319640 0.618810 -0.520753
O2    O     O_R   0.500010 0.319680 0.381230 -0.505673
O3    O     O_R   0.337190 0.499990 0.618790 -0.513400
O4    O     O_R   0.337200 0.500030 0.381210 -0.500322
O5    O     O_R   0.499990 0.680320 0.618770 -0.493159
O6    O     O_R   0.500000 0.680360 0.381190 -0.501233
O7    O     O_R   0.662800 0.499970 0.618790 -0.499004
O8    O     O_R   0.662810 0.500010 0.381210 -0.497699

loop_
_geom_bond_atom_site_label_1
_geom_bond_atom_site_label_2
_ccdc_geom_bond_type
C25   H9    S    
C22   H15   S    
C9    C14   S    
C24   C25   S    
C16   C21   A    
C17   H3    S    
C5    N2    A    
C31   N1    A    
C9    O7    A    
C11   C13   S    
C19   C20   A    
C12   C15   A    
Cu1   O1    S    
Cu2   O6    S    
C23   H1    S    
C24   H13   S    
Cu1   Cu2   S    
C4    O3    A    
Cu2   N1    S    
C22   H14   S    
C26   C27   A    
C7    H16   S    
Cu2   O8    S    
Cu2   O2    S    
C2    N1    A    
C26   H18   S    
C20   C21   A    
C30   H21   S    
C12   C23   A    
C25   H10   S    
C15   C28   A    
C29   C30   S    
C1    C12   S    
Cu1   N2    S    
C3    N2    A    
C28   C29   S    
C6    H12   S    
C18   H4    S    
C17   C18   A    
C6    C7    S    
C9    O8    A    
C2    H22   S    
C1    O2    A    
C5    C6    S    
C24   H11   S    
C30   H20   S    
C22   C24   S    
C7    C31   S    
C10   C11   T    
Cu1   O3    S    
C8    O6    A    
C4    C10   S    
C19   H5    S    
C6    H2    S    
Cu1   O7    S    
C15   C30   S    
Cu2   O4    S    
C18   C19   A    
C23   C26   A    
C25   H8    S    
C27   C28   A    
C8    C27   S    
C20   H6    S    
C3    C22   S    
C2    C3    A    
Cu1   O5    S    
C13   C14   T    
C16   C29   S    
C1    O1    A    
C4    O4    A    
C7    H17   S    
C8    O5    A    
C16   C17   A    
C5    C31   A    
C29   H19   S    
C21   H7    S    
