data_mof_unit_39201.cif
_audit_creation_date              2012-12-10T17:02:01-0500
_audit_creation_method            fapswitch 2.2
_symmetry_space_group_name_H-M    P1
_symmetry_Int_Tables_number       1
_space_group_crystal_system       triclinic
_cell_length_a                    10.775087
_cell_length_b                    11.044798
_cell_length_c                    9.882739
_cell_angle_alpha                 111.435939
_cell_angle_beta                  98.772248
_cell_angle_gamma                 90.499565
_cell_volume                      1079.30950103

loop_
_atom_site_label
_atom_site_type_symbol
_atom_type_description
_atom_site_fract_x
_atom_site_fract_y
_atom_site_fract_z
_atom_type_partial_charge
C1    C     C_R   0.490891 0.254074 0.440486 0.838603
C2    C     C_R   0.071862 0.401860 0.551705 0.095786
C3    C     C_R   0.128509 0.487730 0.498422 -0.097801
C4    C     C_R   0.055982 0.565698 0.438402 -0.185317
C5    C     C_R   0.927737 0.564646 0.436578 -0.176137
C6    C     C_R   0.870198 0.485741 0.494966 -0.100070
C7    C     C_2   0.485977 0.114491 0.407091 -0.345857
C8    C     C_2   0.502148 0.069741 0.516462 -0.161823
C9    C     C_2   0.513954 0.885606 0.593077 -0.349914
C10   C     C_2   0.497750 0.930457 0.483792 -0.148604
C11   C     C_2   0.500570 0.518073 0.082886 -0.036947
C12   C     C_R   0.262532 0.496035 0.499691 0.790583
C13   C     C_2   0.486239 0.494289 0.919848 -0.038768
C14   C     C_R   0.509073 0.745947 0.559543 0.864832
C15   C     C_R   0.737060 0.495360 0.498267 0.784109
C16   C     C_R   0.141779 0.313760 0.601209 -0.184126
C17   C     C_R   0.082771 0.228322 0.650022 -0.121783
C18   C     C_R   0.953521 0.227607 0.648758 -0.121333
C19   C     C_R   0.882382 0.312122 0.598336 -0.158682
C20   C     C_R   0.940358 0.400912 0.550036 0.094323
Cu1   Cu    Cu3+1 0.521920 0.521810 0.644910 0.934581
Cu2   Cu    Cu3+1 0.478080 0.478190 0.355090 0.965264
H1    H     H_    0.099450 0.629780 0.395410 0.158195
H2    H     H_    0.469200 0.047882 0.292512 0.156661
H3    H     H_    0.409911 0.426840 0.845623 0.143708
H4    H     H_    0.558245 0.602793 0.160839 0.185418
H5    H     H_    0.241663 0.307724 0.599935 0.143590
H6    H     H_    0.137312 0.161052 0.686988 0.159190
H7    H     H_    0.907845 0.159959 0.685021 0.142708
H8    H     H_    0.781769 0.304825 0.594805 0.151520
H9    H     H_    0.873425 0.628250 0.392765 0.170065
H10   H     H_    0.481044 0.864158 0.369001 0.178972
H11   H     H_    0.518837 0.136075 0.631245 0.186512
H12   H     H_    0.530732 0.952177 0.707680 0.155355
N1    N     N_2   0.445130 0.445430 0.137370 -0.244779
N2    N     N_2   0.554930 0.554500 0.862630 -0.240334
O1    O     O_R   0.511700 0.332330 0.577400 -0.597048
O2    O     O_R   0.474680 0.295500 0.332650 -0.573485
O3    O     O_R   0.338160 0.518420 0.622400 -0.590304
O4    O     O_R   0.301140 0.481590 0.377650 -0.569996
O5    O     O_R   0.525320 0.704500 0.667350 -0.596131
O6    O     O_R   0.488300 0.667670 0.422600 -0.589511
O7    O     O_R   0.698860 0.518410 0.622350 -0.593221
O8    O     O_R   0.661840 0.481580 0.377600 -0.563913
C21   C     C_2   0.666200 0.633962 0.945730 0.553203
H13   H     H_    0.694990 0.715135 0.918030 0.058158
O9    O     O_2   0.735531 0.606342 0.038614 -0.595066
C22   C     C_1   0.375002 0.331687 0.041987 0.431830
N3    N     N_1   0.316745 0.237006 0.962958 -0.362217

loop_
_geom_bond_atom_site_label_1
_geom_bond_atom_site_label_2
_ccdc_geom_bond_type
C12   O4    A    
C9    C14   S    
C2    C16   A    
C6    C20   A    
C9    C10   D    
C19   C20   A    
Cu1   O3    S    
C1    O1    A    
C14   O6    A    
Cu2   O4    S    
C17   H6    S    
C12   O3    A    
C11   N1    D    
C2    C3    A    
C15   O7    A    
C7    C8    D    
C18   H7    S    
C1    C7    S    
C21   H13   S    
Cu2   N1    S    
C11   C13   S    
C13   H3    S    
Cu2   O6    S    
C1    O2    A    
C16   H5    S    
C14   O5    A    
Cu1   O5    S    
N1    C22   S    
C22   N3    T    
C15   O8    A    
C17   C18   A    
C8    H11   S    
C21   O9    D    
C5    C6    A    
Cu2   O8    S    
C2    C20   A    
C3    C4    A    
Cu2   O2    S    
C10   H10   S    
N2    C21   S    
Cu1   O1    S    
C13   N2    D    
C8    C10   S    
C18   C19   A    
Cu1   N2    S    
C4    H1    S    
C4    C5    A    
C3    C12   S    
C11   H4    S    
C6    C15   S    
Cu1   Cu2   S    
C19   H8    S    
Cu1   O7    S    
C7    H2    S    
C9    H12   S    
C16   C17   A    
C5    H9    S    
