data_mof_unit_22736.cif
_audit_creation_date              2012-12-10T19:28:39-0500
_audit_creation_method            fapswitch 2.2
_symmetry_space_group_name_H-M    P1
_symmetry_Int_Tables_number       1
_space_group_crystal_system       triclinic
_cell_length_a                    27.736989
_cell_length_b                    10.476368
_cell_length_c                    9.764598
_cell_angle_alpha                 90.358028
_cell_angle_beta                  90.298235
_cell_angle_gamma                 90.351135
_cell_volume                      2837.27755613

loop_
_atom_site_label
_atom_site_type_symbol
_atom_type_description
_atom_site_fract_x
_atom_site_fract_y
_atom_site_fract_z
_atom_type_partial_charge
Br1   Br    Br    0.424740 0.293821 0.876346 -0.534259
Br2   Br    Br    0.575261 0.706174 0.123655 -0.534215
C1    C     C_R   0.499995 0.257549 0.499467 0.880700
C2    C     C_R   0.871654 0.389654 0.478317 -0.093727
C3    C     C_R   0.353470 0.496551 0.498115 -0.048571
C4    C     C_R   0.646529 0.503392 0.501879 -0.048558
C5    C     C_R   0.973589 0.384069 0.471952 -0.067986
C6    C     C_R   0.026410 0.615694 0.528108 -0.067982
C7    C     C_R   0.975409 0.612105 0.541813 0.088982
C8    C     C_R   0.024592 0.387656 0.458251 0.088987
C9    C     C_R   0.949310 0.499001 0.506676 0.003360
C10   C     C_R   0.050690 0.500763 0.493382 0.003364
C11   C     C_R   0.945948 0.268794 0.457998 0.495057
C12   C     C_R   0.500005 0.742451 0.500533 0.880709
C13   C     C_R   0.054050 0.730971 0.542056 0.495055
C14   C     C_R   0.895462 0.274848 0.457067 -0.234241
C15   C     C_R   0.104536 0.724921 0.542982 -0.234252
C16   C     C_R   0.406140 0.499296 0.499571 0.872190
C17   C     C_R   0.593859 0.500696 0.500427 0.872201
C18   C     C_R   0.050569 0.284238 0.401965 -0.157467
C19   C     C_R   0.949432 0.715522 0.598102 -0.157443
C20   C     C_3   0.539406 0.043594 0.566501 -0.179613
C21   C     C_3   0.460594 0.956406 0.433499 -0.179611
C22   C     C_3   0.539969 0.957735 0.437448 -0.149006
C23   C     C_R   0.101748 0.499418 0.489631 -0.056303
C24   C     C_3   0.460031 0.042265 0.562552 -0.149002
C25   C     C_3   0.500000 0.877565 0.501624 0.000396
C26   C     C_3   0.500000 0.122435 0.498376 0.000400
C27   C     C_3   0.499434 0.960701 0.630862 -0.117699
C28   C     C_3   0.500566 0.039299 0.369138 -0.117702
C29   C     C_3   0.511925 0.389090 0.048222 -0.156081
C30   C     C_3   0.488075 0.610910 0.951778 -0.156085
C31   C     C_3   0.542265 0.472321 0.951509 -0.160644
C32   C     C_3   0.457734 0.527679 0.048491 -0.160638
C33   C     C_3   0.469902 0.417575 0.951337 0.368242
C34   C     C_R   0.898252 0.500350 0.510419 -0.056305
C35   C     C_3   0.530098 0.582424 0.048663 0.368239
C36   C     C_R   0.176824 0.386766 0.454059 0.508563
C37   C     C_R   0.823178 0.613013 0.545968 0.508555
C38   C     C_R   0.178762 0.605258 0.523580 0.536394
C39   C     C_R   0.821237 0.394520 0.476451 0.536397
C40   C     C_R   0.278372 0.488821 0.371102 -0.094049
C41   C     C_R   0.721626 0.511100 0.628893 -0.094022
C42   C     C_R   0.328417 0.491157 0.372775 -0.208631
C43   C     C_R   0.671582 0.508836 0.627214 -0.208664
C44   C     C_R   0.327766 0.498717 0.621634 -0.183063
C45   C     C_R   0.126411 0.387841 0.450779 0.000793
C46   C     C_R   0.672235 0.501105 0.378365 -0.183073
C47   C     C_R   0.277673 0.496512 0.619547 -0.100208
C48   C     C_R   0.722328 0.503240 0.380456 -0.100206
C49   C     C_R   0.253037 0.491842 0.494339 0.307902
C50   C     C_R   0.746963 0.507960 0.505664 0.307863
C51   C     C_3   0.951179 0.062192 0.371535 -0.322202
C52   C     C_3   0.048822 0.937582 0.628498 -0.322200
C53   C     C_R   0.873590 0.611929 0.549266 0.000794
C54   C     C_R   0.100443 0.282183 0.403614 -0.182277
C55   C     C_R   0.899558 0.717582 0.596444 -0.182265
C56   C     C_R   0.128345 0.610118 0.521727 -0.093725
H1    H     H_    0.346248 0.502690 0.719560 0.186569
H2    H     H_    0.478314 0.704295 0.906585 0.153691
H3    H     H_    0.257921 0.499080 0.714891 0.144060
H4    H     H_    0.742081 0.500590 0.285118 0.144077
H5    H     H_    0.118560 0.198522 0.363885 0.194836
H6    H     H_    0.881441 0.801244 0.636173 0.194839
H7    H     H_    0.652626 0.510974 0.723881 0.167199
H8    H     H_    0.347372 0.489115 0.276103 0.167180
H9    H     H_    0.740809 0.514070 0.725757 0.144246
H10   H     H_    0.259187 0.485899 0.274237 0.144219
H11   H     H_    0.874552 0.187730 0.447487 0.202315
H12   H     H_    0.653752 0.497089 0.280442 0.186527
H13   H     H_    0.125445 0.812041 0.552560 0.202313
H14   H     H_    0.033490 0.205330 0.349852 0.198519
H15   H     H_    0.966511 0.794426 0.650224 0.198513
H16   H     H_    0.572466 0.918377 0.386900 0.181294
H17   H     H_    0.427534 0.081623 0.613100 0.181292
H18   H     H_    0.942640 0.107718 0.271474 0.147800
H19   H     H_    0.919481 0.008706 0.410673 0.193625
H20   H     H_    0.979990 0.991589 0.352063 0.238921
H21   H     H_    0.080512 0.991078 0.589327 0.193630
H22   H     H_    0.057374 0.892066 0.728556 0.147801
H23   H     H_    0.571421 0.084095 0.620356 0.154041
H24   H     H_    0.020008 0.008174 0.647991 0.238918
H25   H     H_    0.428579 0.915905 0.379643 0.154040
H26   H     H_    0.498969 0.924624 0.737537 0.161383
H27   H     H_    0.501031 0.075376 0.262462 0.161383
H28   H     H_    0.577846 0.449716 0.906144 0.151679
H29   H     H_    0.422154 0.550284 0.093856 0.151675
H30   H     H_    0.521686 0.295705 0.093415 0.153689
N1    N     N_R   0.201708 0.494119 0.492063 -0.357801
N2    N     N_R   0.798292 0.505665 0.507956 -0.357795
N3    N     N_3   0.499960 0.500030 0.863290 -0.104174
N4    N     N_3   0.500040 0.499970 0.136710 -0.104176
O1    O     O_R   0.500000 0.313960 0.616610 -0.583861
O2    O     O_2   0.799157 0.720288 0.579746 -0.548100
O3    O     O_2   0.795234 0.288996 0.444461 -0.551434
O4    O     O_2   0.204764 0.710784 0.555568 -0.551427
O5    O     O_3   0.968007 0.150583 0.471297 -0.627434
O6    O     O_3   0.031989 0.849179 0.528756 -0.627436
O7    O     O_R   0.500000 0.686040 0.383390 -0.583862
O8    O     O_R   0.500020 0.313950 0.383350 -0.631291
O9    O     O_R   0.499980 0.686050 0.616650 -0.631287
O10   O     O_R   0.428750 0.500030 0.616610 -0.591715
O11   O     O_R   0.571250 0.499970 0.383390 -0.591714
O12   O     O_R   0.428770 0.500020 0.383360 -0.628207
O13   O     O_R   0.571230 0.499980 0.616640 -0.628211
O14   O     O_2   0.200846 0.279497 0.420269 -0.548089
Zn1   Zn    Zn3+2 0.499990 0.500010 0.655740 0.987288
Zn2   Zn    Zn3+2 0.500010 0.499990 0.344260 0.987289

loop_
_geom_bond_atom_site_label_1
_geom_bond_atom_site_label_2
_ccdc_geom_bond_type
O9    Zn1   S    
C5    C8    A    
C2    C34   A    
C2    C14   A    
C4    C43   A    
C44   H1    S    
C25   C27   S    
C50   N2    S    
C22   C25   S    
C52   H24   S    
C18   C54   A    
C7    C19   A    
C12   O7    A    
C5    C9    A    
O7    Zn2   S    
O13   Zn1   S    
C44   C47   A    
C21   H25   S    
C9    C34   A    
C20   C27   S    
C31   N3    S    
C41   C50   A    
C30   N3    S    
C2    C39   A    
C19   H15   S    
C32   C33   S    
C16   O10   A    
C21   C24   S    
C42   H8    S    
C1    O8    A    
N4    Zn2   S    
C37   C53   A    
C8    C18   A    
C6    C7    A    
C47   C49   A    
C48   C50   A    
C29   C31   S    
O11   Zn2   S    
C21   C25   S    
C38   N1    A    
C23   C45   A    
C37   N2    A    
C15   C56   A    
C46   C48   A    
C39   N2    A    
C20   C26   S    
C40   H10   S    
C40   C42   A    
C38   O4    S    
C8    C10   A    
C52   H22   S    
O8    Zn2   S    
C47   H3    S    
C20   H23   S    
N3    Zn1   S    
C38   C56   A    
C27   H26   S    
C12   O9    A    
C3    C16   S    
C51   O5    S    
C17   O11   A    
C31   C35   S    
C30   C32   S    
C36   O14   S    
C51   H19   S    
C31   H28   S    
C21   C28   S    
C37   O2    S    
C19   C55   A    
C4    C17   S    
C41   C43   A    
C36   N1    A    
C6    C10   A    
C24   H17   S    
C54   H5    S    
O10   Zn1   S    
C1    O1    A    
C16   O12   A    
C30   C35   S    
C28   H27   S    
C7    C9    A    
C36   C45   A    
C4    C46   A    
C17   O13   A    
C3    C42   A    
C15   H13   S    
C6    C13   A    
C53   C55   A    
C43   H7    S    
C12   C25   S    
C20   C22   S    
C51   H18   S    
C23   C56   A    
C30   H2    S    
C13   O6    S    
O12   Zn2   S    
Br1   C33   S    
C55   H6    S    
C52   H21   S    
C13   C15   A    
C1    C26   S    
C29   H30   S    
C35   N4    S    
C52   O6    S    
C14   H11   S    
C46   H12   S    
C3    C44   A    
C40   C49   A    
C24   C26   S    
C10   C23   A    
C26   C28   S    
C51   H20   S    
C34   C53   A    
O1    Zn1   S    
Br2   C35   S    
C22   H16   S    
C39   O3    S    
C48   H4    S    
C29   C33   S    
C32   H29   S    
C11   O5    S    
C22   C28   S    
C5    C11   A    
C24   C27   S    
C41   H9    S    
C29   N4    S    
C11   C14   A    
C18   H14   S    
C49   N1    S    
C45   C54   A    
C32   N4    S    
C33   N3    S    
