data_mof_unit_42947.cif
_audit_creation_date              2012-12-11T15:29:37-0500
_audit_creation_method            fapswitch 2.2
_symmetry_space_group_name_H-M    P1
_symmetry_Int_Tables_number       1
_space_group_crystal_system       triclinic
_cell_length_a                    21.439498
_cell_length_b                    7.240566
_cell_length_c                    14.807775
_cell_angle_alpha                 90.001029
_cell_angle_beta                  74.172795
_cell_angle_gamma                 89.999608
_cell_volume                      2211.52577328

loop_
_atom_site_label
_atom_site_type_symbol
_atom_type_description
_atom_site_fract_x
_atom_site_fract_y
_atom_site_fract_z
_atom_type_partial_charge
O1    O     O_R   0.464160 0.506670 0.130070 -0.533083
O2    O     O_R   0.535840 0.006670 0.869930 -0.533108
O3    O     O_R   0.589710 0.179080 0.006710 -0.551132
O4    O     O_R   0.410290 0.679080 0.993290 -0.551123
C1    C     C_R   0.616502 0.344780 0.001212 0.719192
C2    C     C_R   0.383499 0.844780 0.998787 0.719174
O5    O     O_R   0.467940 0.177220 0.138010 -0.522822
O6    O     O_R   0.532060 0.677220 0.861990 -0.522807
O7    O     O_R   0.413200 0.002810 0.002170 -0.512999
O8    O     O_R   0.586800 0.502810 0.997830 -0.512984
C3    C     C_R   0.456625 0.345946 0.174546 0.808612
C4    C     C_R   0.543374 0.845943 0.825453 0.808632
O9    O     O_3   0.482180 0.337850 0.955280 -0.375060
O10   O     O_3   0.517820 0.837850 0.044720 -0.375046
V1    V     V_3+5 0.503310 0.064600 0.008300 1.601513
V2    V     V_3+5 0.496690 0.564600 0.991700 1.601558
C5    C     C_R   0.567770 0.858142 0.723012 -0.201102
C6    C     C_R   0.432229 0.358155 0.276987 -0.201111
C7    C     C_R   0.923571 0.860623 0.275118 -0.088053
C8    C     C_R   0.076430 0.360602 0.724880 -0.088064
C9    C     C_R   0.555964 0.965186 0.573257 0.437458
C10   C     C_R   0.444029 0.465249 0.426737 0.437435
C11   C     C_R   0.528686 0.928016 0.668897 0.342378
C12   C     C_R   0.471306 0.428106 0.331094 0.342357
C13   C     C_R   0.632696 0.816088 0.680806 -0.178860
C14   C     C_R   0.367311 0.316017 0.319198 -0.178846
C15   C     C_R   0.660551 0.839982 0.583659 0.062535
C16   C     C_R   0.339454 0.339933 0.416345 0.062572
C17   C     C_R   0.622617 0.930527 0.531753 -0.019434
C18   C     C_R   0.377381 0.430537 0.468245 -0.019417
C19   C     C_R   0.726985 0.795587 0.539053 0.013626
C20   C     C_R   0.273023 0.295507 0.460955 0.013637
C21   C     C_R   0.756838 0.868259 0.447687 0.034701
C22   C     C_R   0.243165 0.368209 0.552315 0.034702
C23   C     C_R   0.719465 0.979540 0.404513 -0.088805
C24   C     C_R   0.280530 0.479538 0.595481 -0.088801
C25   C     C_R   0.653196 0.999128 0.442370 -0.052590
C26   C     C_R   0.346797 0.499153 0.557624 -0.052601
C27   C     C_R   0.765550 0.684323 0.581965 0.387067
C28   C     C_R   0.234465 0.184197 0.418052 0.387057
C29   C     C_R   0.832813 0.688718 0.548353 -0.205304
C30   C     C_R   0.167202 0.188569 0.451665 -0.205290
C31   C     C_R   0.862698 0.769312 0.461899 0.023134
C32   C     C_R   0.137310 0.269200 0.538109 0.023126
C33   C     C_R   0.824364 0.837793 0.405018 0.023183
C34   C     C_R   0.175641 0.337732 0.594985 0.023186
C35   C     C_R   0.930468 0.766212 0.428356 -0.125694
C36   C     C_R   0.069541 0.266097 0.571649 -0.125691
C37   C     C_R   0.960728 0.818010 0.336425 -0.238822
C38   C     C_R   0.039276 0.317940 0.663574 -0.238825
C39   C     C_R   0.855309 0.863696 0.307616 0.309271
C40   C     C_R   0.144692 0.363681 0.692383 0.309280
H1    H     H_    0.627210 0.081346 0.403514 0.199855
H2    H     H_    0.372777 0.581412 0.596475 0.199881
H3    H     H_    0.013098 0.810740 0.310996 0.120971
H4    H     H_    0.986907 0.310665 0.689001 0.120977
H5    H     H_    0.861754 0.614243 0.586059 0.158837
H6    H     H_    0.138265 0.114058 0.413964 0.158834
H7    H     H_    0.662091 0.780893 0.726773 0.224640
H8    H     H_    0.337921 0.280751 0.273233 0.224631
H9    H     H_    0.741131 0.060012 0.342656 0.178258
H10   H     H_    0.258858 0.560033 0.657329 0.178261
C41   C     C_3   0.228475 0.762571 0.913239 -0.306994
C42   C     C_3   0.771517 0.262734 0.086803 -0.307095
H11   H     H_    0.211368 0.617652 0.913167 0.212828
H12   H     H_    0.788627 0.117837 0.086961 0.212820
C43   C     C_3   0.301331 0.762018 0.911106 -0.391140
C44   C     C_3   0.698665 0.262106 0.088912 -0.391128
H13   H     H_    0.329559 0.836822 0.847623 0.208297
H14   H     H_    0.670421 0.336929 0.152381 0.208288
H15   H     H_    0.319274 0.617067 0.905054 0.193662
H16   H     H_    0.680736 0.117140 0.094977 0.193649
H17   H     H_    0.283675 0.601724 0.083574 0.187528
H18   H     H_    0.716303 0.101658 0.916462 0.187513
C45   C     C_3   0.196055 0.762035 0.089627 -0.323646
C46   C     C_3   0.803940 0.261878 0.910415 -0.323623
C47   C     C_3   0.215264 0.062475 0.001192 -0.319874
C48   C     C_3   0.784753 0.562477 0.998716 -0.319871
C49   C     C_3   0.187189 0.864034 0.001682 0.022962
C50   C     C_3   0.812812 0.364036 0.998316 0.022994
H19   H     H_    0.185355 0.141580 0.062175 0.189582
H20   H     H_    0.814660 0.641432 0.937674 0.189556
C51   C     C_3   0.312002 0.854497 0.000592 0.002792
C52   C     C_3   0.687998 0.354498 0.999405 0.002802
C53   C     C_3   0.268989 0.749434 0.086896 -0.265484
C54   C     C_3   0.731008 0.249352 0.913126 -0.265555
C55   C     C_3   0.286957 0.058401 0.003443 0.267624
C56   C     C_3   0.713052 0.558400 0.996510 0.267653
H21   H     H_    0.316525 0.133338 0.940632 0.126561
H22   H     H_    0.683500 0.633374 0.059321 0.126559
H23   H     H_    0.169067 0.836497 0.154221 0.161899
H24   H     H_    0.830953 0.336181 0.845786 0.161813
H25   H     H_    0.276293 0.806058 0.152985 0.227225
H26   H     H_    0.723722 0.305958 0.847022 0.227215
O11   O     O_R   0.913210 0.208550 0.002110 -0.535784
O12   O     O_R   0.086790 0.708550 0.997890 -0.535779
O13   O     O_R   0.032060 0.539960 0.861980 -0.540663
O14   O     O_R   0.967940 0.039960 0.138020 -0.540671
C57   C     C_R   0.044380 0.372281 0.825521 0.766994
C58   C     C_R   0.955619 0.872286 0.174478 0.766995
O15   O     O_R   0.910290 0.538020 0.993280 -0.539346
O16   O     O_R   0.089710 0.038020 0.006720 -0.539347
O17   O     O_R   0.964160 0.712340 0.130090 -0.526132
O18   O     O_R   0.035840 0.212340 0.869910 -0.526138
C59   C     C_R   0.884017 0.370123 0.997845 0.669151
C60   C     C_R   0.115983 0.870122 0.002154 0.669156
O19   O     O_3   0.017820 0.379210 0.044690 -0.379014
O20   O     O_3   0.982180 0.879210 0.955310 -0.379019
V3    V     V_3+5 0.996690 0.652500 0.991710 1.482298
V4    V     V_3+5 0.003310 0.152500 0.008290 1.482291
H27   H     H_    0.960015 0.718400 0.472530 0.128581
H28   H     H_    0.039996 0.218249 0.527478 0.128584
H29   H     H_    0.222397 0.830322 0.848707 0.177188
H30   H     H_    0.777582 0.330651 0.151303 0.177222
H31   H     H_    0.175435 0.620289 0.093430 0.162084
H32   H     H_    0.824529 0.120103 0.906696 0.162136
H33   H     H_    0.211919 0.136845 0.936964 0.185393
H34   H     H_    0.788124 0.637003 0.062890 0.185366
Cl1   Cl    Cl    0.811673 0.848527 0.221730 -0.744490
Cl2   Cl    Cl    0.188327 0.348577 0.778273 -0.744509
Cl3   Cl    Cl    0.294958 0.184717 0.104301 -0.690263
Cl4   Cl    Cl    0.705025 0.684664 0.895655 -0.690211
Cl5   Cl    Cl    0.506066 0.059106 0.507154 -0.501716
Cl6   Cl    Cl    0.493923 0.559187 0.492842 -0.501726
Cl7   Cl    Cl    0.446240 0.978764 0.722181 -0.613389
Cl8   Cl    Cl    0.553741 0.478976 0.277799 -0.613348
Cl9   Cl    Cl    0.733883 0.507917 0.664076 -0.646136
Cl10  Cl    Cl    0.266142 0.007780 0.335947 -0.646227

loop_
_geom_bond_atom_site_label_1
_geom_bond_atom_site_label_2
_ccdc_geom_bond_type
C51   C55   S    
C41   H11   S    
C3    C6    S    
C43   C51   S    
O14   V4    S    
C15   C17   A    
C21   C33   A    
O1    C3    A    
O2    C4    A    
C30   H6    S    
C2    O7    A    
C35   C37   A    
C41   C49   S    
O5    C3    A    
C5    C11   A    
C45   C49   S    
C6    C12   A    
C42   C44   S    
C23   C25   A    
C52   C54   S    
C47   H33   S    
C48   C50   S    
C33   C39   A    
O15   V3    S    
C28   Cl10  S    
C34   C40   A    
O20   V3    S    
C18   C26   A    
C48   H20   S    
C8    C38   A    
O11   C59   A    
C46   H32   S    
C53   H25   S    
C45   C53   S    
C6    C14   A    
C4    C5    S    
C39   Cl1   S    
C19   C21   A    
C22   C34   A    
C54   H26   S    
C29   C31   A    
C43   H15   S    
C44   H16   S    
C11   Cl7   S    
C25   H1    S    
C36   C38   A    
C57   O18   A    
O6    V2    S    
C12   Cl8   S    
C42   C50   S    
C30   C32   A    
C24   H10   S    
O13   C57   A    
C32   C34   A    
C47   C49   S    
O15   C59   A    
C41   C43   S    
C27   Cl9   S    
C15   C19   A    
C44   C52   S    
C52   C56   S    
C16   C20   A    
C42   H30   S    
C27   C29   A    
C55   Cl3   S    
C1    C52   S    
O5    V1    S    
C37   H3    S    
C9    C17   A    
C50   C59   S    
C58   O17   A    
C38   H4    S    
C49   C60   S    
C43   H13   S    
C42   H12   S    
O4    V2    S    
O13   V3    S    
C7    C37   A    
C48   H34   S    
C26   H2    S    
C47   H19   S    
O6    C4    A    
C23   H9    S    
O1    V2    S    
H18   C54   S    
O2    V1    S    
C31   C33   A    
H17   C53   S    
C46   H24   S    
C40   Cl2   S    
O4    C2    A    
C36   H28   S    
C56   H22   S    
O14   C58   A    
C9    C11   A    
O19   V4    S    
C10   C12   A    
O16   V4    S    
C45   H31   S    
C24   C26   A    
C46   C54   S    
O3    V1    S    
C48   C56   S    
O12   C60   A    
C2    C51   S    
C10   C18   A    
C56   Cl4   S    
C51   C53   S    
C46   C50   S    
O3    C1    A    
O11   V4    S    
C7    C58   S    
C10   Cl6   S    
C45   H23   S    
C13   C15   A    
O12   V3    S    
C14   C16   A    
O17   V3    S    
C5    C13   A    
C16   C18   A    
O7    V1    S    
C29   H5    S    
C1    O8    A    
C8    C40   A    
O8    V2    S    
O18   V4    S    
C8    C57   S    
C31   C35   A    
C35   H27   S    
C28   C30   A    
C21   C23   A    
C19   C27   A    
O16   C60   A    
C22   C24   A    
C20   C28   A    
C41   H29   S    
C7    C39   A    
C47   C55   S    
C44   H14   S    
O9    V2    S    
C17   C25   A    
C55   H21   S    
O10   V1    S    
C9    Cl5   S    
C13   H7    S    
C14   H8    S    
C32   C36   A    
C20   C22   A    
