data_mof_unit_14079.cif
_audit_creation_date              2012-12-11T14:52:42-0500
_audit_creation_method            fapswitch 2.2
_symmetry_space_group_name_H-M    P1
_symmetry_Int_Tables_number       1
_space_group_crystal_system       triclinic
_cell_length_a                    18.657512
_cell_length_b                    11.215847
_cell_length_c                    18.622607
_cell_angle_alpha                 89.829094
_cell_angle_beta                  90.431376
_cell_angle_gamma                 89.656263
_cell_volume                      3896.76457312

loop_
_atom_site_label
_atom_site_type_symbol
_atom_type_description
_atom_site_fract_x
_atom_site_fract_y
_atom_site_fract_z
_atom_type_partial_charge
C1    C     C_R   0.269346 0.044825 0.851584 0.549733
C2    C     C_R   0.687096 0.563900 0.033151 0.236089
C3    C     C_3   0.995278 0.338181 0.074516 0.050114
C4    C     C_2   0.166100 0.784117 0.401636 0.246652
C5    C     C_2   0.832561 0.784114 0.597886 0.246891
C6    C     C_2   0.666059 0.284081 0.401663 0.246458
C7    C     C_2   0.332587 0.284091 0.597872 0.247394
C8    C     C_3   0.427539 0.497140 0.940532 -0.019595
C9    C     C_3   0.472147 0.432142 0.884271 -0.341529
C10   C     C_3   0.573782 0.505438 0.063575 -0.027517
C11   C     C_3   0.529604 0.451828 0.124821 -0.327168
C12   C     C_3   0.926782 0.998033 0.940047 -0.013452
C13   C     C_R   0.809751 0.052177 0.966214 0.232904
C14   C     C_3   0.972719 0.933933 0.884578 -0.335011
C15   C     C_3   0.073008 0.005260 0.061959 -0.026537
C16   C     C_3   0.028977 0.948444 0.122124 -0.335608
C17   C     C_2   0.180908 0.773481 0.101362 0.342619
C18   C     C_2   0.801095 0.780663 0.889918 0.349967
C19   C     C_2   0.671952 0.264325 0.092519 0.334055
C20   C     C_2   0.304734 0.281704 0.891590 0.352768
C21   C     C_2   0.138332 0.739646 0.949641 0.204003
C22   C     C_2   0.852825 0.756043 0.043239 0.210139
C23   C     C_2   0.631675 0.223544 0.943338 0.189835
C24   C     C_R   0.186120 0.067000 0.032195 0.235238
C25   C     C_2   0.355548 0.250940 0.044399 0.200793
C26   C     C_2   0.491519 0.059364 0.423518 0.300068
C27   C     C_2   0.507634 0.059048 0.575774 0.301402
C28   C     C_2   0.991516 0.559362 0.423513 0.299608
C29   C     C_2   0.007620 0.559052 0.575768 0.302122
C30   C     C_R   0.309630 0.542346 0.042024 -0.164888
C31   C     C_R   0.694085 0.532603 0.961076 -0.160886
C32   C     C_R   0.808995 0.040827 0.041122 -0.169992
C33   C     C_R   0.191612 0.039284 0.959370 -0.162475
C34   C     C_R   0.258588 0.600719 0.083244 -0.023038
C35   C     C_R   0.740091 0.596350 0.917049 -0.029335
C36   C     C_R   0.755971 0.097235 0.080756 -0.020877
C37   C     C_R   0.730545 0.045872 0.148421 0.571794
C38   C     C_R   0.239800 0.099817 0.916272 -0.026965
C39   C     C_R   0.218073 0.691814 0.052958 0.002007
C40   C     C_R   0.772679 0.697473 0.943018 0.018741
C41   C     C_R   0.711140 0.179827 0.047360 -0.005755
C42   C     C_R   0.274770 0.197962 0.943474 0.017782
C43   C     C_R   0.208568 0.695569 0.978667 -0.069955
C44   C     C_R   0.783057 0.708823 0.017164 -0.063847
C45   C     C_R   0.700542 0.174652 0.973232 -0.069342
C46   C     C_R   0.285090 0.206887 0.017764 -0.064368
C47   C     C_R   0.261877 0.639949 0.935543 0.012944
C48   C     C_R   0.769685 0.543478 0.852066 0.553777
C49   C     C_R   0.734158 0.649093 0.063144 -0.008649
C50   C     C_R   0.753815 0.115535 0.931393 0.024219
C51   C     C_R   0.234814 0.148696 0.063064 -0.003974
C52   C     C_R   0.500052 0.726100 0.536507 -0.153919
C53   C     C_R   0.499833 0.726221 0.463551 -0.153373
C54   C     C_R   0.000044 0.226101 0.536504 -0.153834
C55   C     C_R   0.999825 0.226221 0.463548 -0.153504
C56   C     C_R   0.503037 0.833408 0.425348 -0.005831
C57   C     C_R   0.496685 0.833216 0.574494 -0.007823
C58   C     C_R   0.003032 0.333408 0.425345 -0.005980
C59   C     C_R   0.230760 0.545990 0.148785 0.567489
C60   C     C_R   0.996679 0.333217 0.574491 -0.007457
C61   C     C_R   0.499591 0.943897 0.462108 0.004606
C62   C     C_R   0.499851 0.943786 0.537479 0.003027
C63   C     C_R   0.999585 0.443897 0.462104 0.004651
C64   C     C_R   0.999843 0.443788 0.537475 0.003013
C65   C     C_R   0.439718 0.818761 0.862188 0.537258
C66   C     C_R   0.527363 0.823250 0.146371 0.538787
C67   C     C_R   0.939608 0.318813 0.862151 0.550343
C68   C     C_R   0.027147 0.323192 0.146474 0.538095
C69   C     C_R   0.225571 0.736612 0.517317 -0.060627
C70   C     C_3   0.514691 0.751312 0.973905 -0.155857
C71   C     C_R   0.773436 0.737081 0.482329 -0.060374
C72   C     C_R   0.725559 0.236595 0.517327 -0.060404
C73   C     C_R   0.273445 0.237072 0.482324 -0.060312
C74   C     C_R   0.217479 0.711234 0.444635 0.023666
C75   C     C_R   0.781576 0.711637 0.555088 0.023960
C76   C     C_R   0.717460 0.211214 0.444647 0.023044
C77   C     C_R   0.281588 0.211626 0.555082 0.023902
C78   C     C_R   0.257483 0.615101 0.415092 -0.013501
C79   C     C_R   0.742116 0.615610 0.584854 -0.012034
C80   C     C_R   0.757474 0.115096 0.415098 -0.014158
C81   C     C_3   0.460857 0.734463 0.036207 -0.157797
C82   C     C_R   0.242121 0.115610 0.584851 -0.012099
C83   C     C_R   0.314910 0.566226 0.454393 -0.149547
C84   C     C_R   0.684997 0.567017 0.545675 -0.149537
C85   C     C_R   0.814909 0.066235 0.454393 -0.149814
C86   C     C_R   0.184994 0.067032 0.545677 -0.149461
C87   C     C_R   0.324358 0.596657 0.526033 -0.128252
C88   C     C_R   0.675572 0.597297 0.473912 -0.129620
C89   C     C_R   0.824360 0.096668 0.526033 -0.128239
C90   C     C_R   0.175567 0.097316 0.473915 -0.129410
C91   C     C_R   0.275519 0.674054 0.559052 -0.006396
C92   C     C_3   0.013757 0.250602 0.974007 -0.157075
C93   C     C_R   0.724028 0.674504 0.440733 -0.005637
C94   C     C_R   0.775516 0.174051 0.559055 -0.005283
C95   C     C_R   0.224028 0.174508 0.440732 -0.005651
C96   C     C_R   0.271093 0.675814 0.860191 0.562396
C97   C     C_R   0.727320 0.680756 0.139873 0.570839
C98   C     C_R   0.761163 0.142529 0.854447 0.611097
C99   C     C_R   0.227598 0.180115 0.139829 0.574337
C100  C     C_R   0.269193 0.051050 0.648264 0.535403
C101  C     C_R   0.730769 0.051031 0.351722 0.534231
C102  C     C_R   0.769192 0.551052 0.648266 0.534790
C103  C     C_3   0.959787 0.234521 0.036188 -0.159769
C104  C     C_R   0.230772 0.551035 0.351719 0.534837
C105  C     C_R   0.470562 0.823780 0.647497 0.544404
C106  C     C_R   0.529367 0.823933 0.352442 0.532419
C107  C     C_R   0.970560 0.323780 0.647496 0.544599
C108  C     C_R   0.029366 0.323933 0.352442 0.531716
C109  C     C_R   0.276082 0.691823 0.636545 0.570402
C110  C     C_R   0.723723 0.691788 0.363186 0.569420
C111  C     C_R   0.776082 0.191822 0.636546 0.568893
C112  C     C_R   0.223723 0.191789 0.363186 0.569520
C113  C     C_3   0.442291 0.926834 0.039564 -0.079448
C114  C     C_R   0.313390 0.563545 0.968097 0.237984
C115  C     C_3   0.494008 0.942969 0.975339 -0.047788
C116  C     C_3   0.942229 0.427237 0.039601 -0.082725
C117  C     C_3   0.994361 0.442855 0.975595 -0.052171
C118  C     C_3   0.407282 0.820570 0.000131 -0.146157
C119  C     C_3   0.548431 0.857831 0.011994 -0.099607
C120  C     C_3   0.906716 0.321309 0.999924 -0.143249
C121  C     C_3   0.048044 0.356549 0.012304 -0.099958
C122  C     C_3   0.460347 0.834197 0.938158 0.028695
C123  C     C_3   0.495873 0.838570 0.074362 0.050506
C124  C     C_3   0.960124 0.334525 0.938122 0.033351
Cr1   Cr    Cr6+3 0.229630 0.835900 0.747350 1.019060
Cr2   Cr    Cr6+3 0.614200 0.677120 0.250660 1.037834
Cr3   Cr    Cr6+3 0.885800 0.177120 0.749340 1.036051
Cr4   Cr    Cr6+3 0.114200 0.177120 0.250660 1.040031
Cr5   Cr    Cr6+3 0.770370 0.835900 0.252650 1.017655
Cr6   Cr    Cr6+3 0.729630 0.335900 0.747350 1.018665
Cr7   Cr    Cr6+3 0.270370 0.335900 0.252650 1.018590
Cr8   Cr    Cr6+3 0.387410 0.989850 0.750850 1.020130
Cr9   Cr    Cr6+3 0.612590 0.989850 0.249150 1.031020
Cr10  Cr    Cr6+3 0.887410 0.489850 0.750850 1.023310
Cr11  Cr    Cr6+3 0.112590 0.489850 0.249150 1.026815
Cr12  Cr    Cr6+3 0.385800 0.677120 0.749340 1.040564
H1    H     H_    0.348686 0.809045 0.994485 0.104275
H2    H     H_    0.651047 0.499218 0.568724 0.155907
H3    H     H_    0.849219 0.998333 0.431503 0.156701
H4    H     H_    0.151040 0.999240 0.568728 0.155831
H5    H     H_    0.367061 0.554380 0.556476 0.189377
H6    H     H_    0.633283 0.554905 0.443533 0.189635
H7    H     H_    0.867070 0.054403 0.556472 0.189553
H8    H     H_    0.133270 0.054938 0.443539 0.189624
H9    H     H_    0.412903 0.998378 0.068220 0.167436
H10   H     H_    0.504848 0.026514 0.946024 0.216441
H11   H     H_    0.913102 0.499312 0.068070 0.164783
H12   H     H_    0.606916 0.873754 0.017776 0.123864
H13   H     H_    0.007761 0.527916 0.948548 0.204520
H14   H     H_    0.547414 0.683025 0.945813 0.118740
H15   H     H_    0.442749 0.652022 0.062719 0.107017
H16   H     H_    0.045828 0.181596 0.945832 0.117985
H17   H     H_    0.941452 0.152405 0.062934 0.106261
H18   H     H_    0.343919 0.477486 0.067007 0.107771
H19   H     H_    0.667034 0.455215 0.940992 0.113666
H20   H     H_    0.847384 0.985382 0.068507 0.105263
H21   H     H_    0.161467 0.967062 0.937537 0.109942
H22   H     H_    0.499031 0.639780 0.562774 0.162598
H23   H     H_    0.848174 0.307643 0.993519 0.112123
H24   H     H_    0.501060 0.639996 0.437464 0.163024
H25   H     H_    0.999023 0.139781 0.562771 0.162619
H26   H     H_    0.001051 0.139995 0.437461 0.162991
H27   H     H_    0.174205 0.796375 0.344445 0.148446
H28   H     H_    0.824186 0.796743 0.654977 0.143455
H29   H     H_    0.674149 0.296350 0.344471 0.148414
H30   H     H_    0.324222 0.296725 0.654964 0.145173
H31   H     H_    0.440102 0.461312 0.994588 0.142182
H32   H     H_    0.441958 0.589263 0.935605 0.166931
H33   H     H_    0.527595 0.467655 0.884283 0.086848
H34   H     H_    0.106637 0.371257 0.018204 0.125019
H35   H     H_    0.475881 0.335577 0.896480 0.187044
H36   H     H_    0.448658 0.445606 0.829837 0.179635
H37   H     H_    0.559994 0.461248 0.012257 0.121156
H38   H     H_    0.561587 0.600029 0.061245 0.165087
H39   H     H_    0.478684 0.501433 0.131883 0.092785
H40   H     H_    0.514539 0.358371 0.113166 0.136627
H41   H     H_    0.559811 0.455292 0.176394 0.205798
H42   H     H_    0.940631 0.965286 0.994416 0.144158
H43   H     H_    0.937554 0.091683 0.933924 0.170061
H44   H     H_    0.028177 0.969168 0.886065 0.083567
H45   H     H_    0.191885 0.803604 0.541960 0.173544
H46   H     H_    0.975350 0.836960 0.896041 0.188704
H47   H     H_    0.950508 0.948641 0.829727 0.176472
H48   H     H_    0.059932 0.962273 0.010204 0.132154
H49   H     H_    0.059905 0.099434 0.060950 0.166335
H50   H     H_    0.977345 0.996080 0.129034 0.090948
H51   H     H_    0.015478 0.854767 0.109070 0.148587
H52   H     H_    0.058562 0.951649 0.174068 0.198479
H53   H     H_    0.124045 0.783779 0.096711 0.180604
H54   H     H_    0.858123 0.784114 0.881116 0.182139
H55   H     H_    0.616494 0.281306 0.081950 0.179486
H56   H     H_    0.806766 0.803951 0.457504 0.174301
H57   H     H_    0.361787 0.285655 0.884837 0.176829
H58   H     H_    0.133410 0.790991 0.900865 0.145998
H59   H     H_    0.858821 0.799912 0.094183 0.145748
H60   H     H_    0.628823 0.282677 0.897653 0.149853
H61   H     H_    0.362209 0.294047 0.095534 0.146371
H62   H     H_    0.534997 0.095624 0.392212 0.172125
H63   H     H_    0.464252 0.095419 0.607384 0.172302
H64   H     H_    0.035003 0.595631 0.392222 0.172099
H65   H     H_    0.964239 0.595415 0.607382 0.172139
H66   H     H_    0.691868 0.303576 0.541974 0.173795
H67   H     H_    0.306779 0.303932 0.457496 0.174239
H68   H     H_    0.349215 0.498314 0.431507 0.156642
O1    O     O_R   0.214270 0.709000 0.827470 -0.527848
O2    O     O_R   0.543270 0.717630 0.330160 -0.529048
O3    O     O_R   0.956730 0.217630 0.669840 -0.524462
O4    O     O_R   0.043270 0.217630 0.330160 -0.529108
O5    O     O_R   0.320620 0.625640 0.672920 -0.488405
O6    O     O_R   0.679380 0.625640 0.327080 -0.490069
O7    O     O_R   0.820620 0.125640 0.672920 -0.492847
O8    O     O_R   0.179380 0.125640 0.327080 -0.489171
O9    O     O_3   0.334280 0.834290 0.749180 -0.321096
O10   O     O_3   0.665720 0.834290 0.250820 -0.306688
O11   O     O_3   0.834280 0.334290 0.749180 -0.308872
O12   O     O_R   0.785730 0.709000 0.172530 -0.537126
O13   O     O_3   0.165720 0.334290 0.250820 -0.305789
O14   O     O_R   0.236160 0.958490 0.823130 -0.536829
O15   O     O_R   0.763840 0.958490 0.176870 -0.542402
O16   O     O_R   0.736160 0.458490 0.823130 -0.525446
O17   O     O_R   0.263840 0.458490 0.176870 -0.540100
O18   O     O_R   0.332080 0.075470 0.831280 -0.523062
O19   O     O_R   0.667920 0.075470 0.168720 -0.487548
O20   O     O_R   0.832080 0.575470 0.831280 -0.526154
O21   O     O_R   0.167920 0.575470 0.168720 -0.499321
O22   O     O_R   0.446300 0.918110 0.826620 -0.487077
O23   O     O_R   0.714270 0.209000 0.827470 -0.553387
O24   O     O_R   0.553700 0.918110 0.173380 -0.494460
O25   O     O_R   0.946300 0.418110 0.826620 -0.486389
O26   O     O_R   0.053700 0.418110 0.173380 -0.493597
O27   O     O_R   0.457110 0.716200 0.831760 -0.525211
O28   O     O_R   0.542890 0.716200 0.168240 -0.540180
O29   O     O_R   0.957110 0.216200 0.831760 -0.525411
O30   O     O_R   0.042890 0.216200 0.168240 -0.538298
O31   O     O_R   0.320980 0.624310 0.823030 -0.422841
O32   O     O_R   0.679020 0.624310 0.176970 -0.408505
O33   O     O_R   0.820980 0.124310 0.823030 -0.449796
O34   O     O_R   0.285730 0.209000 0.172530 -0.537745
O35   O     O_R   0.179020 0.124310 0.176970 -0.406427
O36   O     O_R   0.213890 0.710430 0.665540 -0.465503
O37   O     O_R   0.786110 0.710430 0.334460 -0.468646
O38   O     O_R   0.713890 0.210430 0.665540 -0.469884
O39   O     O_R   0.286110 0.210430 0.334460 -0.468270
O40   O     O_R   0.235810 0.959820 0.673020 -0.521911
O41   O     O_R   0.764190 0.959820 0.326980 -0.523863
O42   O     O_R   0.735810 0.459820 0.673020 -0.521688
O43   O     O_R   0.264190 0.459820 0.326980 -0.523823
O44   O     O_R   0.331700 0.076900 0.669350 -0.534726
O45   O     O_R   0.445950 0.919440 0.676520 -0.516685
O46   O     O_R   0.668300 0.076900 0.330650 -0.532205
O47   O     O_R   0.831700 0.576900 0.669350 -0.535652
O48   O     O_R   0.168300 0.576900 0.330650 -0.533160
O49   O     O_2   0.113833 0.830163 0.429534 -0.514385
O50   O     O_2   0.884865 0.829210 0.569957 -0.514611
O51   O     O_2   0.613793 0.330107 0.429574 -0.514090
O52   O     O_2   0.384891 0.329175 0.569935 -0.514591
O53   O     O_3   0.354301 0.489964 0.924772 -0.529538
O54   O     O_3   0.647147 0.493008 0.078114 -0.519301
O55   O     O_3   0.854252 0.982077 0.924633 -0.543411
O56   O     O_R   0.554050 0.919440 0.323480 -0.523715
O57   O     O_3   0.146351 0.994837 0.076726 -0.526196
O58   O     O_2   0.213184 0.820410 0.151074 -0.474027
O59   O     O_2   0.760255 0.836121 0.850384 -0.493378
O60   O     O_2   0.700837 0.308553 0.145211 -0.464864
O61   O     O_2   0.265134 0.337313 0.850887 -0.471930
O62   O     O_2   0.082723 0.715402 0.980379 -0.547766
O63   O     O_2   0.907141 0.740021 0.008384 -0.540567
O64   O     O_2   0.575032 0.199046 0.971826 -0.553476
O65   O     O_2   0.409720 0.233676 0.009509 -0.540964
O66   O     O_2   0.436119 0.116980 0.428934 -0.475124
O67   O     O_R   0.945950 0.419440 0.676520 -0.517390
O68   O     O_2   0.562680 0.116395 0.569783 -0.473905
O69   O     O_2   0.936110 0.616966 0.428910 -0.475463
O70   O     O_2   0.062661 0.616413 0.569768 -0.473285
O71   O     O_R   0.054050 0.419440 0.323480 -0.523814
O72   O     O_R   0.456730 0.717630 0.669840 -0.524789

loop_
_geom_bond_atom_site_label_1
_geom_bond_atom_site_label_2
_ccdc_geom_bond_type
C44   C49   A    
C10   H38   S    
C47   C114  A    
C12   H42   S    
C5    C75   S    
C23   C45   S    
C87   C91   A    
C7    O52   D    
C30   C114  A    
C23   O64   D    
C13   C32   A    
C9    H33   S    
C3    C68   S    
C70   H14   S    
Cr9   O24   S    
Cr11  O48   S    
C72   C76   A    
C108  O71   A    
C101  O41   A    
C67   C124  S    
C14   H47   S    
Cr6   O42   S    
C90   C95   A    
C98   O33   A    
Cr5   O41   S    
C86   C90   A    
C110  O6    A    
Cr4   O35   S    
C73   H67   S    
C115  H10   S    
C11   H40   S    
C28   H64   S    
C81   C123  S    
Cr8   O18   S    
Cr9   O10   S    
C112  O8    A    
C36   C37   S    
C2    C49   A    
C117  C124  S    
Cr12  O9    S    
C20   O61   D    
C3    C116  S    
C92   C124  S    
C42   C46   A    
C79   C84   A    
C26   H62   S    
C53   C56   A    
C17   O58   D    
Cr7   O34   S    
C15   C16   S    
Cr11  O13   S    
Cr12  O31   S    
C66   O28   A    
C94   C111  S    
C8    O53   S    
C116  C117  S    
Cr1   O40   S    
C17   C39   S    
Cr10  O25   S    
C113  H9    S    
Cr5   O10   S    
C70   C81   S    
C117  C121  S    
C31   H19   S    
Cr3   O3    S    
C95   C112  S    
C59   O17   A    
C92   C103  S    
Cr9   O19   S    
C19   O60   D    
C21   C43   S    
C99   O34   A    
Cr1   O9    S    
C78   C83   A    
C103  H17   S    
C112  O39   A    
C22   C44   S    
C101  O46   A    
C68   O26   A    
C8    C9    S    
Cr11  O26   S    
C102  O42   A    
C24   O57   S    
C92   H16   S    
C120  H23   S    
C47   C96   S    
C10   O54   S    
C79   C102  S    
C1    O14   A    
C11   H41   S    
C12   O55   S    
C71   H56   S    
C96   O31   A    
C118  H1    S    
C8    H32   S    
C85   H3    S    
C107  O3    A    
C61   C62   A    
C100  O40   A    
C108  O4    A    
C93   C110  S    
C7    C77   S    
C72   C94   A    
Cr1   O14   S    
C24   C51   A    
C43   C47   A    
C27   O68   D    
C6    H29   S    
C84   H2    S    
C115  C122  S    
C26   O66   D    
Cr4   O30   S    
Cr2   O10   S    
C36   C41   A    
Cr12  O72   S    
C82   C100  S    
C4    O49   D    
C109  O5    A    
C35   C48   S    
C22   O63   D    
C88   H6    S    
C14   H46   S    
C33   H21   S    
Cr8   O45   S    
Cr10  O47   S    
Cr9   O56   S    
C51   C99   S    
C30   H18   S    
Cr12  O27   S    
Cr9   O46   S    
Cr3   O29   S    
C58   C108  S    
C29   H65   S    
C57   C105  S    
C30   C34   A    
C107  O67   A    
C102  O47   A    
C5    H28   S    
C76   C80   A    
C57   C62   A    
C27   H63   S    
C37   O19   A    
C52   H22   S    
Cr2   O6    S    
C50   C98   S    
C85   C89   A    
Cr8   O44   S    
C54   C60   A    
C48   O20   A    
C17   H53   S    
Cr10  O67   S    
C81   H15   S    
C97   O32   A    
C78   C104  S    
C81   C118  S    
C97   O12   A    
C6    O51   D    
Cr10  O11   S    
Cr12  O5    S    
C120  C124  S    
C1    O18   A    
C25   O65   D    
C5    O50   D    
C23   H60   S    
Cr8   O9    S    
Cr2   O28   S    
C28   C63   S    
C28   O69   D    
C106  O2    A    
C80   C85   A    
C15   O57   S    
C8    H31   S    
Cr8   O22   S    
C116  H11   S    
C15   H49   S    
C70   C122  S    
C20   C42   S    
C113  C123  S    
C32   H20   S    
C70   C119  S    
C83   H68   S    
C104  O43   A    
C15   H48   S    
C117  H13   S    
C4    H27   S    
Cr6   O11   S    
Cr7   O17   S    
C65   C122  S    
C87   H5    S    
Cr6   O16   S    
C11   H39   S    
C60   C107  S    
C56   C106  S    
Cr1   O36   S    
C68   O30   A    
C21   O62   D    
C1    C38   S    
Cr3   O7    S    
C100  O44   A    
C2    O54   S    
C7    H30   S    
C12   C14   S    
Cr6   O23   S    
Cr3   O33   S    
C111  O38   A    
C115  C119  S    
C10   C11   S    
C106  O56   A    
C16   H52   S    
C34   C59   S    
C21   H58   S    
C31   C35   A    
C22   H59   S    
C9    H35   S    
C67   O29   A    
C73   C95   A    
C24   C33   A    
C32   C36   A    
C20   H57   S    
Cr2   O32   S    
C52   C53   A    
C72   H66   S    
C98   O23   A    
C48   O16   A    
C109  O36   A    
C3    C103  S    
C58   C63   A    
C88   C93   A    
C18   H54   S    
C53   H24   S    
C41   C45   A    
Cr11  O21   S    
C37   O15   A    
C56   C61   A    
C105  O72   A    
C4    C74   S    
C26   C61   S    
C84   C88   A    
C55   H26   S    
C63   C64   A    
Cr1   O1    S    
C16   H51   S    
C83   C87   A    
C89   C94   A    
C54   C55   A    
C39   C43   A    
C34   C39   A    
C6    C76   S    
C71   C93   A    
C27   C62   S    
C119  C123  S    
C25   C46   S    
Cr10  O20   S    
C33   C38   A    
Cr7   O13   S    
C80   C101  S    
C60   C64   A    
C91   C109  S    
Cr5   O12   S    
C29   O70   D    
C35   C40   A    
C13   O55   S    
C99   O35   A    
C18   O59   D    
Cr5   O15   S    
C82   C86   A    
C92   C121  S    
Cr4   O8    S    
C65   O27   A    
C71   C75   A    
Cr6   O38   S    
C110  O37   A    
Cr3   O11   S    
C96   O1    A    
C119  H12   S    
Cr5   O37   S    
C77   C82   A    
Cr2   O2    S    
C118  C122  S    
C46   C51   A    
Cr7   O43   S    
C13   C50   A    
C45   C50   A    
C103  C120  S    
C19   H55   S    
C65   O22   A    
C121  H34   S    
Cr11  O71   S    
C54   H25   S    
C89   H7    S    
C59   O21   A    
C114  O53   S    
C90   H8    S    
C29   C64   S    
C49   C97   S    
C25   H61   S    
C52   C57   A    
C105  O45   A    
C113  C118  S    
Cr7   O39   S    
C38   C42   A    
C116  C120  S    
C40   C44   A    
C12   H43   S    
C18   C40   S    
C67   O25   A    
C104  O48   A    
C74   C78   A    
C55   C58   A    
C66   O24   A    
C73   C77   A    
C69   C74   A    
C2    C31   A    
C9    H36   S    
C16   H50   S    
C86   H4    S    
Cr4   O4    S    
C10   H37   S    
C69   C91   A    
C66   C123  S    
C75   C79   A    
Cr4   O13   S    
C3    C121  S    
C14   H44   S    
C19   C41   S    
C111  O7    A    
C69   H45   S    
C113  C115  S    
