data_mof_unit_31599.cif
_audit_creation_date              2012-12-11T14:08:44-0500
_audit_creation_method            fapswitch 2.2
_symmetry_space_group_name_H-M    P1
_symmetry_Int_Tables_number       1
_space_group_crystal_system       triclinic
_cell_length_a                    27.969862
_cell_length_b                    7.192599
_cell_length_c                    17.173848
_cell_angle_alpha                 90.007279
_cell_angle_beta                  101.991235
_cell_angle_gamma                 90.061205
_cell_volume                      3379.57447773

loop_
_atom_site_label
_atom_site_type_symbol
_atom_type_description
_atom_site_fract_x
_atom_site_fract_y
_atom_site_fract_z
_atom_type_partial_charge
O1    O     O_R   0.000700 0.436510 0.857920 -0.531516
O2    O     O_R   0.999300 0.563490 0.142080 -0.530736
O3    O     O_R   0.999300 0.936510 0.642080 -0.531627
O4    O     O_R   0.000700 0.063490 0.357920 -0.531532
O5    O     O_R   0.930080 0.766380 0.721890 -0.533651
O6    O     O_R   0.069920 0.233620 0.278110 -0.532914
O7    O     O_R   0.069920 0.266380 0.778110 -0.536516
O8    O     O_R   0.930080 0.733620 0.221890 -0.536045
C1    C     C_R   0.910651 0.597730 0.707732 0.704478
C2    C     C_R   0.089476 0.402830 0.286315 0.705100
C3    C     C_R   0.089354 0.098072 0.792762 0.709334
C4    C     C_R   0.910477 0.902502 0.213470 0.709696
O9    O     O_R   0.996180 0.766230 0.862310 -0.547067
O10   O     O_R   0.003820 0.233770 0.137690 -0.548252
O11   O     O_R   0.003820 0.266230 0.637690 -0.545568
O12   O     O_R   0.996180 0.733770 0.362310 -0.545340
O13   O     O_R   0.065870 0.936460 0.783500 -0.535599
O14   O     O_R   0.934130 0.063540 0.216500 -0.535120
O15   O     O_R   0.934130 0.436460 0.716500 -0.533857
O16   O     O_R   0.065870 0.563540 0.283500 -0.533401
C5    C     C_R   0.998507 0.596480 0.894500 0.753739
C6    C     C_R   0.001494 0.403528 0.105496 0.746868
C7    C     C_R   0.001493 0.096470 0.605501 0.758865
C8    C     C_R   0.998470 0.903537 0.394489 0.752052
O17   O     O_3   0.022790 0.603020 0.723980 -0.377392
O18   O     O_3   0.977210 0.396980 0.276020 -0.377349
O19   O     O_3   0.977210 0.103020 0.776020 -0.374275
O20   O     O_3   0.022790 0.896980 0.223980 -0.372907
V1    V     V_3+5 0.995770 0.877900 0.754830 1.410152
V2    V     V_3+5 0.004230 0.122100 0.245170 1.412308
V3    V     V_3+5 0.004230 0.377900 0.745170 1.406627
V4    V     V_3+5 0.995770 0.622100 0.254830 1.407971
C9    C     C_2   0.001663 0.082690 0.519526 -0.338436
C10   C     C_2   0.998170 0.917323 0.480414 -0.338784
C11   C     C_2   0.998326 0.582686 0.980475 -0.336346
C12   C     C_2   0.001807 0.417331 0.019571 -0.334669
H1    H     H_    0.004544 0.211539 0.487831 0.152722
H2    H     H_    0.995252 0.788475 0.512089 0.152916
H3    H     H_    0.995442 0.711509 0.012182 0.152645
H4    H     H_    0.004728 0.288508 0.987884 0.152399
C13   C     C_R   0.675369 0.800361 0.116423 0.589583
C14   C     C_R   0.315972 0.174258 0.995922 0.578500
C15   C     C_R   0.324855 0.296265 0.386404 0.589693
C16   C     C_R   0.684045 0.676201 0.503820 0.577567
O21   O     O_2   0.700212 0.651383 0.098119 -0.513636
O22   O     O_2   0.291459 0.328849 0.008786 -0.521113
O23   O     O_2   0.300144 0.146605 0.404559 -0.512171
O24   O     O_2   0.708371 0.831369 0.490840 -0.519425
N1    N     N_R   0.700418 0.947714 0.155904 -0.555984
N2    N     N_R   0.292361 0.037213 0.946967 -0.552565
N3    N     N_R   0.299668 0.443548 0.347368 -0.556415
N4    N     N_R   0.707875 0.539536 0.552574 -0.552977
C17   C     C_R   0.676080 0.101899 0.173821 0.589170
C18   C     C_R   0.315656 0.873964 0.937305 0.591633
C19   C     C_R   0.323851 0.598175 0.329332 0.589830
C20   C     C_R   0.684772 0.375796 0.562452 0.593251
C21   C     C_R   0.778528 0.834996 0.240914 0.171742
C22   C     C_R   0.228854 0.171937 0.836832 0.179589
C23   C     C_R   0.221628 0.339103 0.259638 0.163594
C24   C     C_R   0.771161 0.668533 0.664384 0.172452
C25   C     C_R   0.830505 0.819216 0.253983 0.111189
C26   C     C_R   0.178542 0.187688 0.798018 0.113936
C27   C     C_R   0.169583 0.329062 0.243998 0.116195
C28   C     C_R   0.821160 0.679493 0.704830 0.116766
C29   C     C_R   0.830359 0.023108 0.140410 -0.246446
C30   C     C_R   0.156858 0.978397 0.896889 -0.247932
C31   C     C_R   0.169560 0.513482 0.363174 -0.247072
C32   C     C_R   0.843492 0.485705 0.601536 -0.248181
C33   C     C_R   0.779588 0.036305 0.127212 -0.121418
C34   C     C_R   0.205655 0.966339 0.935500 -0.128735
C35   C     C_R   0.220432 0.524687 0.377758 -0.119741
C36   C     C_R   0.794743 0.474823 0.562401 -0.130509
C37   C     C_R   0.753249 0.941773 0.175902 0.345613
C38   C     C_R   0.241939 0.061599 0.906639 0.344420
C39   C     C_R   0.246865 0.436926 0.327406 0.348065
C40   C     C_R   0.758286 0.564887 0.592706 0.347277
C41   C     C_R   0.598046 0.958328 0.113568 -0.057313
C42   C     C_R   0.391360 0.995374 0.017337 -0.047016
C43   C     C_R   0.402046 0.455453 0.388693 -0.056807
C44   C     C_R   0.608802 0.495839 0.483034 -0.046824
C45   C     C_R   0.623956 0.804010 0.093957 -0.085539
C46   C     C_R   0.365848 0.154911 0.032425 -0.085053
C47   C     C_R   0.376292 0.300667 0.408481 -0.086021
C48   C     C_R   0.634128 0.655868 0.467685 -0.085173
C49   C     C_R   0.598666 0.662958 0.047016 -0.147129
C50   C     C_R   0.389844 0.285306 0.087209 -0.157316
C51   C     C_R   0.401780 0.159879 0.455159 -0.147238
C52   C     C_R   0.609893 0.785809 0.413039 -0.157457
C53   C     C_R   0.624564 0.110125 0.152879 -0.032140
C54   C     C_R   0.365306 0.849562 0.972913 -0.019203
C55   C     C_R   0.375365 0.607026 0.349724 -0.032625
C56   C     C_R   0.635071 0.350497 0.527286 -0.019523
C57   C     C_R   0.856287 0.912298 0.201963 -0.080265
C58   C     C_R   0.142499 0.088828 0.828770 -0.081299
C59   C     C_R   0.143578 0.413414 0.297899 -0.069386
C60   C     C_R   0.857543 0.587789 0.672224 -0.069721
H5    H     H_    0.849523 0.097119 0.101190 0.139132
H6    H     H_    0.129831 0.902690 0.921302 0.139141
H7    H     H_    0.150325 0.580900 0.404023 0.137543
H8    H     H_    0.870717 0.415240 0.575698 0.137930
H9    H     H_    0.760343 0.118595 0.077737 0.145817
H10   H     H_    0.215518 0.880715 0.988268 0.148483
H11   H     H_    0.239645 0.600036 0.429490 0.143586
H12   H     H_    0.785074 0.394369 0.508073 0.147104
H13   H     H_    0.618887 0.550125 0.027106 0.177357
H14   H     H_    0.369285 0.398670 0.105927 0.177300
H15   H     H_    0.381693 0.046666 0.475202 0.177536
H16   H     H_    0.630292 0.899538 0.394098 0.177627
C61   C     C_R   0.467745 0.818893 0.029519 0.044291
C62   C     C_R   0.520457 0.120861 0.113290 0.043293
C63   C     C_R   0.532566 0.317979 0.471567 0.044341
C64   C     C_R   0.479464 0.619157 0.388224 0.043270
C65   C     C_R   0.468163 0.124801 0.095137 0.008644
C66   C     C_R   0.520003 0.813885 0.047226 0.009493
C67   C     C_R   0.531748 0.623912 0.405861 0.008590
C68   C     C_R   0.480301 0.312050 0.454289 0.009337
C69   C     C_R   0.442741 0.980543 0.047043 0.031878
C70   C     C_R   0.545887 0.962886 0.092274 0.028644
C71   C     C_R   0.557388 0.480078 0.453775 0.031847
C72   C     C_R   0.454216 0.460731 0.409477 0.028883
C73   C     C_R   0.438859 0.663782 0.998795 -0.195965
C74   C     C_R   0.548607 0.277334 0.144783 -0.189980
C75   C     C_R   0.561628 0.163419 0.502114 -0.196095
C76   C     C_R   0.451177 0.775297 0.357056 -0.190032
C77   C     C_R   0.389032 0.680836 0.967552 -0.131457
C78   C     C_R   0.599327 0.270016 0.166772 -0.135000
C79   C     C_R   0.611496 0.181369 0.532921 -0.131157
C80   C     C_R   0.400450 0.767314 0.335605 -0.135126
O25   O     O_2   0.291051 0.736501 0.892567 -0.523251
O26   O     O_2   0.701549 0.246700 0.211649 -0.516334
O27   O     O_2   0.709626 0.238686 0.606955 -0.521377
O28   O     O_2   0.298216 0.742862 0.291916 -0.514538
C81   C     C_R   0.548195 0.673563 0.017691 0.146739
C82   C     C_R   0.439297 0.263755 0.123748 0.140234
C83   C     C_R   0.452297 0.171171 0.484046 0.146776
C84   C     C_R   0.560389 0.763375 0.376928 0.140145
H17   H     H_    0.369100 0.560347 0.940066 0.172074
H18   H     H_    0.618798 0.393076 0.192514 0.170734
H19   H     H_    0.631575 0.061248 0.560285 0.172343
H20   H     H_    0.380861 0.890168 0.310098 0.171032
C85   C     C_3   0.162699 0.303572 0.723354 -0.741925
H21   H     H_    0.193285 0.357085 0.698071 0.210424
H22   H     H_    0.139447 0.218573 0.676160 0.186938
H23   H     H_    0.141601 0.425829 0.736680 0.224478
C86   C     C_3   0.859042 0.708753 0.323675 -0.732868
H24   H     H_    0.836993 0.660630 0.366267 0.203859
H25   H     H_    0.874904 0.583090 0.301449 0.224679
H26   H     H_    0.888843 0.795948 0.358179 0.184088
C87   C     C_3   0.834432 0.782589 0.783364 -0.757176
H27   H     H_    0.812671 0.728068 0.825511 0.206720
H28   H     H_    0.873182 0.766271 0.813584 0.198484
H29   H     H_    0.826849 0.933157 0.773501 0.222436
C88   C     C_3   0.142890 0.233966 0.168536 -0.757298
H30   H     H_    0.154490 0.294610 0.116004 0.205149
H31   H     H_    0.151179 0.082940 0.171656 0.218255
H32   H     H_    0.102818 0.251257 0.157045 0.201484
C89   C     C_3   0.268195 0.268684 0.803218 -0.702247
H33   H     H_    0.261692 0.420955 0.801164 0.248736
H34   H     H_    0.305565 0.245198 0.838525 0.204881
H35   H     H_    0.267813 0.215883 0.742351 0.195116
C90   C     C_3   0.750232 0.739803 0.295898 -0.675606
H36   H     H_    0.756446 0.587402 0.295479 0.236019
H37   H     H_    0.762216 0.794571 0.357299 0.217503
H38   H     H_    0.710266 0.763115 0.279095 0.208283
C91   C     C_3   0.731966 0.763336 0.699029 -0.695157
H39   H     H_    0.739721 0.914546 0.705437 0.243325
H40   H     H_    0.694799 0.747342 0.661817 0.204673
H41   H     H_    0.731072 0.703247 0.758205 0.195182
C92   C     C_3   0.249796 0.247422 0.203566 -0.668404
H42   H     H_    0.241739 0.096163 0.199679 0.230695
H43   H     H_    0.239307 0.310225 0.143447 0.219605
H44   H     H_    0.289928 0.263497 0.222567 0.206834
H45   H     H_    0.453926 0.526228 0.999361 0.151404
H46   H     H_    0.532324 0.411193 0.149647 0.151690
H47   H     H_    0.546686 0.025583 0.501703 0.151415
H48   H     H_    0.467370 0.909410 0.352066 0.151799
C93   C     C_3   0.529346 0.552962 0.945566 -0.787067
H49   H     H_    0.557716 0.536455 0.909340 0.212101
H50   H     H_    0.520300 0.411739 0.964332 0.210374
H51   H     H_    0.497928 0.617795 0.904561 0.220904
C94   C     C_3   0.455891 0.370675 0.200379 -0.786928
H52   H     H_    0.426487 0.370184 0.235010 0.215813
H53   H     H_    0.487848 0.305258 0.239901 0.215065
H54   H     H_    0.463610 0.517652 0.187446 0.211728
C95   C     C_3   0.471435 0.050422 0.555936 -0.786948
H55   H     H_    0.443207 0.032791 0.592362 0.212226
H56   H     H_    0.480561 0.909624 0.536898 0.210333
H57   H     H_    0.502864 0.115723 0.596845 0.220799
C96   C     C_3   0.543474 0.870074 0.300374 -0.787181
H58   H     H_    0.572706 0.869933 0.265412 0.215925
H59   H     H_    0.511427 0.804251 0.261128 0.214981
H60   H     H_    0.535771 0.016956 0.313404 0.211897

loop_
_geom_bond_atom_site_label_1
_geom_bond_atom_site_label_2
_ccdc_geom_bond_type
O17   V3    S    
C47   C51   A    
N1    C17   A    
C22   C26   A    
C89   H33   S    
O19   V1    S    
O13   V1    S    
C92   H42   S    
O12   C8    A    
O1    C5    A    
O3    C7    A    
C11   C12   D    
C14   C46   A    
C44   C48   A    
O15   V3    S    
C62   C70   A    
C51   H15   S    
C90   H36   S    
C61   C69   A    
C68   C83   A    
C94   H52   S    
C42   C54   A    
O7    C3    A    
C41   C53   A    
C32   C60   A    
C63   C71   A    
N3    C39   S    
C18   C54   A    
N2    C38   S    
C52   H16   S    
C25   C57   A    
C95   H56   S    
C31   C35   A    
C67   C84   A    
C27   C59   A    
O1    V3    S    
C15   C47   A    
O2    V4    S    
C14   O22   S    
C21   C37   A    
O3    V1    S    
C25   C86   S    
C34   C38   A    
C19   C55   A    
C86   H25   S    
C73   C77   A    
C85   H21   S    
C1    O15   A    
C73   H45   S    
C2    O16   A    
C93   H50   S    
O2    C6    A    
C33   C37   A    
C63   C68   A    
O14   V2    S    
C88   H31   S    
C43   C55   A    
C31   H7    S    
C30   C58   A    
C16   N4    A    
O11   C7    A    
C44   C71   A    
C89   H34   S    
C31   C59   A    
C92   H43   S    
C50   H14   S    
C28   C87   S    
C79   H19   S    
O10   V2    S    
C49   H13   S    
C13   N1    A    
C90   H37   S    
C50   C82   A    
C45   C49   A    
C86   H24   S    
O5    V1    S    
C53   C78   A    
C94   H53   S    
O7    V3    S    
C55   C80   A    
C63   C75   A    
O8    V4    S    
C51   C83   A    
C12   H4    S    
C42   C69   A    
C52   C84   A    
C41   C70   A    
C85   H23   S    
C64   C72   A    
O18   V4    S    
C95   H57   S    
C36   H12   S    
C7    C9    S    
C74   H46   S    
O11   V3    S    
C24   C40   A    
C8    C10   S    
C68   C72   A    
C32   C36   A    
C85   H22   S    
C74   C78   A    
C96   H60   S    
C11   H3    S    
C32   H8    S    
O5    C1    A    
C54   C77   A    
C42   C46   A    
C75   C79   A    
C1    C60   S    
C41   C45   A    
O8    C4    A    
C93   H51   S    
C13   C45   A    
C43   C72   A    
C9    C10   D    
O9    C5    A    
C36   C40   A    
N2    C18   A    
C88   H32   S    
C21   C25   A    
C44   C56   A    
C62   C65   A    
C28   C60   A    
C66   C70   A    
C61   C66   A    
C14   N2    A    
C65   C69   A    
C3    C58   S    
O6    V2    S    
C93   H49   S    
C91   H41   S    
C67   C71   A    
C65   C82   A    
C26   C58   A    
C17   C53   A    
C92   H44   S    
N1    C37   S    
C4    C57   S    
C87   H29   S    
O12   V4    S    
C82   C94   S    
C56   C79   A    
C23   C39   A    
C90   H38   S    
C86   H26   S    
C22   C38   A    
O16   V4    S    
C94   H54   S    
O9    V1    S    
C18   O25   S    
C35   H11   S    
C78   H18   S    
C10   H2    S    
C48   C52   A    
C17   O26   S    
C16   C48   A    
C22   C89   S    
C3    O13   A    
O6    C2    A    
C75   H47   S    
C34   H10   S    
C64   C76   A    
C76   H48   S    
C33   H9    S    
C89   H35   S    
C6    C12   S    
C84   C96   S    
C23   C27   A    
C24   C91   S    
C76   C80   A    
N4    C40   S    
C24   C28   A    
C77   H17   S    
O10   C6    A    
C87   H28   S    
C5    C11   S    
C80   H20   S    
C29   H5    S    
C46   C50   A    
C87   H27   S    
C62   C74   A    
C35   C39   A    
C81   C93   S    
C95   H55   S    
C30   C34   A    
C2    C59   S    
C15   N3    A    
O4    C8    A    
C29   C33   A    
O20   V2    S    
C29   C57   A    
C66   C81   A    
N3    C19   A    
C96   H58   S    
C9    H1    S    
C20   O27   S    
C30   H6    S    
C43   C47   A    
N4    C20   A    
C91   H39   S    
C20   C56   A    
C21   C90   S    
C91   H40   S    
C19   O28   S    
C4    O14   A    
C13   O21   S    
C61   C73   A    
C26   C85   S    
C96   H59   S    
C88   H30   S    
C23   C92   S    
C27   C88   S    
C15   O23   S    
C83   C95   S    
C64   C67   A    
O4    V2    S    
C16   O24   S    
C49   C81   A    
