data_mof_unit_25174.cif
_audit_creation_date              2012-12-11T14:40:30-0500
_audit_creation_method            fapswitch 2.2
_symmetry_space_group_name_H-M    P1
_symmetry_Int_Tables_number       1
_space_group_crystal_system       triclinic
_cell_length_a                    19.541271
_cell_length_b                    10.88552
_cell_length_c                    19.469086
_cell_angle_alpha                 90.070324
_cell_angle_beta                  97.525935
_cell_angle_gamma                 90.196464
_cell_volume                      4105.6981523

loop_
_atom_site_label
_atom_site_type_symbol
_atom_type_description
_atom_site_fract_x
_atom_site_fract_y
_atom_site_fract_z
_atom_type_partial_charge
C1    C     C_R   0.708880 0.997101 0.367115 0.552760
C2    C     C_3   0.248613 0.411374 0.569580 0.026536
C3    C     C_3   0.239857 0.873854 0.437639 0.021843
C4    C     C_3   0.760159 0.873940 0.562303 0.020712
C5    C     C_3   0.723782 0.526915 0.461253 -0.122441
C6    C     C_3   0.276178 0.527517 0.539052 -0.121889
C7    C     C_3   0.256743 0.009405 0.454049 -0.105027
C8    C     C_3   0.743573 0.009425 0.546157 -0.102768
C9    C     C_3   0.796550 0.546142 0.503098 -0.206642
C10   C     C_3   0.203395 0.545571 0.497208 -0.205237
C11   C     C_3   0.318498 0.966078 0.506748 -0.167157
C12   C     C_R   0.291164 0.996961 0.633020 0.554951
C13   C     C_3   0.681653 0.965819 0.493439 -0.166100
C14   C     C_3   0.823580 0.429565 0.470857 -0.099435
C15   C     C_3   0.176567 0.428318 0.529122 -0.097656
C16   C     C_3   0.300957 0.830355 0.489554 -0.117484
C17   C     C_3   0.698892 0.830172 0.510367 -0.117390
C18   C     C_3   0.801297 0.350361 0.529637 -0.090606
C19   C     C_3   0.199023 0.349828 0.470145 -0.091529
C20   C     C_3   0.252112 0.825415 0.545560 -0.145442
C21   C     C_3   0.747627 0.825530 0.454257 -0.145644
C22   C     C_3   0.774478 0.466499 0.561112 0.032275
C23   C     C_R   0.208055 0.498455 0.366750 0.545397
C24   C     C_3   0.225634 0.466653 0.438980 0.033693
C25   C     C_3   0.270193 0.959434 0.562415 0.053809
C26   C     C_3   0.729853 0.959489 0.437664 0.054822
C27   C     C_3   0.460684 0.278359 0.987932 -0.162962
C28   C     C_3   0.447628 0.179836 0.042201 -0.157958
C29   C     C_3   0.960645 0.778314 0.987942 -0.162954
C30   C     C_3   0.947632 0.679740 0.042202 -0.158452
C31   C     C_3   0.539628 0.272289 0.010953 -0.095773
C32   C     C_3   0.454204 0.075386 0.988832 -0.115628
C33   C     C_3   0.039590 0.772348 0.010964 -0.095843
C34   C     C_R   0.791985 0.498264 0.633378 0.547952
C35   C     C_3   0.954252 0.575328 0.988819 -0.115661
C36   C     C_3   0.526201 0.173790 0.064401 0.024322
C37   C     C_3   0.467884 0.174415 0.935769 0.014672
C38   C     C_3   0.026209 0.673800 0.064399 0.024013
C39   C     C_3   0.967887 0.674411 0.935769 0.014645
C40   C     C_R   0.535004 0.179951 0.337943 0.550146
C41   C     C_R   0.465010 0.180061 0.662069 0.560950
C42   C     C_R   0.035012 0.679894 0.337949 0.536567
C43   C     C_R   0.964969 0.680007 0.662038 0.547351
C44   C     C_3   0.532633 0.071604 0.012221 0.241643
C45   C     C_3   0.729117 0.330934 0.488285 -0.073113
C46   C     C_3   0.545377 0.168182 0.958978 0.256135
C47   C     C_3   0.032682 0.571650 0.012209 0.241942
C48   C     C_3   0.045382 0.668278 0.958976 0.256332
C49   C     C_1   0.762720 0.425494 0.904209 0.018911
C50   C     C_1   0.243590 0.406771 0.101000 -0.000798
C51   C     C_1   0.262718 0.925489 0.904208 0.018541
C52   C     C_1   0.743588 0.906769 0.100999 -0.002144
C53   C     C_1   0.747652 0.408302 0.034691 -0.031515
C54   C     C_1   0.267278 0.356441 0.975021 -0.030397
C55   C     C_1   0.247650 0.908295 0.034690 -0.031873
C56   C     C_3   0.271217 0.331572 0.511507 -0.076045
C57   C     C_1   0.767277 0.856436 0.975021 -0.030061
C58   C     C_1   0.754246 0.415595 0.963900 -0.016167
C59   C     C_1   0.256660 0.380310 0.044049 -0.030247
C60   C     C_1   0.254244 0.915587 0.963899 -0.015858
C61   C     C_1   0.756658 0.880306 0.044049 -0.030305
C62   C     C_1   0.742845 0.395040 0.095055 -0.000449
C63   C     C_1   0.273331 0.337152 0.915168 -0.008052
C64   C     C_1   0.242844 0.895038 0.095056 -0.002769
C65   C     C_1   0.773332 0.837147 0.915168 -0.010031
C66   C     C_R   0.740458 0.366424 0.360452 0.542812
C67   C     C_3   0.190955 0.867836 0.492834 -0.108577
C68   C     C_R   0.259613 0.366475 0.639528 0.555977
C69   C     C_R   0.227394 0.820606 0.369050 0.528095
C70   C     C_R   0.772559 0.820553 0.630815 0.530494
C71   C     C_R   0.722882 0.950016 0.164692 0.542517
C72   C     C_R   0.277927 0.952481 0.836247 0.543486
C73   C     C_R   0.222883 0.450017 0.164692 0.549906
C74   C     C_R   0.777928 0.452483 0.836248 0.551206
C75   C     C_R   0.558266 0.181885 0.135386 0.549138
C76   C     C_R   0.438988 0.182259 0.863880 0.532320
C77   C     C_R   0.058270 0.681887 0.135386 0.548676
C78   C     C_3   0.808952 0.868250 0.506993 -0.110181
C79   C     C_R   0.938989 0.682258 0.863882 0.531957
C80   C     C_R   0.736015 0.360551 0.164381 0.534320
C81   C     C_R   0.278014 0.309971 0.843865 0.530439
C82   C     C_R   0.236017 0.860557 0.164385 0.547405
C83   C     C_R   0.778015 0.809968 0.843865 0.534305
C84   C     C_1   0.486173 0.172307 0.594874 0.033021
C85   C     C_1   0.513891 0.172203 0.405159 0.031156
C86   C     C_1   0.986077 0.671915 0.594826 0.001053
C87   C     C_1   0.013857 0.671806 0.405140 -0.000842
C88   C     C_1   0.504045 0.169017 0.464714 0.007134
C89   C     C_3   0.751548 0.411448 0.430410 0.028180
C90   C     C_1   0.496049 0.169064 0.535327 0.007677
C91   C     C_1   0.003972 0.668229 0.464678 -0.042809
C92   C     C_1   0.995935 0.668278 0.535279 -0.042182
C93   C     C_3   0.702795 0.447388 0.520396 0.253652
C94   C     C_3   0.297338 0.448694 0.479700 0.253088
C95   C     C_3   0.208967 0.002203 0.511162 0.242749
C96   C     C_3   0.791233 0.002536 0.488934 0.242114
Cl1   Cl    Cl    0.621588 0.456552 0.552381 -0.547040
Cl2   Cl    Cl    0.378559 0.459581 0.447806 -0.551587
Cl3   Cl    Cl    0.142302 0.102633 0.530279 -0.582315
Cl4   Cl    Cl    0.858094 0.103297 0.469839 -0.583193
Cr1   Cr    Cr6+3 0.765830 0.160660 0.268180 1.082337
Cr2   Cr    Cr6+3 0.384070 0.324050 0.751550 1.060940
Cr3   Cr    Cr6+3 0.115930 0.824050 0.248450 1.047035
Cr4   Cr    Cr6+3 0.884070 0.824050 0.751550 1.059235
Cr5   Cr    Cr6+3 0.234170 0.160660 0.731820 1.085791
Cr6   Cr    Cr6+3 0.265830 0.660660 0.268180 1.076984
Cr7   Cr    Cr6+3 0.734170 0.660660 0.731820 1.081400
Cr8   Cr    Cr6+3 0.612110 0.009150 0.248770 1.056961
Cr9   Cr    Cr6+3 0.387890 0.009150 0.751230 1.039782
Cr10  Cr    Cr6+3 0.112110 0.509150 0.248770 1.057779
Cr11  Cr    Cr6+3 0.887890 0.509150 0.751230 1.040884
Cr12  Cr    Cr6+3 0.615930 0.324050 0.248450 1.049780
H1    H     H_    0.700327 0.242979 0.479962 0.116994
H2    H     H_    0.629242 0.006571 0.486189 0.121778
H3    H     H_    0.827963 0.630112 0.512523 0.099349
H4    H     H_    0.171821 0.629014 0.488086 0.100473
H5    H     H_    0.872992 0.422441 0.448744 0.167857
H6    H     H_    0.127138 0.420135 0.551158 0.169999
H7    H     H_    0.338562 0.758220 0.479784 0.180378
H8    H     H_    0.661130 0.757834 0.520055 0.179623
H9    H     H_    0.832695 0.280524 0.560780 0.197297
H10   H     H_    0.167782 0.279442 0.438855 0.196299
H11   H     H_    0.247986 0.757132 0.586965 0.140363
H12   H     H_    0.300161 0.244128 0.519610 0.116687
H13   H     H_    0.751468 0.757132 0.412774 0.137002
H14   H     H_    0.575504 0.351588 0.020699 0.142503
H15   H     H_    0.419252 0.995038 0.978293 0.139953
H16   H     H_    0.075444 0.851674 0.020722 0.142228
H17   H     H_    0.919332 0.494939 0.978270 0.139559
H18   H     H_    0.430078 0.363360 0.976569 0.144297
H19   H     H_    0.408093 0.185202 0.078175 0.145206
H20   H     H_    0.930005 0.863284 0.976589 0.144192
H21   H     H_    0.908103 0.685053 0.078173 0.143328
H22   H     H_    0.619603 0.990548 0.030900 0.327434
H23   H     H_    0.137585 0.830459 0.485202 0.139797
H24   H     H_    0.588991 0.081976 0.890511 0.350724
H25   H     H_    0.119708 0.490823 0.030931 0.326798
H26   H     H_    0.089086 0.582105 0.890558 0.349590
H27   H     H_    0.862272 0.831322 0.514441 0.139171
H28   H     H_    0.688416 0.591841 0.430752 0.138837
H29   H     H_    0.311451 0.592901 0.569758 0.139990
H30   H     H_    0.257655 0.083749 0.415193 0.139473
H31   H     H_    0.742886 0.083773 0.585139 0.144055
H32   H     H_    0.371004 0.007098 0.514160 0.120751
O1    O     O_R   0.783230 0.287800 0.346510 -0.476264
O2    O     O_R   0.454570 0.285140 0.836900 -0.477478
O3    O     O_R   0.045430 0.785140 0.163100 -0.507682
O4    O     O_R   0.954570 0.785140 0.836900 -0.477777
O5    O     O_R   0.677850 0.374730 0.185500 -0.511722
O6    O     O_R   0.322150 0.374730 0.814500 -0.501280
O7    O     O_R   0.177850 0.874730 0.185500 -0.504059
O8    O     O_R   0.822150 0.874730 0.814500 -0.490374
O9    O     O_3   0.664630 0.164620 0.255130 -0.308963
O10   O     O_3   0.335370 0.164620 0.744870 -0.334790
O11   O     O_3   0.164630 0.664620 0.255130 -0.325244
O12   O     O_R   0.216770 0.287800 0.653490 -0.472049
O13   O     O_3   0.835370 0.664620 0.744870 -0.351116
O14   O     O_R   0.760130 0.037060 0.338610 -0.448461
O15   O     O_R   0.239870 0.037060 0.661390 -0.444518
O16   O     O_R   0.260130 0.537060 0.338610 -0.453336
O17   O     O_R   0.739870 0.537060 0.661390 -0.449838
O18   O     O_R   0.666620 0.921370 0.332440 -0.516360
O19   O     O_R   0.333380 0.921370 0.667560 -0.509925
O20   O     O_R   0.166620 0.421370 0.332440 -0.512086
O21   O     O_R   0.833380 0.421370 0.667560 -0.505493
O22   O     O_R   0.557170 0.082420 0.312350 -0.517194
O23   O     O_R   0.283230 0.787800 0.346510 -0.496677
O24   O     O_R   0.442830 0.082420 0.687650 -0.511979
O25   O     O_R   0.057170 0.582420 0.312350 -0.510051
O26   O     O_R   0.942830 0.582420 0.687650 -0.504891
O27   O     O_R   0.548310 0.285980 0.316250 -0.470006
O28   O     O_R   0.451690 0.285980 0.683750 -0.466542
O29   O     O_R   0.048310 0.785980 0.316250 -0.491134
O30   O     O_R   0.951690 0.785980 0.683750 -0.487842
O31   O     O_R   0.680520 0.375500 0.327470 -0.501297
O32   O     O_R   0.319480 0.375500 0.672530 -0.498017
O33   O     O_R   0.180520 0.875500 0.327470 -0.485554
O34   O     O_R   0.716770 0.787800 0.653490 -0.489331
O35   O     O_R   0.819480 0.875500 0.672530 -0.479250
O36   O     O_R   0.780350 0.286970 0.193350 -0.501329
O37   O     O_R   0.219650 0.286970 0.806650 -0.485650
O38   O     O_R   0.280350 0.786970 0.193350 -0.495041
O39   O     O_R   0.719650 0.786970 0.806650 -0.476174
O40   O     O_R   0.757460 0.036290 0.196640 -0.492754
O41   O     O_R   0.242540 0.036290 0.803360 -0.503763
O42   O     O_R   0.257460 0.536290 0.196640 -0.489028
O43   O     O_R   0.742540 0.536290 0.803360 -0.500000
O44   O     O_R   0.663740 0.920540 0.179290 -0.485537
O45   O     O_R   0.554500 0.081650 0.170370 -0.466087
O46   O     O_R   0.336260 0.920540 0.820710 -0.507468
O47   O     O_R   0.163740 0.420540 0.179290 -0.482901
O48   O     O_R   0.836260 0.420540 0.820710 -0.504659
O49   O     O_3   0.570708 0.964005 0.025750 -0.662369
O50   O     O_3   0.596159 0.162071 0.914702 -0.669176
O51   O     O_3   0.070836 0.464139 0.025723 -0.662532
O52   O     O_3   0.096162 0.662262 0.914696 -0.672132
O53   O     O_R   0.445500 0.081650 0.829630 -0.489888
O54   O     O_R   0.054500 0.581650 0.170370 -0.466087
O55   O     O_R   0.945500 0.581650 0.829630 -0.489824
O56   O     O_R   0.545430 0.285140 0.163100 -0.507486

loop_
_geom_bond_atom_site_label_1
_geom_bond_atom_site_label_2
_ccdc_geom_bond_type
C19   C56   S    
C21   C26   S    
H25   O51   S    
C19   H10   S    
C8    C13   S    
C87   C91   T    
Cr10  O54   S    
Cr4   O4    S    
C20   C67   S    
Cr9   O53   S    
C8    C96   S    
C81   O37   A    
Cr4   O13   S    
C4    C8    S    
C34   O17   A    
C35   C47   S    
C78   H27   S    
C4    C70   S    
C73   O42   A    
C68   O32   A    
Cr3   O3    S    
C75   O56   A    
C56   C94   S    
Cr12  O31   S    
C26   C96   S    
Cr1   O1    S    
C44   O49   S    
C29   C30   S    
C30   C35   S    
C63   C81   S    
C50   C59   T    
C56   H12   S    
C32   H15   S    
C47   O51   S    
C1    O14   A    
Cr9   O24   S    
C83   O8    A    
C3    C7    S    
C76   O53   A    
C31   C36   S    
C43   O30   A    
C95   Cl3   S    
C9    C22   S    
C65   C83   S    
Cr12  O27   S    
C20   C25   S    
C94   Cl2   S    
Cr2   O32   S    
C81   O6    A    
C41   O24   A    
Cr7   O43   S    
Cr10  O47   S    
Cr3   O29   S    
C30   C38   S    
C4    C78   S    
C11   C16   S    
Cr5   O41   S    
C14   C18   S    
Cr6   O38   S    
C66   O1    A    
Cr8   O22   S    
Cr10  O11   S    
C17   H8    S    
Cr11  O55   S    
H24   O50   S    
C15   C19   S    
H22   O49   S    
Cr8   O9    S    
Cr7   O17   S    
C29   C33   S    
C78   C96   S    
C6    C94   S    
C31   C46   S    
C21   C78   S    
C23   C24   S    
C50   C73   S    
Cr11  O21   S    
C34   O21   A    
C45   C89   S    
C11   H32   S    
C71   O44   A    
C40   O22   A    
C82   O7    A    
Cr3   O7    S    
C69   O33   A    
C14   H5    S    
Cr5   O10   S    
C45   C93   S    
Cr11  O48   S    
C18   C22   S    
C55   C60   S    
C48   O52   S    
C67   C95   S    
C3    C69   S    
C2    C6    S    
C84   C90   T    
C13   C26   S    
C35   H17   S    
C72   O46   A    
Cr7   O13   S    
C43   O26   A    
C44   C46   S    
C70   O35   A    
C46   O50   S    
C66   C89   S    
C54   C59   S    
C55   C64   T    
Cr2   O28   S    
C80   O5    A    
C22   C34   S    
C41   O28   A    
C79   O55   A    
C27   C31   S    
C9    H3    S    
C28   C32   S    
Cr6   O42   S    
Cr9   O19   S    
C16   H7    S    
C57   C65   T    
C91   C92   S    
Cr10  O20   S    
C70   O34   A    
Cr4   O30   S    
C29   H20   S    
C10   C24   S    
C41   C84   S    
Cr8   O18   S    
C33   H16   S    
C17   C21   S    
C49   C58   T    
Cr7   O39   S    
Cr3   O33   S    
C39   C79   S    
C40   C85   S    
C36   C75   S    
C35   C39   S    
C9    C14   S    
C69   O23   A    
C14   C89   S    
C5    C9    S    
C67   H23   S    
C2    C15   S    
C42   O25   A    
C24   C94   S    
C53   C62   T    
C93   Cl1   S    
C7    C11   S    
C47   C48   S    
Cr1   O9    S    
Cr9   O46   S    
C16   C20   S    
C30   H21   S    
C23   O16   A    
C29   C39   S    
C32   C44   S    
C83   O39   A    
C32   C37   S    
C6    H29   S    
Cr9   O10   S    
C64   C82   S    
C38   C47   S    
C73   O47   A    
Cr1   O40   S    
C20   H11   S    
C74   O48   A    
C4    C17   S    
Cr3   O11   S    
C37   C76   S    
Cr2   O6    S    
Cr1   O14   S    
C25   C95   S    
Cr12  O9    S    
Cr7   O34   S    
C1    C26   S    
C22   C93   S    
C66   O31   A    
C36   C44   S    
C51   C72   S    
C21   H13   S    
C18   C45   S    
C80   O36   A    
C10   H4    S    
C5    H28   S    
C23   O20   A    
C77   O54   A    
C85   C88   T    
C62   C80   S    
C27   H18   S    
C77   O3    A    
C75   O45   A    
Cr12  O5    S    
C43   C86   S    
C71   O40   A    
Cr8   O44   S    
C3    C67   S    
C13   H2    S    
C88   C90   S    
C68   O12   A    
C42   O29   A    
C52   C61   T    
C6    C10   S    
C5    C93   S    
C53   C58   S    
C57   C61   S    
C79   O4    A    
C51   C60   T    
C38   C77   S    
H26   O52   S    
C7    C95   S    
C82   O38   A    
C2    C68   S    
C33   C38   S    
C15   H6    S    
C13   C17   S    
C12   C25   S    
C10   C15   S    
C28   H19   S    
Cr6   O23   S    
Cr11  O26   S    
C19   C24   S    
Cr11  O13   S    
Cr1   O36   S    
C86   C92   T    
Cr2   O10   S    
Cr2   O2    S    
C12   O19   A    
Cr4   O8    S    
Cr5   O15   S    
C27   C37   S    
Cr6   O16   S    
C96   Cl4   S    
C8    H31   S    
C7    H30   S    
C12   O15   A    
Cr8   O45   S    
C72   O41   A    
C1    O18   A    
C74   O43   A    
C18   H9    S    
C76   O2    A    
Cr4   O35   S    
Cr10  O25   S    
C45   H1    S    
Cr5   O12   S    
C28   C36   S    
Cr6   O11   S    
C54   C63   T    
C27   C28   S    
C52   C71   S    
C33   C48   S    
C11   C25   S    
C49   C74   S    
C2    C56   S    
C42   C87   S    
C31   H14   S    
Cr5   O37   S    
C37   C46   S    
Cr12  O56   S    
C40   O27   A    
C5    C89   S    
C3    C16   S    
C39   C48   S    
