data_mof_unit_53811.cif
_audit_creation_date              2012-12-11T15:21:35-0500
_audit_creation_method            fapswitch 2.2
_symmetry_space_group_name_H-M    P1
_symmetry_Int_Tables_number       1
_space_group_crystal_system       triclinic
_cell_length_a                    19.188082
_cell_length_b                    7.158576
_cell_length_c                    17.693018
_cell_angle_alpha                 89.999945
_cell_angle_beta                  108.855965
_cell_angle_gamma                 90.000253
_cell_volume                      2299.87684994

loop_
_atom_site_label
_atom_site_type_symbol
_atom_type_description
_atom_site_fract_x
_atom_site_fract_y
_atom_site_fract_z
_atom_type_partial_charge
O1    O     O_R   0.562310 0.505770 0.439670 -0.532275
O2    O     O_R   0.437690 0.005770 0.560330 -0.532325
O3    O     O_R   0.411650 0.169150 0.405330 -0.518094
O4    O     O_R   0.588350 0.669150 0.594670 -0.517891
C1    C     C_R   0.385560 0.346047 0.381604 0.759907
C2    C     C_R   0.614432 0.846043 0.618402 0.759390
O5    O     O_R   0.560140 0.175610 0.430010 -0.529121
O6    O     O_R   0.439860 0.675610 0.569990 -0.529236
O7    O     O_R   0.587240 0.012100 0.585200 -0.543779
O8    O     O_R   0.412760 0.512100 0.414800 -0.543597
C3    C     C_R   0.578806 0.345098 0.412499 0.687064
C4    C     C_R   0.421192 0.845097 0.587499 0.686659
O9    O     O_3   0.508720 0.341420 0.550890 -0.374665
O10   O     O_3   0.491280 0.841420 0.449110 -0.374544
V1    V     V_3+5 0.498380 0.063930 0.490560 1.518719
V2    V     V_3+5 0.501620 0.563930 0.509440 1.518795
C5    C     C_R   0.180969 0.063726 0.869927 -0.148931
C6    C     C_R   0.819029 0.563724 0.130070 -0.148935
C7    C     C_R   0.130987 0.917976 0.866185 -0.068361
C8    C     C_R   0.869011 0.417975 0.133814 -0.068370
C9    C     C_R   0.130211 0.763084 0.817380 -0.220210
C10   C     C_R   0.869784 0.263081 0.182616 -0.220204
C11   C     C_R   0.178627 0.753258 0.772651 0.152355
C12   C     C_R   0.821364 0.253252 0.227340 0.152340
C13   C     C_R   0.229551 0.899502 0.777170 0.043769
C14   C     C_R   0.770441 0.399498 0.222821 0.043745
C15   C     C_R   0.230253 0.057674 0.825398 -0.085776
C16   C     C_R   0.769739 0.557667 0.174593 -0.085750
C17   C     C_R   0.177250 0.597958 0.723970 -0.194371
C18   C     C_R   0.822734 0.097943 0.276015 -0.194388
C19   C     C_R   0.226096 0.585506 0.680486 -0.103888
C20   C     C_R   0.773884 0.085484 0.319492 -0.103854
C21   C     C_R   0.277458 0.727903 0.684895 0.149991
C22   C     C_R   0.722526 0.227889 0.315088 0.149936
C23   C     C_R   0.279965 0.885719 0.733825 -0.056331
C24   C     C_R   0.720025 0.385713 0.266164 -0.056323
C25   C     C_R   0.333172 0.027385 0.740180 -0.111409
C26   C     C_R   0.666821 0.527384 0.259812 -0.111429
C27   C     C_R   0.335412 0.181498 0.791818 0.370766
C28   C     C_R   0.664574 0.681482 0.208165 0.370776
C29   C     C_R   0.282465 0.201367 0.830459 0.323076
C30   C     C_R   0.717520 0.701347 0.169521 0.323106
C31   C     C_R   0.325429 0.714753 0.640021 -0.186644
C32   C     C_R   0.674553 0.214736 0.359960 -0.186403
C33   C     C_R   0.376378 0.856720 0.642307 -0.167412
C34   C     C_R   0.623615 0.356722 0.357687 -0.167573
C35   C     C_R   0.382056 0.011459 0.694612 0.351173
C36   C     C_R   0.617944 0.511474 0.305390 0.350929
H1    H     H_    0.182525 0.177426 0.910553 0.127674
H2    H     H_    0.817479 0.677427 0.089449 0.127599
H3    H     H_    0.091686 0.650082 0.814037 0.118945
H4    H     H_    0.908308 0.150078 0.185959 0.118941
H5    H     H_    0.138615 0.484979 0.719959 0.117793
H6    H     H_    0.861367 0.984961 0.280024 0.117785
H7    H     H_    0.223866 0.463533 0.643479 0.130389
H8    H     H_    0.776107 0.963502 0.356492 0.130369
H9    H     H_    0.321475 0.595511 0.601022 0.168407
H10   H     H_    0.678501 0.095480 0.398950 0.168510
C37   C     C_3   0.755177 0.773718 0.837587 0.613747
C38   C     C_3   0.244923 0.274356 0.162309 0.613473
C39   C     C_3   0.679816 0.763035 0.766800 0.122845
C40   C     C_3   0.320299 0.263860 0.233090 0.122567
H11   H     H_    0.636233 0.834998 0.785205 0.148938
H12   H     H_    0.363788 0.336514 0.214767 0.148773
H13   H     H_    0.860994 0.704829 0.755410 0.177712
H14   H     H_    0.139085 0.204093 0.244372 0.177846
C41   C     C_3   0.826456 0.832865 0.740204 -0.501557
C42   C     C_3   0.173563 0.332211 0.259720 -0.501701
C43   C     C_3   0.771928 0.104361 0.788667 0.211641
C44   C     C_3   0.227913 0.604473 0.211530 0.210977
C45   C     C_3   0.810397 0.912133 0.815041 -0.250182
C46   C     C_3   0.189589 0.412163 0.184970 -0.249700
H15   H     H_    0.809995 0.192600 0.767903 0.126511
H16   H     H_    0.189741 0.692413 0.232260 0.126495
C47   C     C_3   0.685336 0.866716 0.691086 -0.173016
C48   C     C_3   0.314650 0.366745 0.308925 -0.172459
C49   C     C_3   0.753970 0.793633 0.670072 0.813960
C50   C     C_3   0.246065 0.292829 0.329810 0.813711
C51   C     C_3   0.700004 0.079329 0.715664 0.063081
C52   C     C_3   0.299772 0.579456 0.284612 0.062765
H17   H     H_    0.708914 0.156073 0.664424 0.152578
H18   H     H_    0.290677 0.655497 0.335918 0.152015
H19   H     H_    0.860767 0.934972 0.720388 0.173653
H20   H     H_    0.139208 0.433977 0.279648 0.173572
O11   O     O_R   0.087220 0.271820 0.085230 -0.529811
O12   O     O_R   0.912780 0.771820 0.914770 -0.529768
O13   O     O_R   0.939860 0.595540 0.069990 -0.551209
O14   O     O_R   0.060140 0.095540 0.930010 -0.551168
C53   C     C_R   0.919013 0.426681 0.085040 0.721658
C54   C     C_R   0.080987 0.926682 0.914960 0.721710
O15   O     O_R   0.088340 0.601930 0.094680 -0.520173
O16   O     O_R   0.911660 0.101930 0.905320 -0.520179
O17   O     O_R   0.062310 0.765410 0.939660 -0.535213
O18   O     O_R   0.937690 0.265410 0.060340 -0.535192
C55   C     C_R   0.116681 0.432030 0.116425 0.748127
C56   C     C_R   0.883310 0.932027 0.883584 0.748162
O19   O     O_3   0.991270 0.429630 0.949130 -0.377709
O20   O     O_3   0.008730 0.929630 0.050870 -0.377762
V3    V     V_3+5 0.001620 0.707150 0.009440 1.479395
V4    V     V_3+5 0.998380 0.207150 0.990560 1.479458
O21   O     O_3   0.739863 0.838760 0.905657 -0.641795
H21   H     H_    0.784916 0.822654 0.952510 0.302025
O22   O     O_3   0.260167 0.339953 0.094279 -0.641749
H22   H     H_    0.215130 0.323733 0.047417 0.302064
O23   O     O_3   0.657122 0.577205 0.748822 -0.620300
H23   H     H_    0.640753 0.531288 0.793326 0.340150
O24   O     O_3   0.343233 0.078130 0.250856 -0.620318
H24   H     H_    0.359606 0.032767 0.206274 0.340059
O25   O     O_3   0.748280 0.600153 0.654892 -0.638521
H25   H     H_    0.720192 0.582208 0.597498 0.316932
O26   O     O_3   0.251900 0.099230 0.344690 -0.638814
H26   H     H_    0.279881 0.080882 0.402088 0.316879
O27   O     O_3   0.761020 0.202562 0.853088 -0.589649
H27   H     H_    0.717871 0.150857 0.864854 0.374637
O28   O     O_3   0.238884 0.703006 0.147219 -0.589716
H28   H     H_    0.282167 0.651747 0.135587 0.374712
O29   O     O_3   0.638852 0.155694 0.732560 -0.640548
H29   H     H_    0.617882 0.256182 0.693217 0.352042
O30   O     O_3   0.360906 0.656722 0.267975 -0.640080
H30   H     H_    0.381420 0.757735 0.307199 0.352733
F1    F     F_    0.758252 0.886545 0.602562 -0.723825
F2    F     F_    0.241694 0.384959 0.397455 -0.723913
O31   O     O_3   0.434072 0.148799 0.700857 -0.619513
H31   H     H_    0.480176 0.087842 0.699980 0.301006
O32   O     O_3   0.565947 0.648850 0.299167 -0.619434
H32   H     H_    0.519832 0.587918 0.300031 0.301109
O33   O     O_3   0.388253 0.318625 0.805253 -0.578741
H33   H     H_    0.436355 0.254974 0.828498 0.333032
O34   O     O_3   0.611722 0.818584 0.194711 -0.578738
H34   H     H_    0.563623 0.754898 0.171502 0.332999
O35   O     O_3   0.286405 0.360584 0.875755 -0.594346
H35   H     H_    0.235955 0.398644 0.872306 0.288036
O36   O     O_3   0.713566 0.860535 0.124205 -0.594345
H36   H     H_    0.764013 0.898626 0.127653 0.288040
O37   O     O_3   0.786539 0.593800 0.856031 -0.597203
H37   H     H_    0.790681 0.535609 0.806963 0.343232
O38   O     O_3   0.213719 0.094314 0.143738 -0.597333
H38   H     H_    0.209642 0.035791 0.192770 0.343810

loop_
_geom_bond_atom_site_label_1
_geom_bond_atom_site_label_2
_ccdc_geom_bond_type
H14   C42   S    
C28   O34   S    
C41   H19   S    
O21   H21   S    
O26   H26   S    
O1    C3    A    
O2    C4    A    
C2    O7    A    
C42   H20   S    
C2    C47   S    
C27   C29   A    
C39   C47   S    
O5    C3    A    
C18   H6    S    
C43   O27   S    
C30   O36   S    
O37   H37   S    
C11   C17   A    
C23   C25   A    
C12   C14   A    
O34   H34   S    
C38   C46   S    
O28   H28   S    
O16   C56   A    
C6    C8    A    
C38   C40   S    
C16   C30   A    
C53   O18   A    
C43   C45   S    
C40   H12   S    
O5    V1    S    
C36   O32   S    
C46   C55   S    
C32   H10   S    
H13   C41   S    
C41   C49   S    
C44   H16   S    
O24   H24   S    
C19   C21   A    
C43   H15   S    
C50   O26   S    
C25   C35   A    
C38   O22   S    
C39   O23   S    
O17   V3    S    
C26   C36   A    
C42   C46   S    
C38   O38   S    
C28   C30   A    
O38   H38   S    
O6    V2    S    
C40   C48   S    
C32   C34   A    
O13   V3    S    
C33   C35   A    
C42   C50   S    
C34   C36   A    
C37   C39   S    
C27   O33   S    
C44   C52   S    
C48   C50   S    
C5    C15   A    
O31   H31   S    
C6    C16   A    
C52   H18   S    
C5    H1    S    
C29   O35   S    
O16   V4    S    
C5    C7    A    
C45   C56   S    
C37   O21   S    
O4    V2    S    
O12   V3    S    
C18   C20   A    
C31   C33   A    
C15   C29   A    
C35   O31   S    
O18   V4    S    
O6    C4    A    
C39   H11   S    
C22   C32   A    
O1    V2    S    
C49   O25   S    
O2    V1    S    
C47   C49   S    
O14   V4    S    
O12   C56   A    
C13   C23   A    
C14   C24   A    
O14   C54   A    
C9    C11   A    
O32   H32   S    
C10   C12   A    
C43   C51   S    
O4    C2    A    
O33   H33   S    
C9    H3    S    
O19   V4    S    
O3    V1    S    
C6    H2    S    
C54   O17   A    
C10   H4    S    
O27   H27   S    
C8    C53   S    
C7    C9    A    
C14   C16   A    
C48   C52   S    
C8    C10   A    
C4    C33   S    
O3    C1    A    
O30   H30   S    
C40   O24   S    
C44   O28   S    
C13   C15   A    
O23   H23   S    
C51   H17   S    
C19   H7    S    
C1    C48   S    
C24   C26   A    
O7    V1    S    
C1    O8    A    
C17   C19   A    
C7    C54   S    
O8    V2    S    
O25   H25   S    
C26   C28   A    
O11   C55   A    
O36   H36   S    
C17   H5    S    
C51   O29   S    
C37   O37   S    
C21   C23   A    
C22   C24   A    
C41   C45   S    
C11   C13   A    
C50   F2    S    
C12   C18   A    
C52   O30   S    
C49   F1    S    
C31   H9    S    
O15   C55   A    
C25   C27   A    
O20   V3    S    
O9    V2    S    
C37   C45   S    
O22   H22   S    
O11   V4    S    
O13   C53   A    
O10   V1    S    
C3    C34   S    
C44   C46   S    
O15   V3    S    
O29   H29   S    
C21   C31   A    
C47   C51   S    
C20   H8    S    
O35   H35   S    
C20   C22   A    
