data_mof_unit_33637.cif
_audit_creation_date              2012-12-10T19:21:59-0500
_audit_creation_method            fapswitch 2.2
_symmetry_space_group_name_H-M    P1
_symmetry_Int_Tables_number       1
_space_group_crystal_system       triclinic
_cell_length_a                    8.744733
_cell_length_b                    17.588007
_cell_length_c                    16.506684
_cell_angle_alpha                 88.841813
_cell_angle_beta                  97.686574
_cell_angle_gamma                 90.253707
_cell_volume                      2515.43828858

loop_
_atom_site_label
_atom_site_type_symbol
_atom_type_description
_atom_site_fract_x
_atom_site_fract_y
_atom_site_fract_z
_atom_type_partial_charge
C1    C     C_R   0.488560 0.355235 0.500115 0.802212
C2    C     C_R   0.492874 0.645139 0.498300 0.808732
C3    C     C_1   0.393570 0.966986 0.504040 0.018755
C4    C     C_1   0.383713 0.035017 0.506961 0.033203
C5    C     C_R   0.608430 0.546611 0.834397 -0.268747
C6    C     C_R   0.401691 0.450328 0.165362 -0.264719
C7    C     C_R   0.604376 0.544158 0.748352 0.029595
C8    C     C_R   0.404229 0.451892 0.251319 0.049185
C9    C     C_R   0.402150 0.454313 0.739933 0.348052
C10   C     C_R   0.594207 0.548508 0.260481 0.341979
C11   C     C_R   0.402885 0.455610 0.825229 -0.275452
C12   C     C_R   0.594090 0.548055 0.175169 -0.281155
C13   C     C_R   0.505438 0.502096 0.873789 0.111550
C14   C     C_R   0.498172 0.498898 0.126308 0.107387
C15   C     C_1   0.504530 0.501570 0.963078 -0.024800
C16   C     C_1   0.500507 0.499729 0.037119 -0.023022
C17   C     C_R   0.203529 0.500629 0.479261 0.881285
C18   C     C_R   0.796478 0.500397 0.520737 0.899064
C19   C     C_2   0.038213 0.501360 0.467710 -0.357500
C20   C     C_2   0.961835 0.501419 0.532357 -0.356879
C21   C     C_R   0.550890 0.855094 0.544358 0.124932
C22   C     C_R   0.313390 0.160893 0.446526 0.140089
C23   C     C_R   0.575317 0.775933 0.545821 0.017057
C24   C     C_R   0.334118 0.240476 0.446537 0.034728
C25   C     C_R   0.473757 0.729386 0.493744 -0.151020
C26   C     C_R   0.456702 0.272137 0.501639 -0.142947
C27   C     C_R   0.350565 0.763186 0.438538 0.021708
C28   C     C_R   0.535300 0.225445 0.565692 0.064267
C29   C     C_R   0.308165 0.839863 0.452363 0.094429
C30   C     C_R   0.476972 0.150989 0.577995 0.089200
C31   C     C_R   0.415438 0.885944 0.501178 0.002641
C32   C     C_R   0.386179 0.116692 0.511739 -0.008198
Cu1   Cu    Cu3+1 0.499990 0.499980 0.580420 0.957371
Cu2   Cu    Cu3+1 0.500010 0.500020 0.419580 0.945506
H1    H     H_    0.979028 0.501404 0.405538 0.193214
H2    H     H_    0.020944 0.502126 0.594575 0.195106
H3    H     H_    0.692266 0.582510 0.869716 0.145475
H4    H     H_    0.324594 0.411455 0.129815 0.146766
H5    H     H_    0.687222 0.576703 0.719364 0.145711
H6    H     H_    0.328156 0.414415 0.279521 0.119987
H7    H     H_    0.324280 0.419200 0.853736 0.161276
H8    H     H_    0.669329 0.586585 0.146949 0.161990
N1    N     N_R   0.499960 0.499970 0.701210 -0.179650
N2    N     N_R   0.500040 0.500030 0.298790 -0.181572
O1    O     O_R   0.499990 0.391240 0.567930 -0.553400
O2    O     O_R   0.500010 0.608760 0.432070 -0.570477
O3    O     O_R   0.500000 0.391270 0.432120 -0.596101
O4    O     O_R   0.500000 0.608730 0.567880 -0.583280
O5    O     O_R   0.274830 0.499990 0.552240 -0.550046
O6    O     O_R   0.725170 0.500010 0.447760 -0.548356
O7    O     O_R   0.274840 0.500020 0.416420 -0.607308
O8    O     O_R   0.725160 0.499980 0.583580 -0.596774
I1    I     I_    0.720660 0.930702 0.606563 -0.515781
I2    I     I_    0.166072 0.105820 0.350518 -0.439452
C33   C     C_3   0.716810 0.743200 0.598575 -0.357310
C34   C     C_3   0.695152 0.741582 0.689384 -0.308873
C35   C     C_3   0.845053 0.720204 0.743358 -0.853947
H9    H     H_    0.891283 0.665806 0.723873 0.245405
H10   H     H_    0.932793 0.765536 0.739501 0.272759
H11   H     H_    0.823395 0.713842 0.807911 0.241429
H12   H     H_    0.657363 0.797816 0.708480 0.249467
H13   H     H_    0.602912 0.700409 0.699535 0.219337
H14   H     H_    0.745056 0.685122 0.580347 0.187638
H15   H     H_    0.820057 0.777287 0.589057 0.219261
C36   C     C_3   0.218355 0.289245 0.391251 -0.381387
C37   C     C_3   0.061811 0.291124 0.423791 -0.354800
C38   C     C_3   0.936032 0.324517 0.360165 -0.793003
H16   H     H_    0.971428 0.381054 0.337982 0.245544
H17   H     H_    0.913266 0.286020 0.307377 0.267754
H18   H     H_    0.827892 0.331076 0.387795 0.251906
H19   H     H_    0.025512 0.233208 0.441461 0.252127
H20   H     H_    0.072870 0.326795 0.479086 0.224431
H21   H     H_    0.254666 0.348767 0.386585 0.205150
H22   H     H_    0.206008 0.267933 0.327861 0.225486
C39   C     C_3   0.273763 0.714688 0.367318 -0.363979
C40   C     C_3   0.179772 0.752536 0.291932 -0.381602
C41   C     C_3   0.154608 0.697912 0.220333 -0.806862
H23   H     H_    0.266539 0.682592 0.200145 0.254825
H24   H     H_    0.095973 0.645258 0.238382 0.271099
H25   H     H_    0.081060 0.725587 0.168030 0.247890
H26   H     H_    0.063396 0.767905 0.305236 0.252998
H27   H     H_    0.242205 0.803317 0.272064 0.233000
H28   H     H_    0.369807 0.689066 0.340119 0.252810
H29   H     H_    0.204737 0.668412 0.391689 0.195254
C42   C     C_3   0.682585 0.255304 0.616149 -0.361782
C43   C     C_3   0.809741 0.195111 0.638416 -0.378293
C44   C     C_3   0.970189 0.230052 0.649891 -0.802924
H30   H     H_    0.994651 0.258474 0.592509 0.259200
H31   H     H_    0.978470 0.271800 0.699835 0.278350
H32   H     H_    0.057422 0.184792 0.666667 0.251047
H33   H     H_    0.795603 0.167781 0.697983 0.228829
H34   H     H_    0.805040 0.151563 0.590214 0.250934
H35   H     H_    0.733151 0.300454 0.579809 0.200794
H36   H     H_    0.654610 0.283221 0.671957 0.202387
C45   C     C_3   0.148466 0.872413 0.421287 -0.367162
C46   C     C_3   0.018177 0.825884 0.452452 -0.380269
C47   C     C_3   0.860546 0.851532 0.409794 -0.760112
H37   H     H_    0.838319 0.911398 0.424820 0.279692
H38   H     H_    0.854558 0.846826 0.342472 0.253164
H39   H     H_    0.769254 0.814712 0.430100 0.258184
H40   H     H_    0.030885 0.764220 0.442486 0.236505
H41   H     H_    0.023046 0.833737 0.519378 0.232230
H42   H     H_    0.134214 0.930911 0.442769 0.222756
H43   H     H_    0.132551 0.880198 0.354215 0.199978
C48   C     C_3   0.500288 0.108304 0.660436 -0.379535
C49   C     C_3   0.453567 0.155722 0.730358 -0.351819
C50   C     C_3   0.445460 0.106848 0.807157 -0.819056
H44   H     H_    0.355900 0.062012 0.795089 0.257641
H45   H     H_    0.558976 0.079758 0.827579 0.261329
H46   H     H_    0.414879 0.143051 0.856921 0.249721
H47   H     H_    0.538306 0.201592 0.746536 0.229334
H48   H     H_    0.338823 0.182022 0.711182 0.241851
H49   H     H_    0.426110 0.056757 0.657649 0.218421
H50   H     H_    0.618483 0.085916 0.675051 0.213727
I3    I     I_    0.249910 0.373884 0.679789 -0.487225
I4    I     I_    0.747744 0.629693 0.320983 -0.467518

loop_
_geom_bond_atom_site_label_1
_geom_bond_atom_site_label_2
_ccdc_geom_bond_type
C21   I1    S    
C44   H30   S    
C5    H3    S    
C27   C29   A    
Cu1   O1    S    
C45   C46   S    
C33   C34   S    
C1    O1    A    
C17   O7    A    
C47   H37   S    
C18   O8    A    
C22   I2    S    
C49   H48   S    
C41   H23   S    
C2    O2    A    
Cu1   O8    S    
C21   C31   A    
Cu2   O7    S    
C22   C32   A    
C48   H49   S    
C24   C26   A    
C46   H41   S    
C43   H33   S    
C39   H29   S    
C35   H10   S    
C49   C50   S    
Cu1   O5    S    
C15   C16   T    
C36   H21   S    
C34   C35   S    
C18   C20   S    
C12   H8    S    
C42   H35   S    
C37   H20   S    
C19   C20   D    
C33   H14   S    
C50   H44   S    
C6    H4    S    
Cu2   O2    S    
C14   C16   S    
C7    N1    A    
C5    C13   A    
C37   C38   S    
C46   H40   S    
C46   C47   S    
C50   H45   S    
C27   C39   S    
C47   H38   S    
C45   H42   S    
C49   H47   S    
C41   H24   S    
C21   C23   A    
C9    N1    A    
Cu2   O6    S    
C10   N2    A    
C38   H16   S    
C9    I3    S    
C48   H50   S    
Cu2   N2    S    
C40   C41   S    
C17   O5    A    
C5    C7    A    
C43   C44   S    
C1    O3    A    
C35   H11   S    
C6    C8    A    
C2    O4    A    
C42   C43   S    
C36   H22   S    
C38   H17   S    
Cu1   N1    S    
C39   C40   S    
C6    C14   A    
C42   H36   S    
C37   H19   S    
C33   H15   S    
Cu1   Cu2   S    
C3    C31   S    
C9    C11   A    
C4    C32   S    
C10   C12   A    
C24   C36   S    
C12   C14   A    
C13   C15   S    
C30   C48   S    
C1    C26   S    
C50   H46   S    
C34   H13   S    
C40   H27   S    
C3    C4    T    
C47   H39   S    
C10   I4    S    
C45   H43   S    
C18   O6    A    
C29   C45   S    
C41   H25   S    
C8    N2    A    
C40   H26   S    
C23   C33   S    
C25   C27   A    
C48   C49   S    
C26   C28   A    
C38   H18   S    
C44   H31   S    
C29   C31   A    
C43   H34   S    
C30   C32   A    
C11   C13   A    
C39   H28   S    
C35   H9    S    
C28   C30   A    
C17   C19   S    
C11   H7    S    
C2    C25   S    
C22   C24   A    
C23   C25   A    
C20   H2    S    
C36   C37   S    
C44   H32   S    
C28   C42   S    
Cu1   O4    S    
C7    H5    S    
C34   H12   S    
C19   H1    S    
Cu2   O3    S    
C8    H6    S    
