data_mof_unit_47669.cif
_audit_creation_date              2012-12-10T17:37:19-0500
_audit_creation_method            fapswitch 2.2
_symmetry_space_group_name_H-M    P1
_symmetry_Int_Tables_number       1
_space_group_crystal_system       triclinic
_cell_length_a                    12.328766
_cell_length_b                    13.182722
_cell_length_c                    15.848896
_cell_angle_alpha                 77.904116
_cell_angle_beta                  101.075577
_cell_angle_gamma                 116.574903
_cell_volume                      2238.28857435

loop_
_atom_site_label
_atom_site_type_symbol
_atom_type_description
_atom_site_fract_x
_atom_site_fract_y
_atom_site_fract_z
_atom_type_partial_charge
C1    C     C_R   0.854854 0.286598 0.507422 0.772717
C2    C     C_3   0.998837 0.499611 0.916948 0.130863
C3    C     C_3   0.115564 0.557732 0.034510 -0.215286
C4    C     C_3   0.001120 0.501397 0.082846 0.164167
C5    C     C_3   0.045737 0.608897 0.959139 -0.135103
C6    C     C_3   0.931194 0.552338 0.008835 -0.215336
C7    C     C_1   0.998333 0.499593 0.825169 -0.052689
C8    C     C_1   0.001448 0.500678 0.174749 -0.016557
C9    C     C_R   0.275456 0.021291 0.385316 -0.187858
C10   C     C_R   0.228028 0.834446 0.469757 -0.048328
C11   C     C_R   0.815291 0.085330 0.563573 -0.187738
C12   C     C_R   0.999404 0.499745 0.659928 0.820971
C13   C     C_R   0.736528 0.970497 0.580518 -0.145355
C14   C     C_R   0.613213 0.932767 0.550377 -0.181629
C15   C     C_R   0.566416 0.009424 0.499184 0.078590
C16   C     C_R   0.649844 0.123780 0.473528 0.081644
C17   C     C_R   0.439806 0.976064 0.471732 0.072788
C18   C     C_R   0.400090 0.053229 0.412904 0.163360
C19   C     C_R   0.485277 0.160280 0.380506 -0.237466
C20   C     C_R   0.608352 0.194412 0.409181 -0.190456
C21   C     C_R   0.351038 0.868408 0.501509 -0.252664
C22   C     C_R   0.189736 0.911967 0.413153 -0.195140
C23   C     C_R   0.145086 0.713363 0.487442 0.794038
C24   C     C_R   0.772893 0.163600 0.512176 -0.097613
C25   C     C_R   0.345247 0.327349 0.636837 -0.300239
C26   C     C_R   0.760375 0.646047 0.383897 0.079832
C27   C     C_R   0.664360 0.678186 0.358719 -0.253129
C28   C     C_R   0.560559 0.623090 0.402361 -0.190538
C29   C     C_R   0.551643 0.534712 0.472302 -0.006764
C30   C     C_R   0.652815 0.505093 0.496020 0.286573
C31   C     C_R   0.446931 0.475046 0.519723 -0.037492
C32   C     C_R   0.445832 0.387368 0.589317 0.175680
C33   C     C_R   0.545284 0.360271 0.611539 -0.279623
C34   C     C_R   0.000509 0.500153 0.340073 0.819102
C35   C     C_R   0.646571 0.418189 0.566325 -0.176576
C36   C     C_R   0.342437 0.498142 0.501577 0.024359
C37   C     C_R   0.245784 0.354311 0.615744 0.075672
C38   C     C_3   0.955380 0.394886 0.039213 0.456202
C39   C     C_3   0.883851 0.443084 0.964851 -0.222600
C40   C     C_1   0.998501 0.499667 0.749569 -0.183806
C41   C     C_1   0.001319 0.500287 0.250408 -0.172469
C42   C     C_3   0.069131 0.448505 0.990660 -0.222192
Cu1   Cu    Cu3+1 0.098270 0.475420 0.519690 0.939623
Cu2   Cu    Cu3+1 0.901730 0.524580 0.480310 0.925099
H1    H     H_    0.789147 0.394576 0.935850 0.138682
H2    H     H_    0.374968 0.808104 0.548978 0.148431
H3    H     H_    0.909246 0.113309 0.592598 0.150860
H4    H     H_    0.770579 0.910726 0.619625 0.142862
H5    H     H_    0.670308 0.275761 0.378150 0.179505
H6    H     H_    0.545242 0.293685 0.664994 0.150925
H7    H     H_    0.343689 0.260122 0.690052 0.135513
H8    H     H_    0.335209 0.563127 0.449882 0.123995
H9    H     H_    0.840643 0.689350 0.349706 0.124918
H10   H     H_    0.489076 0.651492 0.380102 0.136981
H11   H     H_    0.670418 0.746046 0.305197 0.147492
H12   H     H_    0.718326 0.391982 0.589402 0.205870
H13   H     H_    0.875406 0.595399 0.017486 0.144854
H14   H     H_    0.210210 0.605157 0.064105 0.145288
H15   H     H_    0.124055 0.404327 0.982514 0.139116
H16   H     H_    0.094624 0.886649 0.387746 0.149715
H17   H     H_    0.456708 0.218050 0.332605 0.148548
H18   H     H_    0.244725 0.079790 0.340266 0.139609
N1    N     N_R   0.246280 0.438200 0.549540 -0.180178
N2    N     N_R   0.754330 0.561180 0.450980 -0.207043
O1    O     O_R   0.972510 0.318130 0.524770 -0.579094
O2    O     O_R   0.806530 0.359650 0.491510 -0.606511
O3    O     O_R   0.082970 0.479240 0.637550 -0.575710
O4    O     O_R   0.916990 0.520750 0.604290 -0.591246
O5    O     O_R   0.193470 0.640350 0.508490 -0.588138
O6    O     O_R   0.027490 0.681870 0.475230 -0.587126
O7    O     O_R   0.083010 0.479250 0.395710 -0.572434
O8    O     O_R   0.917030 0.520760 0.362450 -0.588477
H19   H     H_    0.557797 0.842553 0.566691 0.130080
H20   H     H_    0.167720 0.308303 0.652093 0.120602
O9    O     O_3   0.908311 0.283271 0.083481 -0.732713
H21   H     H_    0.886388 0.232737 0.038757 0.311145
H22   H     H_    0.083208 0.697765 0.924389 0.137050

loop_
_geom_bond_atom_site_label_1
_geom_bond_atom_site_label_2
_ccdc_geom_bond_type
C37   H20   S    
C3    C42   S    
C30   N2    A    
C23   O5    A    
Cu2   O2    S    
C19   C20   A    
C6    H13   S    
C4    C8    S    
Cu1   N1    S    
Cu2   N2    S    
C12   O4    A    
C26   C27   A    
C20   H5    S    
C30   C35   A    
C28   C29   A    
C19   H17   S    
C38   C42   S    
C22   H16   S    
C5    C6    S    
C27   H11   S    
C9    C22   A    
C15   C16   A    
C11   C24   A    
C18   C19   A    
C26   N2    A    
O9    H21   S    
C25   C37   A    
C11   H3    S    
C2    C39   S    
C2    C7    S    
C1    O1    A    
C7    C40   T    
Cu2   O6    S    
C36   N1    A    
C36   H8    S    
Cu1   O1    S    
C39   H1    S    
C25   C32   A    
C16   C24   A    
C13   C14   A    
C23   O6    A    
C34   C41   S    
C37   N1    A    
C1    O2    A    
C38   O9    S    
C10   C21   A    
C12   O3    A    
C9    H18   S    
C14   H19   S    
C8    C41   T    
C4    C6    S    
C28   H10   S    
C33   H6    S    
C10   C22   A    
C12   C40   S    
Cu1   Cu2   S    
C25   H7    S    
C29   C30   A    
C31   C32   A    
C14   C15   A    
C16   C20   A    
C17   C18   A    
C4    C38   S    
Cu2   O4    S    
C2    C5    S    
C5    H22   S    
C3    C4    S    
C26   H9    S    
C34   O8    A    
C21   H2    S    
C15   C17   A    
Cu1   O7    S    
C35   H12   S    
C6    C39   S    
C3    C5    S    
C42   H15   S    
C13   H4    S    
C10   C23   S    
C32   C33   A    
C29   C31   A    
C11   C13   A    
C38   C39   S    
C2    C42   S    
C33   C35   A    
Cu2   O8    S    
C17   C21   A    
C3    H14   S    
C9    C18   A    
C1    C24   S    
Cu1   O3    S    
C27   C28   A    
C31   C36   A    
Cu1   O5    S    
C34   O7    A    
