data_mof_unit_41539.cif
_audit_creation_date              2013-03-05T15:55:34-0500
_audit_creation_method            fapswitch 2.2
_symmetry_space_group_name_H-M    P1
_symmetry_Int_Tables_number       1
_space_group_crystal_system       triclinic
_cell_length_a                    13.972628
_cell_length_b                    14.038632
_cell_length_c                    31.770602
_cell_angle_alpha                 90.274476
_cell_angle_beta                  90.014089
_cell_angle_gamma                 120.277966
_cell_volume                      5381.8135027

loop_
_atom_site_label
_atom_site_type_symbol
_atom_site_description
_atom_site_fract_x
_atom_site_fract_y
_atom_site_fract_z
_atom_type_partial_charge
O1    O     O_R   0.480350 0.140770 0.796330 -0.540571
O2    O     O_R   0.660420 0.519650 0.703670 -0.546035
O3    O     O_R   0.859230 0.339580 0.796330 -0.543557
O4    O     O_R   0.480350 0.140770 0.703670 -0.539689
O5    O     O_R   0.660420 0.519650 0.796330 -0.541828
O6    O     O_R   0.859230 0.339580 0.703670 -0.542549
O7    O     O_R   0.140770 0.480350 0.296330 -0.540110
O8    O     O_R   0.519650 0.660420 0.203670 -0.539619
O9    O     O_R   0.339580 0.859230 0.296330 -0.538483
O10   O     O_R   0.140770 0.480350 0.203670 -0.540937
O11   O     O_R   0.519650 0.660420 0.296330 -0.538622
O12   O     O_R   0.339580 0.859230 0.203670 -0.558467
O13   O     O_R   0.514930 0.348530 0.793250 -0.518708
O14   O     O_R   0.833600 0.485070 0.706750 -0.524728
O15   O     O_R   0.651470 0.166400 0.793250 -0.520284
O16   O     O_R   0.514930 0.348530 0.706750 -0.523597
O17   O     O_R   0.833600 0.485070 0.793250 -0.509056
O18   O     O_R   0.651470 0.166400 0.706750 -0.524321
O19   O     O_R   0.348530 0.514930 0.293250 -0.524090
O20   O     O_R   0.485070 0.833600 0.206750 -0.499848
O21   O     O_R   0.166400 0.651470 0.293250 -0.522030
O22   O     O_R   0.348530 0.514930 0.206750 -0.519859
O23   O     O_R   0.485070 0.833600 0.293250 -0.521152
O24   O     O_R   0.166400 0.651470 0.206750 -0.524366
C1    C     C_R   0.565507 0.445968 0.809935 0.815317
C2    C     C_R   0.880149 0.433969 0.690107 0.766980
C3    C     C_R   0.554189 0.119375 0.809483 0.778710
C4    C     C_R   0.564647 0.445471 0.690436 0.780562
C5    C     C_R   0.877166 0.432874 0.810229 0.823775
C6    C     C_R   0.553770 0.120226 0.689835 0.772798
C7    C     C_R   0.445901 0.566299 0.310075 0.780606
C8    C     C_R   0.431276 0.875379 0.188865 0.811301
C9    C     C_R   0.120427 0.554398 0.310133 0.774161
C10   C     C_R   0.445950 0.565816 0.189994 0.777322
C11   C     C_R   0.435808 0.881376 0.309498 0.781038
C12   C     C_R   0.119953 0.554269 0.190235 0.771531
C13   C     C_1   0.036189 0.515178 0.017322 -0.045661
C14   C     C_1   0.519912 0.007634 0.479536 -0.048296
C15   C     C_1   0.471871 0.486604 0.017779 -0.043859
C16   C     C_1   0.005176 0.527226 0.481783 -0.039457
C17   C     C_1   0.526515 0.030670 0.019577 -0.047884
C18   C     C_1   0.490653 0.497635 0.482184 -0.037266
C19   C     C_1   0.520607 0.010564 0.517392 -0.037174
C20   C     C_1   0.023582 0.510121 0.979989 -0.040522
C21   C     C_1   0.492922 0.495930 0.520047 -0.045801
C22   C     C_1   0.530934 0.041991 0.982171 -0.049651
C23   C     C_1   0.003279 0.525396 0.519630 -0.039490
C24   C     C_1   0.472448 0.483885 0.979974 -0.055133
Cr1   Cr    Cr6+3 0.504240 0.249200 0.750000 0.948364
Cr2   Cr    Cr6+3 0.744960 0.495760 0.750000 0.940706
Cr3   Cr    Cr6+3 0.750800 0.255040 0.750000 0.949348
Cr4   Cr    Cr6+3 0.249200 0.504240 0.250000 0.942117
Cr5   Cr    Cr6+3 0.495760 0.744960 0.250000 0.955162
Cr6   Cr    Cr6+3 0.255040 0.750800 0.250000 0.934886
O25   O     O_3   0.666667 0.333333 0.750000 -0.316892
O26   O     O_3   0.333333 0.666667 0.250000 -0.319587
H1    H     H_    0.978868 0.350332 0.068778 0.132811
H2    H     H_    0.414853 0.069578 0.426721 0.133940
H3    H     H_    0.637839 0.624912 0.064374 0.129597
H4    H     H_    0.960390 0.357557 0.433949 0.137171
H5    H     H_    0.426959 0.086995 0.074478 0.130263
H6    H     H_    0.656443 0.614412 0.430830 0.136535
H7    H     H_    0.355906 0.984094 0.564750 0.132523
H8    H     H_    0.129641 0.484357 0.916365 0.130622
H9    H     H_    0.604249 0.660102 0.574344 0.134247
H10   H     H_    0.362573 0.996406 0.933124 0.133958
H11   H     H_    0.026191 0.383773 0.565591 0.127672
H12   H     H_    0.603657 0.647381 0.932890 0.135264
C25   C     C_R   0.925996 0.467977 0.852422 -0.127710
C26   C     C_R   0.530410 0.055929 0.649614 -0.195666
C27   C     C_R   0.520761 0.468275 0.849413 -0.223623
C28   C     C_R   0.947422 0.477779 0.650779 -0.191976
C29   C     C_R   0.535904 0.058419 0.849553 -0.216815
C30   C     C_R   0.518555 0.466116 0.651385 -0.211490
C31   C     C_R   0.484840 0.949716 0.348313 -0.213050
C32   C     C_R   0.059311 0.535071 0.149748 -0.205603
C33   C     C_R   0.467808 0.524538 0.350098 -0.193186
C34   C     C_R   0.467035 0.929575 0.146880 -0.169386
C35   C     C_R   0.055643 0.533573 0.350083 -0.198201
C36   C     C_R   0.467664 0.523484 0.149883 -0.225809
C37   C     C_R   0.862834 0.486447 0.882770 0.295979
C38   C     C_R   0.615942 0.044957 0.630081 0.285164
C39   C     C_R   0.423892 0.380402 0.868229 0.312720
C40   C     C_R   0.961821 0.576592 0.632502 0.286953
C41   C     C_R   0.629078 0.066769 0.871034 0.311812
C42   C     C_R   0.432476 0.375788 0.628860 0.311517
C43   C     C_R   0.571617 0.944556 0.369700 0.315010
C44   C     C_R   0.072007 0.627388 0.126639 0.297838
C45   C     C_R   0.377625 0.436842 0.371836 0.283433
C46   C     C_R   0.531279 0.900646 0.121099 0.279592
C47   C     C_R   0.049950 0.622375 0.369427 0.290877
C48   C     C_R   0.379998 0.427967 0.130378 0.304056
C49   C     C_R   0.898655 0.508192 0.925220 0.008131
C50   C     C_R   0.612991 0.026602 0.586266 0.073315
C51   C     C_R   0.406154 0.381857 0.912140 0.081237
C52   C     C_R   0.984576 0.596211 0.589179 0.082313
C53   C     C_R   0.630377 0.064911 0.915210 0.072912
C54   C     C_R   0.421431 0.383935 0.584838 0.080294
C55   C     C_R   0.583534 0.960929 0.413871 0.077192
C56   C     C_R   0.064190 0.621782 0.082546 0.073428
C57   C     C_R   0.384098 0.425842 0.415593 0.073529
C58   C     C_R   0.556546 0.937702 0.079306 0.034140
C59   C     C_R   0.034955 0.622953 0.413242 0.080265
C60   C     C_R   0.380690 0.412531 0.086552 0.074360
C61   C     C_R   0.993721 0.503377 0.936659 0.034580
C62   C     C_R   0.521757 0.013735 0.562683 0.017363
C63   C     C_R   0.476493 0.479340 0.934781 -0.010708
C64   C     C_R   0.998436 0.520086 0.564872 0.018046
C65   C     C_R   0.534883 0.046215 0.937230 0.009858
C66   C     C_R   0.491659 0.486380 0.565261 -0.005597
C67   C     C_R   0.519545 0.999402 0.434305 -0.000024
C68   C     C_R   0.040786 0.523187 0.062158 0.007796
C69   C     C_R   0.483855 0.496447 0.436906 0.018615
C70   C     C_R   0.517413 0.005146 0.063432 0.023297
C71   C     C_R   0.009098 0.528058 0.436500 0.014185
C72   C     C_R   0.472088 0.489875 0.063003 0.003970
C73   C     C_R   0.056533 0.486775 0.906554 -0.191099
C74   C     C_R   0.428925 0.003258 0.583182 -0.205207
C75   C     C_R   0.556449 0.573378 0.914291 -0.177819
C76   C     C_R   0.005844 0.435597 0.584452 -0.210005
C77   C     C_R   0.437227 0.018425 0.915526 -0.190587
C78   C     C_R   0.559548 0.580229 0.589406 -0.188646
C79   C     C_R   0.454327 0.029710 0.411017 -0.191089
C80   C     C_R   0.008093 0.427736 0.085281 -0.202006
C81   C     C_R   0.578466 0.567269 0.414162 -0.206598
C82   C     C_R   0.456123 0.036305 0.088596 -0.173766
C83   C     C_R   0.989781 0.432338 0.415854 -0.208091
C84   C     C_R   0.566677 0.571572 0.083382 -0.194357
C85   C     C_R   0.025279 0.470952 0.864124 0.005682
C86   C     C_R   0.429504 0.019373 0.626753 0.058816
C87   C     C_R   0.580569 0.570686 0.871634 0.054391
C88   C     C_R   0.984870 0.415310 0.627568 0.046507
C89   C     C_R   0.434388 0.016566 0.871481 0.053850
C90   C     C_R   0.570470 0.571981 0.632813 0.060320
C91   C     C_R   0.437338 0.006932 0.367823 0.046631
C92   C     C_R   0.010860 0.430794 0.129287 0.054666
C93   C     C_R   0.573139 0.581425 0.370708 0.047161
C94   C     C_R   0.425974 0.996481 0.129811 0.011802
C95   C     C_R   0.013972 0.432976 0.373019 0.047899
C96   C     C_R   0.568666 0.586265 0.127225 0.042157
O27   O     O_3   0.764932 0.479303 0.869672 -0.642514
H13   H     H_    0.713532 0.461352 0.893474 0.286290
O28   O     O_3   0.703298 0.051703 0.652879 -0.654679
H14   H     H_    0.675104 0.019559 0.681010 0.280380
O29   O     O_3   0.346683 0.293829 0.844106 -0.654572
H15   H     H_    0.341648 0.323528 0.816464 0.278208
O30   O     O_3   0.953070 0.654683 0.655993 -0.659235
H16   H     H_    0.983193 0.656670 0.684430 0.286024
O31   O     O_3   0.720291 0.078190 0.849710 -0.644385
H17   H     H_    0.693974 0.036916 0.822782 0.286427
O32   O     O_3   0.359922 0.280446 0.649566 -0.662545
H18   H     H_    0.341461 0.301855 0.676838 0.285238
O33   O     O_3   0.645104 0.925228 0.347707 -0.659664
H19   H     H_    0.660619 0.964867 0.320564 0.287734
O34   O     O_3   0.095988 0.724965 0.146096 -0.654470
H20   H     H_    0.053156 0.706011 0.172647 0.288345
O35   O     O_3   0.280792 0.363227 0.351453 -0.653974
H21   H     H_    0.301640 0.344126 0.324202 0.281225
O36   O     O_3   0.563882 0.830062 0.136331 -0.639885
H22   H     H_    0.526651 0.762764 0.118566 0.282185
O37   O     O_3   0.061304 0.710584 0.346534 -0.659148
H23   H     H_    0.025333 0.682045 0.318813 0.286932
O38   O     O_3   0.292424 0.348790 0.153327 -0.649058
H24   H     H_    0.321373 0.343440 0.181167 0.285433
C97   C     C_3   0.078213 0.720189 0.057728 -0.329760
C98   C     C_3   0.198119 0.792942 0.043291 -0.269080
C99   C     C_3   0.210004 0.888925 0.017008 -0.805898
H25   H     H_    0.158056 0.857672 0.988149 0.231113
H26   H     H_    0.184559 0.939730 0.035542 0.228848
H27   H     H_    0.297529 0.941867 0.007482 0.224892
H28   H     H_    0.253415 0.825793 0.071238 0.219244
H29   H     H_    0.224246 0.743710 0.024036 0.193708
H30   H     H_    0.021895 0.691936 0.030038 0.167983
H31   H     H_    0.053143 0.770318 0.076886 0.199605
C100  C     C_3   0.661487 0.939415 0.440964 -0.342486
C101  C     C_3   0.723132 0.887728 0.419598 -0.245642
C102  C     C_3   0.782338 0.855565 0.451836 -0.861590
H32   H     H_    0.842772 0.928777 0.470259 0.243124
H33   H     H_    0.720572 0.792558 0.473370 0.236115
H34   H     H_    0.827666 0.820094 0.435537 0.221778
H35   H     H_    0.662704 0.811719 0.402567 0.232857
H36   H     H_    0.786414 0.947618 0.397563 0.224332
H37   H     H_    0.723827 0.018697 0.455816 0.167995
H38   H     H_    0.610687 0.882343 0.466506 0.171839
C103  C     C_3   0.286394 0.310106 0.066117 -0.326993
C104  C     C_3   0.178312 0.313165 0.065126 -0.264535
C105  C     C_3   0.080592 0.199666 0.054042 -0.812007
H39   H     H_    0.089373 0.176141 0.021494 0.237671
H40   H     H_    0.075855 0.136714 0.076325 0.233501
H41   H     H_    0.002042 0.200649 0.056398 0.214374
H42   H     H_    0.162147 0.338450 0.096202 0.235794
H43   H     H_    0.184861 0.374174 0.041424 0.187982
H44   H     H_    0.306473 0.297574 0.033586 0.156854
H45   H     H_    0.274456 0.237225 0.083820 0.190316
C106  C     C_3   0.051251 0.726434 0.435002 -0.338128
C107  C     C_3   0.172366 0.798575 0.448825 -0.281523
C108  C     C_3   0.190550 0.901375 0.472225 -0.825570
H46   H     H_    0.166052 0.950391 0.452367 0.229822
H47   H     H_    0.141016 0.878427 0.501468 0.237502
H48   H     H_    0.279280 0.952976 0.480910 0.226079
H49   H     H_    0.196367 0.751050 0.469911 0.197529
H50   H     H_    0.227052 0.823933 0.420751 0.213188
H51   H     H_    0.027612 0.774148 0.413879 0.203385
H52   H     H_    0.995784 0.704174 0.462695 0.168940
C109  C     C_3   0.623650 0.902739 0.052121 -0.337340
C110  C     C_3   0.746696 0.967147 0.064201 -0.276083
C111  C     C_3   0.813721 0.932906 0.036653 -0.818176
H53   H     H_    0.778576 0.842463 0.038434 0.231405
H54   H     H_    0.812609 0.956383 0.003399 0.231779
H55   H     H_    0.900799 0.974166 0.047822 0.232341
H56   H     H_    0.779324 0.056979 0.060294 0.185913
H57   H     H_    0.757356 0.951431 0.097638 0.226383
H58   H     H_    0.591112 0.812802 0.054983 0.167473
H59   H     H_    0.615426 0.914548 0.018192 0.169403
C112  C     C_3   0.283009 0.340130 0.439125 -0.326183
C113  C     C_3   0.215217 0.390472 0.455718 -0.279220
C114  C     C_3   0.107551 0.302669 0.475583 -0.814272
H60   H     H_    0.052313 0.242997 0.451312 0.230841
H61   H     H_    0.125154 0.257655 0.499974 0.231256
H62   H     H_    0.064597 0.342172 0.490656 0.224497
H63   H     H_    0.264196 0.454839 0.479709 0.193468
H64   H     H_    0.195255 0.429754 0.429493 0.219547
H65   H     H_    0.230249 0.268429 0.418394 0.209848
H66   H     H_    0.308342 0.306018 0.465482 0.154877
C115  C     C_3   0.705542 0.016246 0.565925 -0.319932
C116  C     C_3   0.811936 0.128579 0.562400 -0.264998
C117  C     C_3   0.910310 0.115013 0.550769 -0.815678
H67   H     H_    0.919047 0.059640 0.573343 0.243940
H68   H     H_    0.899795 0.080828 0.518447 0.233503
H69   H     H_    0.987330 0.196415 0.552092 0.213700
H70   H     H_    0.801008 0.178996 0.538066 0.186315
H71   H     H_    0.830459 0.173808 0.592754 0.227624
H72   H     H_    0.720636 0.959229 0.585102 0.194463
H73   H     H_    0.681933 0.977997 0.534217 0.155106
C118  C     C_3   0.838291 0.539848 0.957635 -0.361163
C119  C     C_3   0.857461 0.655410 0.948707 -0.282223
C120  C     C_3   0.808892 0.693703 0.983362 -0.826050
H74   H     H_    0.719500 0.633315 0.987619 0.239623
H75   H     H_    0.852833 0.703526 0.013620 0.227152
H76   H     H_    0.818648 0.774480 0.974538 0.221445
H77   H     H_    0.947924 0.715187 0.946561 0.196591
H78   H     H_    0.818656 0.655469 0.918262 0.213982
H79   H     H_    0.748524 0.477906 0.958579 0.161079
H80   H     H_    0.866237 0.539986 0.990218 0.186272
C121  C     C_3   0.336982 0.289183 0.556947 -0.341604
C122  C     C_3   0.262838 0.176147 0.577104 -0.253748
C123  C     C_3   0.188806 0.090454 0.544490 -0.865785
H81   H     H_    0.125916 0.109380 0.532326 0.243062
H82   H     H_    0.239481 0.088929 0.517933 0.245201
H83   H     H_    0.145025 0.007670 0.559246 0.223480
H84   H     H_    0.316226 0.147593 0.591437 0.228671
H85   H     H_    0.208116 0.181683 0.601175 0.225909
H86   H     H_    0.282379 0.316418 0.542604 0.174138
H87   H     H_    0.383753 0.276886 0.531231 0.170671
C124  C     C_3   0.732873 0.079466 0.937829 -0.338603
C125  C     C_3   0.828888 0.199106 0.936129 -0.256584
C126  C     C_3   0.929614 0.211076 0.959690 -0.794336
H88   H     H_    0.908527 0.189758 0.993283 0.230905
H89   H     H_    0.956788 0.155899 0.945730 0.231076
H90   H     H_    0.999313 0.297228 0.957842 0.229916
H91   H     H_    0.852744 0.225299 0.903010 0.239538
H92   H     H_    0.802947 0.254498 0.950881 0.189862
H93   H     H_    0.715718 0.055206 0.971269 0.169094
H94   H     H_    0.758389 0.023432 0.923447 0.187708
C127  C     C_3   0.995071 0.698897 0.569338 -0.333986
C128  C     C_3   0.882839 0.677158 0.552853 -0.278409
C129  C     C_3   0.891066 0.782119 0.535546 -0.807245
H95   H     H_    0.934543 0.851852 0.558032 0.237141
H96   H     H_    0.936441 0.805080 0.505255 0.237032
H97   H     H_    0.806323 0.767546 0.530390 0.223334
H98   H     H_    0.852469 0.613545 0.527532 0.191560
H99   H     H_    0.821192 0.645384 0.578665 0.215523
H100  H     H_    0.029181 0.768039 0.592482 0.200799
H101  H     H_    0.055641 0.726457 0.543206 0.164625
C130  C     C_3   0.315017 0.284318 0.936676 -0.340623
C131  C     C_3   0.254102 0.171585 0.914534 -0.243470
C132  C     C_3   0.181368 0.079863 0.945163 -0.852938
H102  H     H_    0.231925 0.077504 0.971653 0.238864
H103  H     H_    0.114906 0.093207 0.957743 0.235927
H104  H     H_    0.142290 0.999044 0.928537 0.228198
H105  H     H_    0.199215 0.172029 0.889341 0.233402
H106  H     H_    0.316286 0.153073 0.901179 0.223286
H107  H     H_    0.354822 0.272616 0.964915 0.170074
H108  H     H_    0.253313 0.306712 0.947687 0.168940
C133  C     C_3   0.960905 0.322441 0.153034 -0.314306
C134  C     C_3   0.838457 0.245710 0.141415 -0.343420
C135  C     C_3   0.787216 0.141135 0.167868 -0.754984
H109  H     H_    0.830190 0.093976 0.161943 0.231280
H110  H     H_    0.792749 0.162054 0.201847 0.220249
H111  H     H_    0.698612 0.088768 0.159409 0.229954
H112  H     H_    0.791533 0.289249 0.146882 0.201431
H113  H     H_    0.829930 0.221410 0.107713 0.191907
H114  H     H_    0.008912 0.280841 0.146007 0.192237
H115  H     H_    0.963143 0.336250 0.187479 0.191480
C136  C     C_3   0.378366 0.054220 0.343030 -0.345384
C137  C     C_3   0.254180 0.994684 0.352603 -0.266373
C138  C     C_3   0.193807 0.035111 0.324331 -0.764278
H116  H     H_    0.104252 0.990837 0.332287 0.223956
H117  H     H_    0.227686 0.124969 0.329068 0.228628
H118  H     H_    0.202856 0.018763 0.290741 0.228550
H119  H     H_    0.218107 0.904855 0.347778 0.263102
H120  H     H_    0.241406 0.009740 0.385851 0.184838
H121  H     H_    0.415643 0.143078 0.351273 0.161485
H122  H     H_    0.391992 0.051677 0.308710 0.178333
C139  C     C_3   0.675886 0.669056 0.149633 -0.294637
C140  C     C_3   0.784294 0.699783 0.126530 -0.355992
C141  C     C_3   0.884392 0.776031 0.153766 -0.773758
H123  H     H_    0.880621 0.850291 0.163350 0.230258
H124  H     H_    0.887001 0.732174 0.182361 0.224099
H125  H     H_    0.961533 0.803858 0.135524 0.239630
H126  H     H_    0.787360 0.624150 0.118591 0.204901
H127  H     H_    0.790427 0.744928 0.097203 0.199763
H128  H     H_    0.675406 0.746451 0.155749 0.237299
H129  H     H_    0.678719 0.633142 0.180436 0.176867
C142  C     C_3   0.994182 0.324775 0.354087 -0.291992
C143  C     C_3   0.903859 0.281700 0.320000 -0.308339
C144  C     C_3   0.887214 0.174895 0.300417 -0.769578
H130  H     H_    0.963452 0.190411 0.283625 0.236801
H131  H     H_    0.867178 0.111834 0.325102 0.236027
H132  H     H_    0.817547 0.142308 0.277568 0.203843
H133  H     H_    0.824468 0.265668 0.334290 0.190538
H134  H     H_    0.925880 0.343622 0.294709 0.192276
H135  H     H_    0.072220 0.332493 0.342189 0.236930
H136  H     H_    0.966277 0.260220 0.378754 0.155127
C145  C     C_3   0.343380 0.016551 0.154224 -0.299058
C146  C     C_3   0.303175 0.088949 0.133733 -0.365117
C147  C     C_3   0.214502 0.091746 0.161095 -0.744477
H137  H     H_    0.145174 0.006753 0.167072 0.227297
H138  H     H_    0.250707 0.133013 0.191666 0.224918
H139  H     H_    0.179541 0.137070 0.144812 0.249026
H140  H     H_    0.373955 0.174248 0.129705 0.202345
H141  H     H_    0.265018 0.053939 0.102602 0.197469
H142  H     H_    0.267297 0.935218 0.158575 0.243536
H143  H     H_    0.380065 0.053092 0.185409 0.169081
C148  C     C_3   0.681278 0.657934 0.348228 -0.314421
C149  C     C_3   0.706131 0.597792 0.313188 -0.290349
C150  C     C_3   0.805960 0.678690 0.287184 -0.781899
H144  H     H_    0.786822 0.735907 0.270026 0.237315
H145  H     H_    0.879029 0.727413 0.307851 0.238712
H146  H     H_    0.826458 0.632630 0.263823 0.202531
H147  H     H_    0.723631 0.536048 0.327538 0.187205
H148  H     H_    0.634025 0.553353 0.291689 0.183516
H149  H     H_    0.681072 0.731617 0.336037 0.222123
H150  H     H_    0.752036 0.691430 0.370732 0.157067
C151  C     C_3   0.320667 0.994971 0.646931 -0.315070
C152  C     C_3   0.282258 0.904044 0.680213 -0.299258
C153  C     C_3   0.179434 0.888579 0.703124 -0.762548
H151  H     H_    0.199261 0.964537 0.721045 0.234313
H152  H     H_    0.111892 0.869923 0.680296 0.244548
H153  H     H_    0.150317 0.819036 0.725545 0.202550
H154  H     H_    0.262514 0.825096 0.664603 0.190143
H155  H     H_    0.348450 0.924361 0.703861 0.188332
H156  H     H_    0.326462 0.070871 0.660096 0.231663
H157  H     H_    0.253834 0.965554 0.622795 0.150475
C154  C     C_3   0.098883 0.455714 0.832908 -0.334243
C155  C     C_3   0.211286 0.562115 0.828210 -0.312173
C156  C     C_3   0.286684 0.545757 0.797931 -0.797271
H158  H     H_    0.302028 0.480211 0.809661 0.227785
H159  H     H_    0.248297 0.522545 0.766129 0.225719
H160  H     H_    0.367448 0.623769 0.795440 0.215641
H161  H     H_    0.197980 0.628526 0.815899 0.198053
H162  H     H_    0.253749 0.588932 0.859221 0.198851
H163  H     H_    0.111648 0.387945 0.844089 0.189220
H164  H     H_    0.060725 0.431632 0.801225 0.177096
C157  C     C_3   0.627022 0.676783 0.659157 -0.340589
C158  C     C_3   0.754328 0.732854 0.658849 -0.210472
C159  C     C_3   0.808419 0.840575 0.634320 -0.806978
H165  H     H_    0.776310 0.825605 0.601609 0.229181
H166  H     H_    0.790734 0.901242 0.649699 0.247147
H167  H     H_    0.899588 0.875699 0.633621 0.228499
H168  H     H_    0.785841 0.751801 0.691755 0.189039
H169  H     H_    0.780888 0.676816 0.645508 0.242379
H170  H     H_    0.599264 0.734152 0.648147 0.171782
H171  H     H_    0.597321 0.657948 0.692195 0.141602
C160  C     C_3   0.323381 0.967512 0.848797 -0.307932
C161  C     C_3   0.239572 0.851568 0.864945 -0.335129
C162  C     C_3   0.132540 0.799467 0.839214 -0.783163
H172  H     H_    0.093845 0.851785 0.840750 0.232780
H173  H     H_    0.149550 0.789233 0.805862 0.220794
H174  H     H_    0.073329 0.717008 0.852166 0.227411
H175  H     H_    0.276530 0.797701 0.863081 0.197421
H176  H     H_    0.217897 0.855607 0.898273 0.196310
H177  H     H_    0.288677 0.022692 0.852625 0.189594
H178  H     H_    0.334111 0.959078 0.814611 0.186088
C163  C     C_3   0.006108 0.328688 0.646951 -0.307173
C164  C     C_3   0.096505 0.379036 0.681043 -0.299799
C165  C     C_3   0.114738 0.291074 0.701295 -0.768608
H179  H     H_    0.038054 0.228944 0.717439 0.239321
H180  H     H_    0.137966 0.249099 0.677064 0.231304
H181  H     H_    0.182619 0.330130 0.724887 0.206807
H182  H     H_    0.175548 0.442713 0.666645 0.188393
H183  H     H_    0.073756 0.419509 0.706050 0.191664
H184  H     H_    0.928678 0.257974 0.659133 0.225339
H185  H     H_    0.035216 0.292180 0.622527 0.160799
C166  C     C_3   0.672081 0.674383 0.850486 -0.298932
C167  C     C_3   0.707919 0.784997 0.872787 -0.377992
C168  C     C_3   0.791748 0.881386 0.846146 -0.745515
H186  H     H_    0.864511 0.872132 0.839031 0.223742
H187  H     H_    0.752988 0.885361 0.816176 0.224001
H188  H     H_    0.821382 0.959906 0.863660 0.244944
H189  H     H_    0.634606 0.794399 0.878549 0.207409
H190  H     H_    0.748633 0.788936 0.903262 0.196685
H191  H     H_    0.746851 0.666295 0.847327 0.217385
H192  H     H_    0.642221 0.679619 0.818593 0.176853

loop_
_geom_bond_atom_site_label_1
_geom_bond_atom_site_label_2
_geom_bond_distance
_ccdc_geom_bond_type
C35   C95   1.430149 A    
O35   H21   0.991460 S    
C38   C50   1.411267 A    
C125  H92   1.112018 S    
C57   C69   1.408454 A    
C64   C76   1.391186 A    
C164  H182  1.112078 S    
C165  H181  1.110558 S    
O29   H15   0.991501 S    
C157  H170  1.113131 S    
C101  H36   1.111360 S    
C33   C45   1.422923 A    
C156  H158  1.110758 S    
C134  H112  1.112112 S    
C68   C80   1.391510 A    
C168  H187  1.110746 S    
H12   C75   1.080044 S    
C161  H176  1.110389 S    
C123  H83   1.110450 S    
C106  H51   1.111498 S    
O24   Cr6   1.898897 S    
O28   H14   0.991156 S    
C94   C145  1.529399 S    
C2    C28   1.499312 S    
C108  H47   1.106480 S    
C162  H174  1.110325 S    
C39   O29   1.377247 S    
C163  H185  1.112110 S    
C111  H55   1.108583 S    
C43   O33   1.376823 S    
C146  C147  1.530235 S    
O15   Cr3   1.907512 S    
H11   C76   1.083372 S    
C85   C154  1.518996 S    
C52   C64   1.405998 A    
O19   C7    1.289729 A    
C121  C122  1.534227 S    
C62   C74   1.391848 A    
O7    C9    1.283513 A    
O18   Cr3   1.898412 S    
C28   C88   1.429482 A    
C5    C25   1.469510 S    
C44   O34   1.378334 S    
O16   Cr1   1.913986 S    
C54   C121  1.533744 S    
C167  H190  1.109776 S    
H7    C74   1.085193 S    
C110  C111  1.524613 S    
C149  C150  1.526484 S    
C121  H86   1.109766 S    
C139  H129  1.112800 S    
C151  H156  1.107064 S    
C143  C144  1.526018 S    
C18   C21   1.204024 T    
C36   C48   1.420530 A    
C144  H132  1.109613 S    
C112  C113  1.531791 S    
C58   C70   1.405808 A    
O10   Cr4   2.014009 S    
O15   C3    1.283802 A    
C117  H67   1.111114 S    
C140  C141  1.526944 S    
C151  C152  1.535553 S    
H9    C78   1.084205 S    
O14   C2    1.297812 A    
C118  H79   1.109375 S    
C28   C40   1.424193 A    
C102  H32   1.109430 S    
O5    C1    1.279379 A    
C137  C138  1.525708 S    
C124  H93   1.106102 S    
C109  H59   1.106133 S    
C156  H160  1.110752 S    
C165  H179  1.110881 S    
C150  H146  1.110520 S    
C100  H37   1.112346 S    
C40   O30   1.378840 S    
C45   C57   1.407397 A    
C47   C59   1.408360 A    
C107  C108  1.523094 S    
C160  C161  1.539522 S    
C45   O35   1.378824 S    
O4    Cr1   2.015201 S    
C13   C20   1.195573 T    
C97   H31   1.110412 S    
C14   C19   1.203083 T    
C100  C101  1.534606 S    
C157  C158  1.540122 S    
C65   C77   1.396319 A    
O14   Cr2   1.905487 S    
C131  H106  1.108760 S    
C57   C112  1.515646 S    
C116  H71   1.108347 S    
C30   C90   1.415853 A    
C159  H167  1.110444 S    
Cr3   O25   1.973063 S    
C26   C38   1.422029 A    
C41   C53   1.404158 A    
C48   C60   1.408897 A    
C148  C149  1.536088 S    
C110  H57   1.111182 S    
C105  H39   1.109541 S    
O21   C9    1.296870 A    
C25   C85   1.416187 A    
O34   H20   0.991126 S    
O9    Cr6   2.010852 S    
C126  H89   1.110975 S    
C104  C105  1.525679 S    
O31   H17   0.991515 S    
C158  H168  1.111999 S    
C98   H29   1.111622 S    
O30   H16   0.990896 S    
C148  H149  1.107649 S    
C139  H128  1.106187 S    
C152  H154  1.112096 S    
C99   H26   1.110673 S    
C20   C61   1.427149 S    
C137  H120  1.108318 S    
C166  H191  1.110847 S    
C155  H161  1.111304 S    
O24   C12   1.287817 A    
C115  H73   1.108173 S    
O7    Cr4   2.016897 S    
C128  H98   1.111548 S    
C70   C82   1.392361 A    
C129  H97   1.107275 S    
C24   C63   1.439316 S    
C119  C120  1.524580 S    
C126  H88   1.108929 S    
C46   O36   1.372307 S    
O3    C5    1.279289 A    
C91   C136  1.515400 S    
C78   C90   1.399200 A    
C149  H148  1.110231 S    
O2    Cr2   2.019350 S    
C50   C115  1.516643 S    
C158  C159  1.524636 S    
C102  H33   1.109776 S    
C75   C87   1.401508 A    
C1    C27   1.502054 S    
C73   C85   1.398656 A    
C35   C47   1.425077 A    
C60   C72   1.406978 A    
C132  H102  1.109956 S    
C138  H117  1.110882 S    
C145  H143  1.112288 S    
C92   C133  1.520138 S    
O23   Cr5   1.905266 S    
C27   C39   1.426498 A    
C122  H84   1.107987 S    
O22   C10   1.292314 A    
C93   C148  1.522554 S    
C147  H138  1.110738 S    
C114  H60   1.110675 S    
Cr1   O25   1.960287 S    
C106  C107  1.532813 S    
C79   C91   1.400303 A    
C56   C97   1.518618 S    
C19   C62   1.439220 S    
C119  H77   1.112453 S    
C142  H136  1.112708 S    
C53   C65   1.409871 A    
O32   H18   0.991659 S    
C55   C67   1.412967 A    
C135  H110  1.109780 S    
O8    C10   1.276019 A    
C29   C41   1.421022 A    
C95   C142  1.520909 S    
C48   O38   1.378798 S    
C127  H100  1.111980 S    
C117  H68   1.109278 S    
C139  C140  1.537519 S    
C146  H141  1.111255 S    
C136  H121  1.112480 S    
O20   C8    1.295902 A    
Cr5   O26   1.960459 S    
C31   C43   1.423294 A    
C122  C123  1.524325 S    
C164  H183  1.110419 S    
C165  H180  1.110802 S    
O8    Cr5   2.017317 S    
C86   C151  1.522559 S    
C129  H95   1.109568 S    
C41   O31   1.380002 S    
C140  H126  1.111816 S    
C134  H113  1.110166 S    
C126  H90   1.107984 S    
C132  H103  1.110017 S    
C84   C96   1.405315 A    
C3    C29   1.486058 S    
C168  H186  1.111156 S    
C153  H153  1.110125 S    
O6    C2    1.281389 A    
C108  H46   1.109176 S    
C90   C157  1.518256 S    
C162  H173  1.110414 S    
C143  H134  1.110446 S    
C163  H184  1.107529 S    
C131  C132  1.526669 S    
C23   C64   1.439494 S    
C132  H104  1.110774 S    
C111  H54   1.110631 S    
C100  H38   1.112334 S    
C107  H49   1.111824 S    
C54   C66   1.415592 A    
O17   C5    1.285258 A    
C130  C131  1.534500 S    
C103  H45   1.106543 S    
C4    C30   1.493083 S    
C112  H66   1.109246 S    
O37   H23   0.991030 S    
C34   C46   1.416481 A    
C114  H62   1.109195 S    
C154  H164  1.107484 S    
H2    C79   1.084056 S    
O22   Cr4   1.905196 S    
C33   C93   1.428960 A    
O21   Cr6   1.908976 S    
C31   C91   1.415256 A    
C16   C71   1.439607 S    
C26   C86   1.430037 A    
C51   C130  1.535144 S    
C104  H42   1.108770 S    
C144  H131  1.110874 S    
C113  H63   1.111481 S    
C105  H41   1.107108 S    
C150  H145  1.110194 S    
O19   Cr4   1.903664 S    
C50   C62   1.408938 A    
O38   H24   0.991314 S    
C133  H115  1.108157 S    
C118  C119  1.533101 S    
C7    C33   1.497384 S    
H5    C82   1.081211 S    
C53   C124  1.520591 S    
C160  H178  1.110367 S    
C109  H58   1.109676 S    
C142  C143  1.534517 S    
C156  H159  1.111323 S    
C125  H91   1.110731 S    
C61   C73   1.394260 A    
C59   C106  1.515558 S    
C63   C75   1.391438 A    
C6    C26   1.498608 S    
C157  H171  1.111776 S    
C123  H82   1.108659 S    
C150  H144  1.111116 S    
C101  H35   1.109070 S    
C80   C92   1.398467 A    
C67   C79   1.397338 A    
C111  H53   1.108360 S    
C167  C168  1.527280 S    
C168  H188  1.109012 S    
C153  H151  1.110976 S    
O3    Cr3   2.009847 S    
C21   C66   1.442637 S    
C9    C35   1.501027 S    
C106  H52   1.109567 S    
C81   C93   1.403023 A    
C36   C96   1.427921 A    
H8    C73   1.084754 S    
C141  H123  1.111164 S    
C108  H48   1.109174 S    
C59   C71   1.405521 A    
C133  C134  1.536645 S    
C74   C86   1.400937 A    
O36   H22   0.990410 S    
H10   C77   1.083052 S    
C159  H166  1.110629 S    
C44   C56   1.403829 A    
C51   C63   1.410730 A    
C143  H133  1.112109 S    
C56   C68   1.406155 A    
O23   C11   1.285498 A    
O5    Cr2   2.017428 S    
C158  H169  1.107963 S    
C136  C137  1.530432 S    
C163  C164  1.536170 S    
C52   C127  1.514128 S    
C161  H175  1.111493 S    
H4    C83   1.082769 S    
O20   Cr5   1.913795 S    
C167  H189  1.111965 S    
H6    C81   1.083861 S    
C166  C167  1.539258 S    
C152  H155  1.110332 S    
C121  H87   1.112219 S    
C155  H162  1.111485 S    
C151  H157  1.112786 S    
C115  H72   1.109597 S    
C141  H125  1.108218 S    
C164  C165  1.525982 S    
C147  H137  1.111241 S    
C128  H99   1.108983 S    
C42   O32   1.375672 S    
C66   C78   1.397794 A    
H1    C80   1.081405 S    
C129  H96   1.108705 S    
C103  C104  1.532616 S    
C145  C146  1.534383 S    
C42   C54   1.418538 A    
C118  H80   1.105965 S    
C25   C37   1.415816 A    
C124  H94   1.110926 S    
C15   C72   1.437283 S    
C22   C65   1.429229 S    
O9    C11   1.287041 A    
C47   O37   1.377762 S    
O10   C12   1.285380 A    
O12   Cr6   2.021925 S    
C15   C24   1.201644 T    
O16   C4    1.287220 A    
C16   C23   1.202839 T    
C97   C98   1.529653 S    
C138  H116  1.110580 S    
C145  H142  1.109292 S    
C159  H165  1.108190 S    
C17   C70   1.429926 S    
C32   C92   1.419592 A    
C122  H85   1.111362 S    
C109  C110  1.532815 S    
C49   C118  1.530841 S    
C60   C103  1.518296 S    
C11   C31   1.495315 S    
C134  C135  1.525259 S    
C69   C81   1.392901 A    
C131  H105  1.110584 S    
C97   H30   1.109971 S    
C116  H70   1.111830 S    
C71   C83   1.390875 A    
C40   C52   1.409588 A    
C119  H78   1.108960 S    
C13   C68   1.427223 S    
C12   C32   1.486951 S    
C10   C36   1.497976 S    
C110  H56   1.111499 S    
C46   C58   1.407116 A    
C154  C155  1.535173 S    
C17   C22   1.197249 T    
O18   C6    1.294810 A    
O6    Cr3   2.018704 S    
C127  C128  1.530398 S    
C32   C44   1.423898 A    
O11   Cr5   2.025475 S    
C49   C61   1.411250 A    
C37   O27   1.383991 S    
C96   C139  1.528998 S    
O11   C7    1.277182 A    
C98   H28   1.111061 S    
C99   H25   1.111166 S    
O12   C8    1.273817 A    
C88   C163  1.522197 S    
O13   C1    1.292142 A    
C83   C95   1.401326 A    
C89   C160  1.522170 S    
C34   C94   1.433039 A    
C148  H150  1.112389 S    
C99   H27   1.106976 S    
C43   C55   1.417084 A    
C137  H119  1.106802 S    
Cr6   O26   1.973508 S    
C166  H192  1.112470 S    
C135  H111  1.107059 S    
C87   C166  1.529182 S    
C113  C114  1.522774 S    
H3    C84   1.080712 S    
C27   C87   1.429064 A    
C140  H127  1.108188 S    
C141  H124  1.110719 S    
C149  H147  1.111955 S    
C153  H152  1.110773 S    
C37   C49   1.415712 A    
C18   C69   1.441081 S    
C102  H34   1.110391 S    
C39   C51   1.418827 A    
C125  C126  1.526151 S    
C115  C116  1.532058 S    
C55   C100  1.533712 S    
C30   C42   1.421145 A    
C130  H108  1.112187 S    
C162  H172  1.110975 S    
O13   Cr1   1.904315 S    
C101  C102  1.522459 S    
C29   C89   1.416532 A    
C116  C117  1.525033 S    
C120  H75   1.110491 S    
C135  H109  1.110868 S    
C98   C99   1.525014 S    
C138  H118  1.111073 S    
C120  H76   1.109185 S    
C107  H50   1.111425 S    
C124  C125  1.533771 S    
C130  H107  1.111103 S    
C161  C162  1.526594 S    
C82   C94   1.405139 A    
C76   C88   1.401117 A    
C103  H44   1.107259 S    
C38   O28   1.380497 S    
C112  H65   1.111591 S    
O17   Cr2   1.906083 S    
C147  H139  1.107941 S    
C123  H81   1.108330 S    
C114  H61   1.105279 S    
C154  H163  1.112400 S    
Cr2   O25   1.969987 S    
O33   H19   0.991656 S    
O27   H13   0.985263 S    
C152  C153  1.525984 S    
C155  C156  1.526555 S    
C104  H43   1.111835 S    
C144  H130  1.110948 S    
C58   C109  1.525256 S    
C113  H64   1.111541 S    
C105  H40   1.110679 S    
C128  C129  1.524386 S    
C8    C34   1.494827 S    
C127  H101  1.108361 S    
C117  H69   1.106906 S    
C72   C84   1.394741 A    
C133  H114  1.111166 S    
C146  H140  1.111636 S    
O1    C3    1.281701 A    
O2    C4    1.281518 A    
C77   C89   1.399637 A    
C14   C67   1.440902 S    
C120  H74   1.109279 S    
O1    Cr1   2.025943 S    
O4    C6    1.275217 A    
Cr4   O26   1.969368 S    
C142  H135  1.106813 S    
C136  H122  1.110428 S    
C160  H177  1.108121 S    
