data_mof_unit_47197.cif
_audit_creation_date              2012-12-11T15:45:17-0500
_audit_creation_method            fapswitch 2.2
_symmetry_space_group_name_H-M    P1
_symmetry_Int_Tables_number       1
_space_group_crystal_system       triclinic
_cell_length_a                    8.678039
_cell_length_b                    19.321998
_cell_length_c                    23.143287
_cell_angle_alpha                 98.665232
_cell_angle_beta                  91.020046
_cell_angle_gamma                 95.569584
_cell_volume                      3816.11823695

loop_
_atom_site_label
_atom_site_type_symbol
_atom_type_description
_atom_site_fract_x
_atom_site_fract_y
_atom_site_fract_z
_atom_type_partial_charge
Ba1   Ba    Ba6+2 0.850680 0.532880 0.472010 1.609104
Ba2   Ba    Ba6+2 0.339140 0.467180 0.527990 1.584500
C1    C     C_3   0.606210 0.761497 0.275169 -0.183017
C2    C     C_3   0.616241 0.707946 0.317874 0.406831
C3    C     C_3   0.512648 0.350177 0.344845 0.291272
C4    C     C_3   0.500147 0.314854 0.280065 0.011620
C5    C     C_3   0.993371 0.276707 0.671939 0.351754
C6    C     C_3   0.949829 0.219433 0.709322 -0.343717
C7    C     C_3   0.467649 0.289990 0.677152 0.401558
C8    C     C_3   0.410533 0.238635 0.719278 -0.193930
C9    C     C_R   0.329087 0.515201 0.330823 -0.327357
C10   C     C_R   0.156670 0.540775 0.937389 -0.039771
C11   C     C_R   0.136462 0.534884 0.876254 0.586898
C12   C     C_3   0.170740 0.741784 0.314449 0.375145
C13   C     C_R   0.978887 0.426804 0.872287 0.603316
C14   C     C_R   0.020128 0.424381 0.932175 -0.014662
C15   C     C_R   0.100912 0.484617 0.965607 -0.091050
C16   C     C_R   0.237039 0.600867 0.970278 -0.068777
C17   C     C_R   0.256518 0.607546 0.031401 0.059125
C18   C     C_R   0.204061 0.549940 0.060565 -0.013188
C19   C     C_R   0.135328 0.487147 0.026459 -0.069117
C20   C     C_R   0.984778 0.364164 0.959914 0.151861
C21   C     C_R   0.032314 0.365002 0.018629 -0.106615
C22   C     C_R   0.106223 0.426192 0.052531 -0.036713
C23   C     C_3   0.118774 0.784830 0.265023 0.140157
C24   C     C_R   0.156898 0.427246 0.111373 0.581417
C25   C     C_R   0.219668 0.551990 0.122271 0.568218
C26   C     C_2   0.798318 0.478589 0.773530 -0.006447
C27   C     C_3   0.740967 0.483914 0.711094 -0.018152
C28   C     C_1   0.006322 0.516897 0.685882 0.086449
C29   C     C_2   0.041778 0.535201 0.744067 0.029473
C30   C     C_2   0.954238 0.495359 0.788034 0.169499
C31   C     C_R   0.398427 0.522294 0.230245 0.085924
C32   C     C_R   0.437010 0.535058 0.290616 -0.013269
C33   C     C_R   0.182099 0.481793 0.312837 0.056438
C34   C     C_3   0.184054 0.706547 0.625261 0.315246
C35   C     C_R   0.137765 0.471719 0.251560 -0.045182
C36   C     C_R   0.245532 0.494471 0.209879 0.227259
C37   C     C_2   0.874458 0.476511 0.669732 -0.188678
C38   C     C_R   0.414661 0.698801 0.466052 -0.287945
C39   C     C_R   0.546109 0.722506 0.502862 0.098808
C40   C     C_R   0.596083 0.795450 0.513585 0.072048
C41   C     C_R   0.505109 0.844415 0.492472 -0.018288
C42   C     C_R   0.364944 0.819244 0.461013 -0.150094
C43   C     C_R   0.318493 0.746878 0.447918 -0.012537
C44   C     C_R   0.606191 0.948110 0.448104 -0.109463
C45   C     C_3   0.080397 0.770067 0.642200 0.052937
C46   C     C_R   0.656244 0.019523 0.449185 0.111259
C47   C     C_R   0.655073 0.067220 0.502181 0.025031
C48   C     C_R   0.608869 0.040871 0.553530 0.125995
C49   C     C_R   0.561396 0.968228 0.552345 0.125923
C50   C     C_R   0.559273 0.921264 0.498654 -0.008040
C51   C     C_R   0.846866 0.173024 0.529650 -0.134588
C52   C     C_R   0.895050 0.244751 0.532361 0.006684
C53   C     C_R   0.651490 0.263162 0.486947 0.056159
C54   C     C_R   0.601453 0.189874 0.482918 -0.008948
C55   C     C_R   0.701038 0.144649 0.504817 0.035559
C56   C     C_3   0.999965 0.316356 0.398748 0.335838
C57   C     C_R   0.797980 0.288557 0.510971 -0.291770
C58   C     C_3   0.009895 0.236319 0.383061 -0.062133
C59   C     C_3   0.688818 0.647666 0.657749 0.536448
C60   C     C_3   0.727542 0.691048 0.718995 -0.032525
H1    H     H_    0.957219 0.752444 0.631430 0.134382
H2    H     H_    0.879878 0.326771 0.409859 -0.020405
H3    H     H_    0.078930 0.336085 0.437262 0.047671
H4    H     H_    0.002422 0.212713 0.423872 0.063939
H5    H     H_    0.710956 0.800459 0.277811 0.092339
H6    H     H_    0.832435 0.727608 0.717009 0.107462
H7    H     H_    0.751069 0.655594 0.751031 0.015677
H8    H     H_    0.496257 0.688430 0.327235 -0.065581
H9    H     H_    0.510710 0.792520 0.290639 0.058989
H10   H     H_    0.402742 0.372930 0.357054 -0.022899
H11   H     H_    0.610702 0.392350 0.351619 0.054777
H12   H     H_    0.399963 0.273715 0.274705 0.109906
H13   H     H_    0.883937 0.285637 0.649338 0.000384
H14   H     H_    0.054860 0.204574 0.730502 0.116737
H15   H     H_    0.871382 0.238379 0.744014 0.120109
H16   H     H_    0.890208 0.172441 0.681585 0.095866
H17   H     H_    0.363320 0.312512 0.662610 0.104646
H18   H     H_    0.338142 0.192777 0.694608 0.101446
H19   H     H_    0.337523 0.265320 0.752010 0.099141
H20   H     H_    0.007302 0.317694 0.038103 0.115738
H21   H     H_    0.280758 0.644113 0.948251 0.108791
H22   H     H_    0.363483 0.522751 0.376719 0.077083
H23   H     H_    0.277535 0.771427 0.337045 -0.039330
H24   H     H_    0.604783 0.912884 0.406900 0.086452
H25   H     H_    0.922979 0.139229 0.546824 0.083951
H26   H     H_    0.291100 0.856180 0.447161 0.076056
H27   H     H_    0.839639 0.342924 0.510845 0.037075
H28   H     H_    0.377067 0.643061 0.457170 0.067760
N1    N     N_R   0.023317 0.486144 0.845970 -0.418242
N2    N     N_R   0.203316 0.490640 0.147208 -0.418234
O1    O     O_2   0.896730 0.461690 0.361000 -0.457635
O2    O     O_3   0.656165 0.694698 0.619165 -0.619865
O3    O     O_3   0.050087 0.736057 0.354150 -0.592023
O4    O     O_2   0.292960 0.538340 0.639040 -0.446357
O5    O     O_3   0.052540 0.537650 0.567960 -0.520479
O6    O     O_3   0.532200 0.411510 0.604930 -0.491514
O7    O     O_3   0.140456 0.651728 0.658052 -0.651460
O8    O     O_3   0.629030 0.416090 0.471500 -0.484213
O9    O     O_3   0.120120 0.375640 0.576470 -0.495507
O10   O     O_2   0.215838 0.251613 0.530641 -0.487012
O11   O     O_3   0.108509 0.253694 0.633395 -0.608224
O12   O     O_3   0.137170 0.462400 0.432040 -0.494292
O13   O     O_3   0.560670 0.583970 0.528500 -0.505152
O14   O     O_2   0.373560 0.329680 0.473470 -0.455866
O15   O     O_3   0.537307 0.297251 0.377918 -0.669534
O16   O     O_2   0.408934 0.449687 0.709791 -0.491404
O17   O     O_3   0.578557 0.343090 0.705744 -0.613493
O18   O     O_2   0.226176 0.570617 0.850370 -0.613211
O19   O     O_2   0.906009 0.375719 0.843566 -0.586321
O20   O     O_2   0.162861 0.371664 0.129969 -0.611915
O21   O     O_2   0.247288 0.608479 0.153942 -0.656802
O22   O     O_3   0.657500 0.588540 0.395070 -0.481988
O23   O     O_2   0.753630 0.524411 0.295144 -0.462982
O24   O     O_3   0.041915 0.349311 0.350719 -0.649097
O25   O     O_3   0.701842 0.652691 0.293990 -0.570202
O26   O     O_2   0.816140 0.670340 0.526560 -0.469742
O27   O     O_3   0.069580 0.624410 0.423530 -0.455796
O28   O     O_2   0.001293 0.750314 0.464882 -0.491764
P1    P     P_3+3 0.067040 0.441110 0.370020 0.980000
P2    P     P_3+3 0.640420 0.660110 0.543790 0.974354
P3    P     P_3+3 0.114864 0.715026 0.421680 0.938817
P4    P     P_3+3 0.122660 0.558950 0.629980 0.978157
P5    P     P_3+3 0.083626 0.282988 0.566227 0.924281
P6    P     P_3+3 0.633423 0.574179 0.318784 0.993137
P7    P     P_3+3 0.547242 0.327342 0.453186 0.935534
P8    P     P_3+3 0.559776 0.424507 0.682441 0.924538
C61   C     C_3   0.691699 0.747073 0.375479 -0.288558
H29   H     H_    0.614774 0.785953 0.394548 0.020445
H30   H     H_    0.714061 0.711637 0.407004 0.160775
H31   H     H_    0.802604 0.776879 0.369296 0.137476
N3    N     N_3   0.090585 0.797813 0.705402 -0.507112
H32   H     H_    0.185875 0.835550 0.714961 0.186718
H33   H     H_    0.104023 0.758084 0.730565 0.189491
C62   C     C_3   0.111351 0.832120 0.607765 -0.425662
H34   H     H_    0.235448 0.850528 0.607743 0.120061
H35   H     H_    0.066941 0.817854 0.562285 0.155888
H36   H     H_    0.049301 0.876680 0.627572 0.141805
C63   C     C_3   0.876882 0.200842 0.341756 -0.413408
H37   H     H_    0.884256 0.221667 0.299682 0.150262
H38   H     H_    0.764014 0.209674 0.361929 0.123603
H39   H     H_    0.885605 0.143331 0.332064 0.121536
C64   C     C_3   0.163507 0.220212 0.355172 -0.340150
H40   H     H_    0.164864 0.230925 0.309360 0.132112
H41   H     H_    0.259511 0.253690 0.379922 0.144814
H42   H     H_    0.181770 0.164094 0.355196 0.096792
N4    N     N_3   0.820216 0.611543 0.638592 -0.535554
H43   H     H_    0.894916 0.646641 0.621045 0.183790
H44   H     H_    0.788778 0.574063 0.602029 0.151833
N5    N     N_3   0.556554 0.596724 0.661815 -0.459410
H45   H     H_    0.561786 0.552349 0.630341 0.204396
H46   H     H_    0.554504 0.579950 0.702630 0.143718
N6    N     N_3   0.601670 0.732206 0.739752 -0.488622
H47   H     H_    0.643445 0.768484 0.776110 0.174315
H48   H     H_    0.514838 0.698680 0.754903 0.179277
C65   C     C_3   0.470093 0.365883 0.238717 -0.396370
H49   H     H_    0.355536 0.384119 0.247816 0.099979
H50   H     H_    0.562890 0.410293 0.244068 0.131890
H51   H     H_    0.466597 0.338951 0.192713 0.174719
N7    N     N_3   0.639080 0.281454 0.262078 -0.487547
H52   H     H_    0.737552 0.312638 0.281043 0.189946
H53   H     H_    0.632532 0.232705 0.276596 0.195738
C66   C     C_3   0.579159 0.729137 0.210498 -0.392915
H54   H     H_    0.682375 0.705767 0.190954 0.137494
H55   H     H_    0.482967 0.685641 0.203668 0.156784
H56   H     H_    0.556473 0.771945 0.184972 0.111635
C67   C     C_3   0.249919 0.807984 0.226227 -0.443218
H57   H     H_    0.295631 0.761637 0.201694 0.143869
H58   H     H_    0.205503 0.837372 0.192835 0.126801
H59   H     H_    0.340482 0.844523 0.251553 0.115131
C68   C     C_3   0.056678 0.344487 0.711096 -0.311246
H60   H     H_    0.960980 0.365796 0.736671 0.128205
H61   H     H_    0.148666 0.335605 0.742262 0.110952
H62   H     H_    0.106143 0.383736 0.684479 0.130495
C69   C     C_3   0.538412 0.250681 0.623343 -0.328292
H63   H     H_    0.581124 0.288925 0.595253 0.107553
H64   H     H_    0.639832 0.223476 0.634083 0.110070
H65   H     H_    0.447866 0.212162 0.598146 0.117083
C70   C     C_3   0.538155 0.211534 0.752641 -0.389095
H66   H     H_    0.609858 0.255930 0.779123 0.184152
H67   H     H_    0.485977 0.176697 0.782604 0.115981
H68   H     H_    0.610242 0.180261 0.722528 0.123072
C71   C     C_3   0.204961 0.666193 0.290380 -0.310922
H69   H     H_    0.250141 0.641182 0.326133 0.043659
H70   H     H_    0.099793 0.633135 0.271285 0.144343
H71   H     H_    0.292437 0.666570 0.257757 0.107066
N8    N     N_3   0.903360 0.301226 0.928743 -0.442671
H72   H     H_    0.803557 0.289008 0.951273 0.171024
H73   H     H_    0.973742 0.260335 0.928990 0.171342
C72   C     C_3   0.342667 0.674852 0.062957 -0.356901
H74   H     H_    0.446368 0.662836 0.086973 0.129686
H75   H     H_    0.383083 0.711617 0.032565 0.085549
H76   H     H_    0.264805 0.702997 0.093639 0.150767
N9    N     N_3   0.520632 0.529127 0.189764 -0.486790
H77   H     H_    0.516205 0.575361 0.172227 0.194647
H78   H     H_    0.506802 0.487002 0.155542 0.172160
C73   C     C_3   0.070721 0.613571 0.765674 -0.282432
H79   H     H_    0.999545 0.642869 0.740354 0.087315
H80   H     H_    0.031787 0.628560 0.810924 0.111426
H81   H     H_    0.195249 0.632072 0.762655 0.166866
C74   C     C_3   0.678268 0.470336 0.819245 -0.289148
H82   H     H_    0.633109 0.414321 0.816598 0.168918
H83   H     H_    0.724179 0.490923 0.864157 0.090218
H84   H     H_    0.580557 0.501066 0.811408 0.115755
C75   C     C_3   0.985147 0.431319 0.229008 -0.290000
H85   H     H_    0.932412 0.456603 0.194450 0.117154
H86   H     H_    0.003138 0.376026 0.212190 0.147579
H87   H     H_    0.898135 0.426896 0.262248 0.149930
C76   C     C_3   0.840802 0.437063 0.609078 -0.292789
H88   H     H_    0.931955 0.437150 0.579347 0.158072
H89   H     H_    0.800607 0.381434 0.611407 0.059306
H90   H     H_    0.758923 0.463284 0.585323 0.125820
C77   C     C_3   0.445640 0.158662 0.456375 -0.361864
H91   H     H_    0.373785 0.198716 0.445142 0.148126
H92   H     H_    0.460372 0.121564 0.415676 0.115773
H93   H     H_    0.380823 0.129905 0.487988 0.124019
N10   N     N_3   0.707228 0.041359 0.395429 -0.506580
H94   H     H_    0.743326 0.094880 0.401080 0.172981
H95   H     H_    0.804951 0.015864 0.383196 0.166748
N11   N     N_3   0.742611 0.818496 0.543329 -0.465502
H96   H     H_    0.813787 0.844540 0.515471 0.187747
H97   H     H_    0.726422 0.854514 0.580813 0.164204
N12   N     N_3   0.608701 0.089006 0.607136 -0.521090
H98   H     H_    0.684789 0.074317 0.637189 0.167795
H99   H     H_    0.497291 0.085454 0.623727 0.193593
N13   N     N_3   0.510449 0.944900 0.605696 -0.505678
H100  H     H_    0.604491 0.953954 0.635645 0.165987
H101  H     H_    0.479478 0.890890 0.599589 0.169394
C78   C     C_3   0.996688 0.739839 0.222756 -0.390399
H102  H     H_    0.047701 0.696641 0.194334 0.153293
H103  H     H_    0.945996 0.772122 0.192484 0.105524
H104  H     H_    0.909074 0.714767 0.248345 0.186610
C79   C     C_3   0.054341 0.853712 0.293439 -0.334242
H105  H     H_    0.146076 0.889560 0.319954 0.094563
H106  H     H_    0.007579 0.882435 0.259640 0.101893
H107  H     H_    0.961830 0.843200 0.323086 0.122092
C80   C     C_3   0.349533 0.733537 0.643698 -0.276554
H108  H     H_    0.406022 0.767915 0.614160 0.053666
H109  H     H_    0.407155 0.686243 0.642143 0.174522
H110  H     H_    0.360225 0.760559 0.689384 0.120633
C81   C     C_3   0.178814 0.680390 0.560398 -0.248562
H111  H     H_    0.265360 0.642361 0.549137 0.063464
H112  H     H_    0.065283 0.654745 0.544661 0.175122
H113  H     H_    0.204446 0.726433 0.539265 0.035845

loop_
_geom_bond_atom_site_label_1
_geom_bond_atom_site_label_2
_ccdc_geom_bond_type
C6    H16   S    
C53   C54   A    
C65   H49   S    
C21   H20   S    
C53   C57   A    
C45   C62   S    
O8    P7    S    
C39   C40   A    
C17   C18   A    
C9    C32   A    
C63   H39   S    
O10   P5    D    
N12   H98   S    
C2    H8    S    
N7    H52   S    
C44   H24   S    
C5    C6    S    
C46   N10   S    
C51   C52   A    
C43   P3    S    
C10   C11   A    
C77   H91   S    
C80   H110  S    
C48   N12   S    
C66   H55   S    
C35   C36   A    
O23   P6    D    
C74   H83   S    
C7    C69   S    
C3    C4    S    
C66   H54   S    
C33   C35   A    
C59   N4    S    
O1    P1    D    
Ba1   Ba2   S    
C3    H10   S    
C62   H36   S    
C7    H17   S    
C28   C29   D    
O22   P6    S    
C75   H86   S    
C41   C50   S    
C30   N1    S    
C56   C58   S    
C13   C14   A    
C44   C50   A    
C6    H14   S    
C47   C55   S    
C71   H69   S    
C78   H104  S    
N8    H73   S    
C16   C17   A    
O26   P2    D    
C40   C41   A    
Ba1   P2    S    
O17   P8    S    
C67   H57   S    
N10   H95   S    
C9    C33   A    
C69   H65   S    
C57   H27   S    
N13   H100  S    
Ba2   O5    S    
C68   H61   S    
C14   C15   A    
C74   H84   S    
C10   C15   A    
O13   P2    S    
C46   C47   A    
O9    P5    S    
C21   C22   A    
C73   H79   S    
C40   N11   S    
C7    C8    S    
C54   C77   S    
O28   P3    D    
C61   H31   S    
C26   C74   S    
O6    P8    S    
N5    H45   S    
Ba2   O8    S    
C65   H50   S    
C20   N8    S    
C5    O11   S    
C5    C68   S    
C11   N1    Am   
N5    H46   S    
C56   O24   S    
C59   C60   S    
C79   H106  S    
C64   H42   S    
C38   H28   S    
Ba1   O8    S    
N7    H53   S    
C70   H67   S    
C4    H12   S    
C44   C46   A    
C52   C57   A    
C67   H59   S    
C23   C67   S    
C56   H2    S    
C38   C43   A    
C52   P5    S    
C80   H109  S    
C23   C78   S    
C81   H113  S    
O24   P1    S    
O4    P4    D    
C49   C50   A    
C13   O19   D    
C26   C30   D    
N4    H43   S    
C62   H35   S    
C74   H82   S    
Ba1   O5    S    
C51   C55   A    
C75   H85   S    
C62   H34   S    
C5    H13   S    
O12   P1    S    
Ba2   O9    S    
C48   C49   A    
C13   N1    Am   
O14   P7    D    
Ba2   O14   S    
C15   C19   A    
C60   N6    S    
C60   H7    S    
N8    H72   S    
C7    O17   S    
C39   P2    S    
C1    H9    S    
C41   C42   A    
C72   H75   S    
Ba1   O27   S    
N11   H96   S    
C70   H68   S    
C56   H3    S    
C81   H112  S    
C29   C30   S    
C25   O21   D    
C4    N7    S    
Ba2   O12   S    
C32   P6    S    
N4    H44   S    
C27   C37   S    
C73   H81   S    
C34   C45   S    
C16   H21   S    
C25   N2    Am   
C51   H25   S    
O16   P8    D    
C78   H103  S    
C59   N5    S    
Ba1   O12   S    
C31   N9    S    
N6    H47   S    
C1    C66   S    
C58   C63   S    
O2    P2    S    
C64   H41   S    
C69   H63   S    
N13   H101  S    
C28   P4    S    
C23   C79   S    
C47   C48   A    
C65   H51   S    
Ba2   P4    S    
C49   N13   S    
C6    H15   S    
C2    O25   S    
C27   P8    S    
C79   H105  S    
C1    C2    S    
C26   C27   S    
C24   O20   D    
C12   O3    S    
C4    C65   S    
C68   H60   S    
C61   H29   S    
C3    O15   S    
O3    P3    S    
C72   H74   S    
C54   C55   A    
C35   C75   S    
C80   H108  S    
C38   C39   A    
C14   C20   A    
C33   P1    S    
Ba2   O13   S    
C42   C43   A    
C81   H111  S    
C59   O2    S    
N6    H48   S    
C66   H56   S    
C1    H5    S    
C11   O18   D    
C22   C24   A    
C12   H23   S    
C53   P7    S    
C64   H40   S    
C34   C80   S    
N12   H99   S    
C12   C71   S    
C68   H62   S    
C2    C61   S    
C63   H38   S    
C18   C25   A    
O27   P3    S    
C9    H22   S    
O5    P4    S    
C76   H90   S    
C8    H18   S    
C8    H19   S    
C76   H89   S    
C31   C36   A    
C71   H70   S    
C71   H71   S    
C60   H6    S    
C34   C81   S    
Ba2   O4    S    
C72   H76   S    
C8    C70   S    
N11   H97   S    
C58   C64   S    
C45   H1    S    
C75   H87   S    
N10   H94   S    
N3    H32   S    
C63   H37   S    
C67   H58   S    
C31   C32   A    
C28   C37   D    
C34   O7    S    
C77   H92   S    
Ba1   O26   S    
C77   H93   S    
C12   C23   S    
C3    H11   S    
C78   H102  S    
O11   P5    S    
Ba1   P1    S    
C17   C72   S    
C58   H4    S    
N9    H77   S    
C18   C19   A    
Ba2   O6    S    
Ba1   O1    S    
C76   H88   S    
Ba1   O22   S    
C19   C22   A    
C10   C16   A    
N3    H33   S    
C20   C21   A    
O7    P4    S    
O25   P6    S    
C73   H80   S    
O15   P7    S    
N9    H78   S    
C42   H26   S    
C24   N2    Am   
C79   H107  S    
C29   C73   S    
C45   N3    S    
C70   H66   S    
C37   C76   S    
C36   N2    S    
Ba1   O13   S    
C69   H64   S    
C61   H30   S    
