data_mof_unit_27047.cif
_audit_creation_date              2013-03-05T16:13:55-0500
_audit_creation_method            fapswitch 2.2
_symmetry_space_group_name_H-M    P1
_symmetry_Int_Tables_number       1
_space_group_crystal_system       triclinic
_cell_length_a                    10.711966
_cell_length_b                    9.834299
_cell_length_c                    17.428208
_cell_angle_alpha                 89.540094
_cell_angle_beta                  90.065633
_cell_angle_gamma                 89.991293
_cell_volume                      1835.90855966

loop_
_atom_site_label
_atom_site_type_symbol
_atom_site_description
_atom_site_fract_x
_atom_site_fract_y
_atom_site_fract_z
_atom_type_partial_charge
O1    O     O_R   0.316770 0.614620 0.500000 -0.629033
O2    O     O_R   0.683230 0.385380 0.500000 -0.635301
O3    O     O_R   0.683230 0.614620 0.500000 -0.632103
O4    O     O_R   0.316770 0.385380 0.500000 -0.631438
C1    C     C_R   0.259851 0.500006 0.499933 0.939152
C2    C     C_R   0.740141 0.499994 0.499991 0.905271
O5    O     O_R   0.500010 0.614710 0.389120 -0.578005
O6    O     O_R   0.499990 0.385290 0.610880 -0.577055
O7    O     O_R   0.499990 0.614710 0.610880 -0.594964
O8    O     O_R   0.500010 0.385290 0.389120 -0.594045
C3    C     C_R   0.063961 0.378677 0.515075 -0.122756
C4    C     C_R   0.935994 0.621278 0.484603 -0.101675
C5    C     C_R   0.936108 0.378679 0.515114 -0.096153
C6    C     C_R   0.063857 0.621275 0.484556 -0.117123
C7    C     C_R   0.502470 0.500644 0.353474 1.003299
C8    C     C_R   0.501846 0.499480 0.646626 1.001764
Zn1   Zn    Zn3+2 0.500000 0.653120 0.500000 1.042229
Zn2   Zn    Zn3+2 0.500000 0.346880 0.500000 1.037371
C9    C     C_R   0.872550 0.499986 0.499907 -0.011763
C10   C     C_R   0.127420 0.499991 0.499842 -0.005673
N1    N     N_R   0.500000 0.857200 0.500000 -0.089325
N2    N     N_R   0.500000 0.142800 0.500000 -0.100450
C11   C     C_R   0.470967 0.596600 0.853440 0.216054
C12   C     C_R   0.469559 0.411810 0.145682 0.217526
C13   C     C_R   0.647279 0.566827 0.161409 0.232084
C14   C     C_R   0.644480 0.435572 0.839831 0.230432
C15   C     C_R   0.445142 0.586398 0.774827 0.198121
C16   C     C_R   0.444539 0.419057 0.224444 0.201968
C17   C     C_R   0.621734 0.574769 0.239910 0.197917
C18   C     C_R   0.617669 0.424212 0.761628 0.205713
C19   C     C_R   0.518173 0.499250 0.729372 -0.356380
C20   C     C_R   0.519958 0.501893 0.270985 -0.356036
C21   C     C_R   0.596860 0.071406 0.531652 -0.000997
C22   C     C_R   0.403711 0.928536 0.467621 -0.007337
C23   C     C_R   0.403638 0.072439 0.467698 -0.025853
C24   C     C_R   0.596620 0.927554 0.531964 -0.011794
C25   C     C_R   0.569747 0.520197 0.885151 -0.209491
C26   C     C_R   0.569753 0.487072 0.114916 -0.210674
C27   C     C_1   0.579722 0.510347 0.966108 0.230583
C28   C     C_1   0.579738 0.499252 0.034064 0.228217
H1    H     H_    0.674754 0.125322 0.556485 0.170028
H2    H     H_    0.326835 0.874494 0.441582 0.140681
H3    H     H_    0.326703 0.127267 0.441718 0.163031
H4    H     H_    0.673842 0.872761 0.557624 0.143515
H5    H     H_    0.112712 0.284441 0.527438 0.166748
H6    H     H_    0.887213 0.715479 0.472179 0.179058
H7    H     H_    0.887437 0.284477 0.527571 0.170769
H8    H     H_    0.112527 0.715491 0.472149 0.160865
N3    N     N_R   0.392897 0.678633 0.901762 0.249976
O9    O     O_R   0.442479 0.761825 0.950846 -0.291282
O10   O     O_R   0.271948 0.667992 0.898160 -0.228605
N4    N     N_R   0.389326 0.334085 0.096330 0.249946
O11   O     O_R   0.436664 0.251266 0.046283 -0.291776
O12   O     O_R   0.268683 0.347904 0.100212 -0.227315
N5    N     N_R   0.749966 0.642053 0.128799 0.253292
O13   O     O_R   0.770015 0.767561 0.148423 -0.238015
O14   O     O_R   0.824347 0.585105 0.079580 -0.258158
N6    N     N_R   0.745990 0.359480 0.873373 0.252366
O15   O     O_R   0.762248 0.232009 0.856624 -0.234031
O16   O     O_R   0.822711 0.417463 0.920922 -0.259650
N7    N     N_R   0.345520 0.664893 0.741196 0.254234
O17   O     O_R   0.262595 0.606835 0.697750 -0.354717
O18   O     O_R   0.337909 0.794962 0.753516 -0.275484
N8    N     N_R   0.343451 0.341758 0.257129 0.249607
O19   O     O_R   0.261988 0.400047 0.301402 -0.365262
O20   O     O_R   0.333052 0.212483 0.243111 -0.286703
N9    N     N_R   0.705137 0.648173 0.288942 0.231426
O21   O     O_R   0.818107 0.603584 0.300038 -0.341143
O22   O     O_R   0.674850 0.768755 0.312808 -0.316366
N10   N     N_R   0.697062 0.343686 0.713996 0.231943
O23   O     O_R   0.808181 0.387180 0.696501 -0.355400
O24   O     O_R   0.665988 0.219120 0.698364 -0.335854

loop_
_geom_bond_atom_site_label_1
_geom_bond_atom_site_label_2
_geom_bond_distance
_ccdc_geom_bond_type
C12   N4    1.439371 S    
C12   C26   1.407983 A    
N5    O13   1.301244 A    
C14   C25   1.403251 A    
O3    Zn1   1.998882 S    
N10   O23   1.300626 A    
N2    C23   1.366154 A    
C11   C15   1.401801 A    
C13   C26   1.403656 A    
O2    Zn2   1.998995 S    
C14   N6    1.440600 S    
O1    Zn1   1.998996 S    
N7    O17   1.301515 A    
C22   H2    1.081524 S    
O3    C2    1.281469 A    
O4    Zn2   1.998883 S    
N8    O19   1.301506 A    
O5    C7    1.286929 A    
C21   H1    1.080580 S    
C7    C20   1.449967 S    
C25   C27   1.417390 S    
C1    C10   1.418599 S    
C11   C25   1.407624 A    
C8    C19   1.452454 S    
C26   C28   1.417404 S    
C2    C9    1.418370 S    
C3    C5    1.369562 A    
O2    C2    1.281527 A    
O8    Zn2   1.966035 S    
C3    H5    1.083688 S    
O1    C1    1.281581 A    
C16   N8    1.438630 S    
C4    C9    1.396921 A    
O7    Zn1   1.966034 S    
C18   N10   1.432302 S    
O7    C8    1.288919 A    
N4    O12   1.301323 A    
C14   C18   1.397912 A    
C17   C20   1.410992 A    
O8    C7    1.289299 A    
N5    O14   1.301327 A    
C13   C17   1.398334 A    
C18   C19   1.410059 A    
N3    O9    1.301372 A    
Zn1   N1    2.006984 S    
C3    C10   1.396951 A    
C24   H4    1.081564 S    
C11   N3    1.439354 S    
C5    C9    1.396855 A    
N6    O16   1.301334 A    
N9    O21   1.300783 A    
C17   N9    1.434529 S    
C6    C10   1.396937 A    
C16   C20   1.408383 A    
C21   C24   1.414649 A    
C23   H3    1.081674 S    
N4    O11   1.301371 A    
C12   C16   1.401271 A    
C4    H6    1.083754 S    
C22   C23   1.415189 A    
O6    C8    1.288723 A    
N9    O22   1.300990 A    
C27   C28   1.188488 T    
C5    H7    1.083681 S    
N2    C21   1.366032 A    
C6    H8    1.083630 S    
N1    C22   1.366225 A    
C15   N7    1.438515 S    
N3    O10   1.301319 A    
N6    O15   1.301129 A    
Zn2   N2    2.006984 S    
C15   C19   1.409333 A    
N1    C24   1.365772 A    
N10   O24   1.300367 A    
N7    O18   1.301287 A    
O6    Zn2   1.971985 S    
C13   N5    1.440551 S    
C4    C6    1.369671 A    
O4    C1    1.281500 A    
O5    Zn1   1.971987 S    
N8    O20   1.301282 A    
