data_mof_unit_57554.cif
_audit_creation_date              2012-12-10T20:30:08-0500
_audit_creation_method            fapswitch 2.2
_symmetry_space_group_name_H-M    P1
_symmetry_Int_Tables_number       1
_space_group_crystal_system       triclinic
_cell_length_a                    10.112975
_cell_length_b                    10.600701
_cell_length_c                    13.115729
_cell_angle_alpha                 88.898424
_cell_angle_beta                  73.045303
_cell_angle_gamma                 88.66211
_cell_volume                      1344.47300085

loop_
_atom_site_label
_atom_site_type_symbol
_atom_type_description
_atom_site_fract_x
_atom_site_fract_y
_atom_site_fract_z
_atom_type_partial_charge
C1    C     C_R   0.499126 0.738387 0.497933 0.913635
C2    C     C_R   0.445288 0.410193 0.978646 -0.067257
C3    C     C_R   0.484677 0.409010 0.867174 -0.041806
C4    C     C_R   0.549045 0.429876 0.027334 0.129231
C5    C     C_R   0.686919 0.400857 0.970657 0.042119
C6    C     C_R   0.714859 0.342023 0.870638 -0.151555
C7    C     C_R   0.612609 0.348975 0.817389 0.262882
C8    C     C_R   0.517927 0.477166 0.130200 -0.169035
C9    C     C_R   0.761014 0.472186 0.120198 -0.033326
C10   C     C_R   0.383291 0.437025 0.815366 -0.175323
C11   C     C_R   0.579522 0.935213 0.412084 0.060780
C12   C     C_R   0.424737 0.483924 0.702351 0.932892
C13   C     C_R   0.495126 0.869970 0.498186 -0.103336
C14   C     C_R   0.413157 0.931681 0.587669 -0.190824
C15   C     C_R   0.412256 0.061788 0.589358 0.302768
C16   C     C_R   0.500298 0.127984 0.502754 -0.147093
C17   C     C_R   0.584793 0.064366 0.415315 0.065414
C18   C     C_3   0.586791 0.079663 0.301236 0.016517
C19   C     C_3   0.577723 0.936072 0.297946 0.005100
C20   C     C_R   0.931549 0.609599 0.489772 0.097416
C21   C     C_R   0.937372 0.390635 0.493031 0.398583
C22   C     C_R   0.077145 0.391383 0.496466 -0.092683
C23   C     C_R   0.500596 0.260939 0.500108 0.931131
C24   C     C_R   0.070891 0.609086 0.490904 0.102476
C25   C     C_3   0.051902 0.726913 0.554104 0.036611
C26   C     C_3   0.900744 0.727450 0.554369 0.044563
C27   C     C_R   0.576315 0.501877 0.296805 0.865882
C28   C     C_R   0.790789 0.427006 0.017018 -0.100534
C29   C     C_R   0.620974 0.488397 0.180670 -0.135323
C30   C     C_R   0.244998 0.407847 0.872201 0.275936
C31   C     C_R   0.215757 0.356179 0.976201 0.232127
C32   C     C_R   0.311881 0.367683 0.033889 -0.148951
H1    H     H_    0.493787 0.131754 0.292967 0.193222
H2    H     H_    0.133837 0.303103 0.493516 0.182599
H3    H     H_    0.113695 0.805107 0.507218 0.199982
H4    H     H_    0.824321 0.713016 0.633826 0.176204
H5    H     H_    0.895769 0.411340 0.973984 0.198438
H6    H     H_    0.411980 0.502859 0.172028 0.169520
H7    H     H_    0.348000 0.878953 0.654445 0.205201
N1    N     N_R   0.856940 0.500860 0.500710 -0.144264
N2    N     N_R   0.142580 0.500820 0.500710 -0.101740
O1    O     O_R   0.385310 0.683210 0.499990 -0.597313
O2    O     O_R   0.614650 0.683240 0.500000 -0.582212
O3    O     O_R   0.328390 0.499940 0.653610 -0.527736
O4    O     O_R   0.557730 0.499980 0.653620 -0.616780
O5    O     O_R   0.385350 0.316760 0.500000 -0.627140
O6    O     O_R   0.614690 0.316790 0.500010 -0.532289
O7    O     O_R   0.442270 0.500020 0.346380 -0.614886
O8    O     O_R   0.671610 0.500060 0.346390 -0.566429
Zn1   Zn    Zn3+2 0.346870 0.499980 0.499990 1.042451
Zn2   Zn    Zn3+2 0.653130 0.500020 0.500010 1.079993
C33   C     C_2   0.880311 0.501401 0.158717 1.003369
O9    O     O_2   0.909075 0.434228 0.226203 -0.508754
O10   O     O_R   0.966097 0.600800 0.111385 -0.769403
H8    H     H_    0.046771 0.609665 0.141784 0.366020
Br1   Br    Br    0.283987 0.141538 0.708294 -0.397460
Br2   Br    Br    0.758564 0.154547 0.218609 -0.271214
Br3   Br    Br    0.402604 0.882720 0.279951 -0.431674
C34   C     C_2   0.699074 0.867548 0.223068 1.039033
O11   O     O_2   0.775062 0.798698 0.257793 -0.583812
O12   O     O_R   0.721792 0.880832 0.113091 -0.695119
H9    H     H_    0.804825 0.829595 0.070621 0.382606
Br4   Br    Br    0.882450 0.227723 0.463480 -0.290516
Br5   Br    Br    0.071627 0.709539 0.696097 -0.382231
C35   C     C_2   0.834779 0.254359 0.831786 1.062095
O13   O     O_2   0.867493 0.181939 0.894284 -0.505176
O14   O     O_R   0.906075 0.250020 0.723103 -0.745807
H10   H     H_    0.981718 0.182598 0.705986 0.389510
Br6   Br    Br    0.863170 0.871894 0.474140 -0.336649
Br7   Br    Br    0.100287 0.418175 0.805762 -0.404183
C36   C     C_2   0.285087 0.305114 0.140131 0.989621
O15   O     O_2   0.369273 0.228800 0.156716 -0.584700
O16   O     O_R   0.163636 0.332358 0.220583 -0.735586
H11   H     H_    0.157124 0.281858 0.288159 0.359006
Br8   Br    Br    0.069549 0.237511 0.025884 -0.262713
Br9   Br    Br    0.616530 0.222699 0.713957 -0.382103

loop_
_geom_bond_atom_site_label_1
_geom_bond_atom_site_label_2
_ccdc_geom_bond_type
C27   O7    A    
C27   C29   S    
O16   H11   S    
C4    C8    A    
C11   C19   S    
C8    C29   A    
C3    C7    A    
C5    C6    A    
C20   N1    A    
C22   N2    A    
C35   O14   S    
O4    Zn2   S    
C15   C16   A    
C2    C32   A    
C18   C19   S    
C14   H7    S    
C1    O2    A    
C6    C35   S    
C20   C24   A    
C16   C17   A    
O8    Zn2   S    
C9    C29   A    
O7    Zn1   S    
C34   O11   D    
C23   O5    A    
C13   C14   A    
C24   N2    A    
C9    C33   S    
C8    H6    S    
C30   Br7   S    
C33   O10   S    
C32   C36   S    
C19   Br3   S    
C22   H2    S    
C34   O12   S    
C23   O6    A    
O14   H10   S    
C24   C25   S    
C36   O16   S    
C12   O4    A    
O6    Zn2   S    
C19   C34   S    
C25   C26   S    
C25   Br5   S    
C2    C4    A    
C5    C28   A    
C10   C30   A    
C18   Br2   S    
C31   Br8   S    
C31   C32   A    
C17   C18   S    
C6    C7    A    
C10   C12   S    
O1    Zn1   S    
C26   H4    S    
C25   H3    S    
C16   C23   S    
C1    C13   S    
N2    Zn1   S    
C33   O9    D    
O3    Zn1   S    
O10   H8    S    
C11   C17   A    
C4    C5    A    
C7    Br9   S    
N1    Zn2   S    
O5    Zn1   S    
C15   Br1   S    
C2    C3    A    
C36   O15   D    
C12   O3    A    
C3    C10   A    
C11   C13   A    
O2    Zn2   S    
C30   C31   A    
C21   N1    A    
C20   C26   S    
C28   H5    S    
O12   H9    S    
C18   H1    S    
C21   Br4   S    
C1    O1    A    
C35   O13   D    
C26   Br6   S    
C14   C15   A    
C21   C22   A    
C27   O8    A    
C9    C28   A    
