data_mof_unit_59870.cif
_audit_creation_date              2012-12-10T20:44:06-0500
_audit_creation_method            fapswitch 2.2
_symmetry_space_group_name_H-M    P1
_symmetry_Int_Tables_number       1
_space_group_crystal_system       triclinic
_cell_length_a                    17.266361
_cell_length_b                    10.670827
_cell_length_c                    9.836091
_cell_angle_alpha                 89.816223
_cell_angle_beta                  90.781458
_cell_angle_gamma                 89.55582
_cell_volume                      1812.03091647

loop_
_atom_site_label
_atom_site_type_symbol
_atom_type_description
_atom_site_fract_x
_atom_site_fract_y
_atom_site_fract_z
_atom_type_partial_charge
C1    C     C_R   0.498761 0.259999 0.500359 0.877177
C2    C     C_R   0.117753 0.387771 0.496280 0.016991
C3    C     C_R   0.510889 0.062991 0.620345 0.013692
C4    C     C_R   0.352857 0.496000 0.499142 0.878757
C5    C     C_R   0.490364 0.128514 0.502818 -0.065231
C6    C     C_R   0.457315 0.065766 0.391488 -0.228868
C7    C     C_R   0.457554 0.935968 0.390732 -0.233291
C8    C     C_R   0.489954 0.871415 0.502183 -0.090667
C9    C     C_R   0.510268 0.935423 0.620047 0.014095
C10   C     C_3   0.580590 0.926528 0.710939 0.338862
C11   C     C_3   0.581872 0.070267 0.709470 -0.572171
C12   C     C_R   0.886392 0.398118 0.490761 0.083415
C13   C     C_R   0.443263 0.438886 0.069961 0.166694
C14   C     C_R   0.549660 0.573302 0.073093 -0.151264
C15   C     C_R   0.549342 0.573796 0.928767 -0.138500
C16   C     C_R   0.498436 0.739900 0.499957 0.917725
C17   C     C_R   0.443503 0.438916 0.927380 0.213210
C18   C     C_3   0.425819 0.303264 0.919352 0.279786
C19   C     C_3   0.425237 0.302230 0.074221 -0.617947
C20   C     C_R   0.647529 0.496097 0.500795 0.886853
C21   C     C_R   0.850800 0.410761 0.616113 -0.264683
C22   C     C_R   0.773773 0.450214 0.622765 0.467127
C23   C     C_1   0.967382 0.377846 0.488169 -0.034654
C24   C     C_R   0.731324 0.472084 0.500838 -0.165430
C25   C     C_R   0.768642 0.459560 0.375146 -0.280600
C26   C     C_R   0.845970 0.423621 0.370305 -0.154498
C27   C     C_3   0.682933 0.916881 0.548460 0.097789
C28   C     C_3   0.730219 0.818916 0.471975 -0.344854
C29   C     C_3   0.780273 0.879600 0.363778 -0.960936
C30   C     C_3   0.339384 0.158789 0.828117 0.097309
C31   C     C_3   0.289211 0.151400 0.699107 -0.301706
C32   C     C_3   0.275576 0.016037 0.656058 -0.976958
C33   C     C_3   0.759816 0.573893 0.809492 0.081177
C34   C     C_1   0.036300 0.374316 0.490374 -0.008341
C35   C     C_3   0.757527 0.559164 0.964026 -0.338797
C36   C     C_3   0.761191 0.685836 0.035169 -0.987911
C37   C     C_3   0.135688 0.192460 0.263318 0.084219
C38   C     C_3   0.214706 0.148497 0.210763 -0.388482
C39   C     C_3   0.217912 0.006479 0.194248 -0.953925
C40   C     C_R   0.150743 0.436886 0.614939 -0.255646
C41   C     C_R   0.227439 0.474834 0.615876 -0.170676
C42   C     C_R   0.270683 0.466918 0.496706 -0.118827
C43   C     C_R   0.237210 0.417343 0.377916 -0.293922
C44   C     C_R   0.161623 0.373249 0.378466 0.528561
H1    H     H_    0.883291 0.393140 0.709461 0.150175
H2    H     H_    0.874364 0.416976 0.272961 0.151841
H3    H     H_    0.252589 0.511387 0.708982 0.186331
H4    H     H_    0.434755 0.116109 0.303764 0.159529
H5    H     H_    0.435881 0.886926 0.301929 0.167429
H6    H     H_    0.723729 0.986546 0.592248 0.155218
H7    H     H_    0.642493 0.963418 0.474758 0.153330
H8    H     H_    0.768327 0.766830 0.544987 0.219393
H9    H     H_    0.690371 0.751143 0.422425 0.217267
H10   H     H_    0.743137 0.925132 0.284516 0.268614
H11   H     H_    0.816850 0.806913 0.315240 0.271257
H12   H     H_    0.565091 0.888594 0.812345 0.095553
H13   H     H_    0.819019 0.950662 0.410337 0.266147
H14   H     H_    0.568941 0.110192 0.810712 0.172182
H15   H     H_    0.308537 0.114225 0.913885 0.147134
H16   H     H_    0.393644 0.104338 0.810520 0.124494
H17   H     H_    0.232435 0.197781 0.717136 0.230246
H18   H     H_    0.318369 0.201740 0.615135 0.225745
H19   H     H_    0.331512 0.968758 0.633933 0.275532
H20   H     H_    0.238781 0.014693 0.562587 0.265669
H21   H     H_    0.245654 0.963934 0.737700 0.264983
H22   H     H_    0.717253 0.646579 0.775599 0.189931
H23   H     H_    0.630445 0.117610 0.658306 0.194564
H24   H     H_    0.819007 0.606806 0.782833 0.116109
H25   H     H_    0.703659 0.510730 0.993547 0.236479
H26   H     H_    0.807329 0.500061 0.998719 0.215262
H27   H     H_    0.816411 0.733533 0.011831 0.275200
H28   H     H_    0.757846 0.671511 0.146629 0.267956
H29   H     H_    0.711737 0.746400 0.002240 0.266394
H30   H     H_    0.116535 0.448926 0.705630 0.165923
H31   H     H_    0.270201 0.409126 0.285425 0.174450
H32   H     H_    0.089673 0.155279 0.194850 0.174520
H33   H     H_    0.124823 0.151865 0.366047 0.120099
H34   H     H_    0.590887 0.630116 0.128549 0.159533
H35   H     H_    0.225782 0.193597 0.110977 0.241216
H36   H     H_    0.261278 0.176079 0.283429 0.209550
H37   H     H_    0.207584 0.959521 0.293248 0.268870
H38   H     H_    0.276059 0.978111 0.157835 0.258220
H39   H     H_    0.173666 0.975593 0.118748 0.266161
H40   H     H_    0.589827 0.631713 0.874829 0.169266
H41   H     H_    0.474400 0.250530 0.872819 0.089279
H42   H     H_    0.367376 0.284001 0.117919 0.208240
H43   H     H_    0.473540 0.245682 0.118983 0.185498
H44   H     H_    0.737890 0.475913 0.280010 0.183227
N1    N     N_R   0.499490 0.499140 0.142800 -0.097869
N2    N     N_R   0.499490 0.499180 0.857150 -0.136645
O1    O     O_R   0.500010 0.316790 0.614690 -0.611344
O2    O     O_3   0.351909 0.286434 0.859119 -0.617498
O3    O     O_3   0.739694 0.458472 0.748667 -0.632359
O4    O     O_3   0.129503 0.324921 0.260387 -0.650088
O5    O     O_R   0.500000 0.316760 0.385350 -0.623261
O6    O     O_R   0.389120 0.500020 0.614710 -0.600779
O7    O     O_R   0.389110 0.499990 0.385370 -0.616849
O8    O     O_R   0.500000 0.683240 0.614650 -0.613629
O9    O     O_R   0.499990 0.683210 0.385310 -0.629773
O10   O     O_R   0.610890 0.500010 0.614630 -0.559442
O11   O     O_R   0.610880 0.499980 0.385290 -0.628543
O12   O     O_3   0.643445 0.856758 0.655136 -0.649275
Zn1   Zn    Zn3+2 0.500010 0.500020 0.653130 0.981223
Zn2   Zn    Zn3+2 0.499990 0.499980 0.346870 0.937462

loop_
_geom_bond_atom_site_label_1
_geom_bond_atom_site_label_2
_ccdc_geom_bond_type
C41   C42   A    
C31   H17   S    
C35   C36   S    
C19   H42   S    
C4    C42   S    
C7    C8    A    
C12   C23   S    
C6    H4    S    
C1    C5    S    
C28   C29   S    
C19   H43   S    
C30   C31   S    
C38   H35   S    
O8    Zn1   S    
C11   H23   S    
C18   C19   S    
C4    O6    A    
C20   C24   S    
C35   H26   S    
C2    C44   A    
C8    C9    A    
C30   H16   S    
C11   H14   S    
C10   H12   S    
C9    C10   S    
C27   H6    S    
C2    C34   S    
C14   H34   S    
O9    Zn2   S    
C1    O1    A    
C4    O7    A    
C31   H18   S    
C27   H7    S    
C33   H22   S    
C21   H1    S    
C43   H31   S    
C38   C39   S    
C18   H41   S    
C13   C19   S    
C10   O12   S    
C44   O4    S    
C24   C25   A    
C32   H20   S    
C30   O2    S    
C36   H29   S    
C39   H37   S    
C20   O11   A    
C29   H11   S    
C25   C26   A    
C37   H33   S    
C12   C21   A    
O10   Zn1   S    
C12   C26   A    
C43   C44   A    
C14   N1    A    
C37   C38   S    
C3    C9    A    
C31   C32   S    
C20   O10   A    
C1    O5    A    
C23   C34   T    
C30   H15   S    
C17   C18   S    
C41   H3    S    
C7    H5    S    
C6    C7    A    
C40   C41   A    
C37   H32   S    
C29   H13   S    
O11   Zn2   S    
N1    Zn2   S    
C22   O3    S    
C22   C24   A    
C42   C43   A    
O5    Zn2   S    
C13   N1    A    
C17   N2    A    
C39   H38   S    
O1    Zn1   S    
C3    C5    A    
C33   O3    S    
C28   H9    S    
C36   H27   S    
C16   O9    A    
C15   H40   S    
C32   H19   S    
C27   O12   S    
C13   C17   A    
C18   O2    S    
C39   H39   S    
C15   N2    A    
C28   H8    S    
C16   O8    A    
C5    C6    A    
C38   H36   S    
C33   C35   S    
C40   H30   S    
C37   O4    S    
C25   H44   S    
N2    Zn1   S    
O7    Zn2   S    
C3    C11   S    
C10   C11   S    
C26   H2    S    
C2    C40   A    
C35   H25   S    
C8    C16   S    
C29   H10   S    
O6    Zn1   S    
C27   C28   S    
C14   C15   A    
C21   C22   A    
C36   H28   S    
C33   H24   S    
C32   H21   S    
