data_mof_unit_53919.cif
_audit_creation_date              2012-12-11T20:06:54-0500
_audit_creation_method            fapswitch 2.2
_symmetry_space_group_name_H-M    P1
_symmetry_Int_Tables_number       1
_space_group_crystal_system       triclinic
_cell_length_a                    8.431983
_cell_length_b                    16.236769
_cell_length_c                    18.92876
_cell_angle_alpha                 112.156737
_cell_angle_beta                  91.361833
_cell_angle_gamma                 83.512276
_cell_volume                      2384.26340339

loop_
_atom_site_label
_atom_site_type_symbol
_atom_type_description
_atom_site_fract_x
_atom_site_fract_y
_atom_site_fract_z
_atom_type_partial_charge
Ba1   Ba    Ba6+2 0.333520 0.539550 0.472180 1.613786
Ba2   Ba    Ba6+2 0.856270 0.460520 0.527840 1.609107
C1    C     C_3   0.941608 0.843426 0.327385 -0.049439
C2    C     C_R   0.432487 0.421499 0.083938 -0.091353
C3    C     C_R   0.297753 0.436426 0.943119 -0.105461
C4    C     C_3   0.494769 0.715610 0.314733 0.348434
C5    C     C_R   0.444483 0.468132 0.972722 0.017355
C6    C     C_R   0.241725 0.437139 0.873403 -0.093845
C7    C     C_R   0.327805 0.470179 0.829357 -0.032351
C8    C     C_R   0.471792 0.506597 0.858634 0.009592
C9    C     C_R   0.530351 0.505743 0.930688 0.021914
C10   C     C_R   0.273568 0.468388 0.757149 -0.007313
C11   C     C_R   0.358798 0.506595 0.717032 -0.268155
C12   C     C_3   0.953398 0.749101 0.328881 0.374156
C13   C     C_R   0.502069 0.542217 0.743305 -0.011703
C14   C     C_R   0.558293 0.543024 0.815666 -0.045081
C15   C     C_R   0.649756 0.501781 0.072526 0.020678
C16   C     C_3   0.490647 0.737696 0.243450 -0.388510
C17   C     C_R   0.710085 0.499567 0.143787 0.005417
C18   C     C_R   0.626504 0.460723 0.185911 -0.035940
C19   C     C_R   0.491844 0.419408 0.152730 -0.034690
C20   C     C_R   0.698050 0.579238 0.846849 -0.043920
C21   C     C_R   0.755201 0.578981 0.916206 -0.087385
C22   C     C_R   0.674720 0.542183 0.959869 0.009661
C23   C     C_3   0.981172 0.262296 0.277052 0.361948
C24   C     C_R   0.734037 0.540925 0.031203 0.019863
C25   C     C_R   0.876922 0.576688 0.062516 -0.105686
C26   C     C_R   0.854489 0.535911 0.172691 -0.031050
C27   C     C_R   0.935351 0.573855 0.130976 -0.101902
C28   C     C_3   0.475592 0.751106 0.756617 0.342356
C29   C     C_R   0.916374 0.530986 0.241447 -0.002571
C30   C     C_R   0.837105 0.487181 0.278308 -0.283409
C31   C     C_R   0.685089 0.460676 0.257729 0.033449
C32   C     C_2   0.386784 0.240610 0.494944 -0.205715
C33   C     C_R   0.776740 0.761616 0.542912 -0.066720
C34   C     C_3   0.988191 0.256736 0.194742 -0.211910
C35   C     C_2   0.240175 0.117504 0.414009 -0.140884
C36   C     C_2   0.255509 0.205103 0.441194 0.039215
C37   C     C_2   0.512955 0.184371 0.502319 0.020740
C38   C     C_3   0.513906 0.084243 0.458578 -0.034546
C39   C     C_3   0.344972 0.055386 0.441635 0.003775
C40   C     C_3   0.529035 0.784918 0.840606 -0.218111
C41   C     C_2   0.622447 0.027841 0.491406 -0.078834
C42   C     C_2   0.571812 0.969446 0.518437 -0.062499
C43   C     C_R   0.826989 0.938471 0.576275 0.014193
C44   C     C_R   0.685896 0.908025 0.540840 -0.080549
C45   C     C_3   0.674028 0.283244 0.692766 0.355707
C46   C     C_R   0.944975 0.882145 0.593889 -0.043562
C47   C     C_R   0.922820 0.791090 0.574371 0.031428
C48   C     C_R   0.659112 0.818603 0.524153 0.004762
C49   C     C_3   0.512512 0.248479 0.293852 0.491455
C50   C     C_3   0.594820 0.201947 0.343010 -0.328796
C51   C     C_3   0.970063 0.745083 0.733274 0.326104
C52   C     C_3   0.924811 0.846592 0.769904 -0.403652
C53   C     C_3   0.394312 0.794947 0.896557 -0.488671
C54   C     C_3   0.442499 0.201816 0.156963 -0.189237
C55   C     C_3   0.002609 0.707858 0.795829 -0.320566
C56   C     C_3   0.703849 0.262919 0.764356 -0.369663
C57   C     C_3   0.067310 0.897633 0.378103 -0.358629
C58   C     C_3   0.029276 0.160667 0.138447 -0.423768
C59   C     C_3   0.953976 0.840570 0.245748 -0.362108
C60   C     C_3   0.086501 0.924532 0.635335 -0.363714
C61   C     C_3   0.389586 0.339465 0.534342 -0.278315
C62   C     C_3   0.814693 0.614867 0.446114 0.014830
C63   C     C_3   0.420310 0.831937 0.735808 -0.305286
C64   C     C_3   0.169655 0.239811 0.649855 0.356460
C65   C     C_3   0.180479 0.149904 0.658196 -0.383214
C66   C     C_R   0.506542 0.464175 0.042920 0.008942
H1    H     H_    0.956675 0.756153 0.389581 -0.000683
H2    H     H_    0.831583 0.863350 0.814995 0.088692
H3    H     H_    0.874601 0.873032 0.727285 0.080093
H4    H     H_    0.844624 0.718770 0.302342 -0.062647
H5    H     H_    0.822114 0.878122 0.351385 0.078965
H6    H     H_    0.905726 0.212069 0.279707 0.052781
H7    H     H_    0.926199 0.330324 0.312715 0.023477
H8    H     H_    0.869725 0.282571 0.179846 0.082774
H9    H     H_    0.075826 0.300255 0.189446 0.092667
H10   H     H_    0.493310 0.675115 0.191933 0.088220
H11   H     H_    0.721208 0.347556 0.701715 0.092137
H12   H     H_    0.626315 0.738518 0.848326 0.094296
H13   H     H_    0.543125 0.290175 0.684559 -0.062181
H14   H     H_    0.833835 0.256967 0.775187 0.147874
H15   H     H_    0.642664 0.317725 0.814130 0.074507
H16   H     H_    0.656722 0.199207 0.757458 0.109656
H17   H     H_    0.292642 0.254124 0.643072 -0.049711
H18   H     H_    0.100089 0.234611 0.597997 0.092014
H19   H     H_    0.241320 0.097258 0.607016 0.063332
H20   H     H_    0.058844 0.132729 0.663845 0.146708
H21   H     H_    0.389551 0.680688 0.314866 0.132548
H22   H     H_    0.249800 0.152390 0.709453 0.111594
H23   H     H_    0.578103 0.850172 0.857320 0.102614
H24   H     H_    0.313150 0.507802 0.663504 0.072212
H25   H     H_    0.128043 0.412301 0.855120 0.113973
H26   H     H_    0.429484 0.384429 0.179374 0.094296
H27   H     H_    0.767684 0.608234 0.817870 0.100819
H28   H     H_    0.047601 0.600297 0.149722 0.110467
H29   H     H_    0.895600 0.474276 0.324715 0.023478
H30   H     H_    0.220768 0.411417 0.973095 0.070482
H31   H     H_    0.328603 0.387085 0.063786 0.055851
H32   H     H_    0.864879 0.608323 0.933394 0.058547
H33   H     H_    0.605293 0.670323 0.312484 -0.030001
H34   H     H_    0.404459 0.291340 0.324032 0.050295
H35   H     H_    0.949295 0.607097 0.035313 0.067905
H36   H     H_    0.148778 0.091070 0.372996 0.064283
H37   H     H_    0.749692 0.031284 0.487738 0.099520
H38   H     H_    0.445668 0.962509 0.519742 0.096039
H39   H     H_    0.379814 0.781680 0.243511 0.123394
H40   H     H_    0.595516 0.772346 0.241362 0.110852
H41   H     H_    0.373841 0.710776 0.748958 0.052935
H42   H     H_    0.292652 0.841619 0.890758 0.133447
H43   H     H_    0.354478 0.728578 0.886355 0.124841
H44   H     H_    0.438063 0.822398 0.955807 0.141337
H45   H     H_    0.703815 0.158693 0.313970 0.108528
H46   H     H_    0.386467 0.140442 0.230620 0.183985
H47   H     H_    0.551162 0.224846 0.141791 0.121390
H48   H     H_    0.415398 0.141624 0.107576 0.082979
H49   H     H_    0.340169 0.254150 0.167679 0.093107
H50   H     H_    0.108078 0.734765 0.828400 0.093232
H51   H     H_    0.900210 0.727356 0.836458 0.052629
H52   H     H_    0.027276 0.633873 0.770338 0.119104
H53   H     H_    0.057378 0.899436 0.437101 0.117765
H54   H     H_    0.189583 0.868395 0.355205 0.170855
H55   H     H_    0.046967 0.967480 0.381129 0.109045
H56   H     H_    0.515276 0.157037 0.351655 0.029728
H57   H     H_    0.141754 0.129798 0.154038 0.147217
H58   H     H_    0.931626 0.119982 0.138151 0.124603
H59   H     H_    0.043774 0.160234 0.080160 0.117861
H60   H     H_    0.074190 0.810349 0.220196 0.142087
H61   H     H_    0.863141 0.800459 0.209443 0.103993
H62   H     H_    0.932357 0.909436 0.245956 0.104806
H63   H     H_    0.045231 0.983694 0.687053 0.092856
H64   H     H_    0.165885 0.879158 0.654648 0.126314
H65   H     H_    0.155023 0.946893 0.597843 0.135549
H66   H     H_    0.420132 0.355316 0.594812 0.042101
H67   H     H_    0.627990 0.252388 0.397934 0.102859
H68   H     H_    0.463261 0.364849 0.500863 0.131664
H69   H     H_    0.279993 0.379240 0.540767 0.167589
H70   H     H_    0.652767 0.656629 0.540813 0.237347
H71   H     H_    0.729932 0.572539 0.414377 0.105382
H72   H     H_    0.912293 0.564028 0.445131 0.149654
H73   H     H_    0.837110 0.654911 0.412297 -0.035274
H74   H     H_    0.512269 0.879359 0.749909 0.073169
H75   H     H_    0.403746 0.809725 0.673633 0.134176
H76   H     H_    0.307340 0.867569 0.766555 0.070960
H77   H     H_    0.871349 0.712966 0.698836 0.105731
H78   H     H_    0.030356 0.880991 0.795952 0.115569
N1    N     N_2   0.469092 0.179020 0.223418 -0.422280
N2    N     N_2   0.756956 0.670335 0.522518 -0.426295
O1    O     O_2   0.402610 0.439360 0.314250 -0.473875
O2    O     O_2   0.845172 0.188779 0.492494 -0.486055
O3    O     O_3   0.752203 0.213482 0.630172 -0.597249
O4    O     O_3   0.648560 0.446300 0.404730 -0.507492
O5    O     O_3   0.025080 0.609480 0.556050 -0.467186
O6    O     O_2   0.948320 0.280590 0.426090 -0.461914
O7    O     O_3   0.134380 0.245028 0.302561 -0.673410
O8    O     O_2   0.941819 0.463368 0.748907 -0.491067
O9    O     O_3   0.093237 0.306125 0.714920 -0.603355
O10   O     O_3   0.108870 0.604000 0.387500 -0.482397
O11   O     O_2   0.249729 0.538965 0.250840 -0.493613
O12   O     O_3   0.110244 0.724688 0.688968 -0.625847
O13   O     O_3   0.623971 0.296847 0.277839 -0.662918
O14   O     O_3   0.090741 0.695909 0.289004 -0.612197
O15   O     O_2   0.241370 0.719440 0.573960 -0.448675
O16   O     O_3   0.507090 0.652150 0.432150 -0.509041
O17   O     O_2   0.326051 0.807905 0.498603 -0.487467
O18   O     O_3   0.490749 0.795031 0.379735 -0.618390
O19   O     O_2   0.787080 0.560670 0.685800 -0.461019
O20   O     O_3   0.541120 0.553770 0.595290 -0.478156
O21   O     O_3   0.080800 0.396070 0.612520 -0.491383
O22   O     O_3   0.605019 0.702584 0.707094 -0.645985
O23   O     O_3   0.164600 0.390590 0.443970 -0.491816
O24   O     O_3   0.682580 0.347920 0.567870 -0.485687
P1    P     P_3+3 0.582960 0.413890 0.320860 0.939078
P2    P     P_3+3 0.071690 0.707860 0.593450 1.012136
P3    P     P_3+3 0.493277 0.768752 0.461611 0.941504
P4    P     P_3+3 0.606720 0.586180 0.679160 0.974151
P5    P     P_3+3 0.699306 0.232272 0.547060 0.950342
P6    P     P_3+3 0.090525 0.588911 0.291085 0.931045
P7    P     P_3+3 0.127856 0.277686 0.402330 0.912077
P8    P     P_3+3 0.099062 0.410704 0.708691 0.934554

loop_
_geom_bond_atom_site_label_1
_geom_bond_atom_site_label_2
_ccdc_geom_bond_type
O24   P5    S    
C57   H53   S    
C4    O18   S    
C40   H12   S    
C2    C19   A    
C53   H44   S    
C25   C27   A    
C50   H56   S    
C54   H49   S    
C17   C18   A    
C45   H11   S    
C64   H17   S    
O22   P4    S    
C43   C44   A    
C49   H34   S    
C5    C9    A    
Ba1   P1    S    
C65   H20   S    
C13   P4    S    
Ba1   O4    S    
C15   C24   A    
C60   H65   S    
C26   C27   A    
C22   C24   A    
H46   N1    S    
Ba1   Ba2   S    
C34   H9    S    
C56   H14   S    
C63   H75   S    
C3    H30   S    
O3    P5    S    
C23   O7    S    
C19   H26   S    
C49   O13   S    
C13   C14   A    
C9    C22   A    
C30   H29   S    
O16   P3    S    
C40   H23   S    
C41   H37   S    
C4    H33   S    
C25   H35   S    
C16   H39   S    
C28   O22   S    
C34   H8    S    
Ba2   P4    S    
C5    C66   A    
C38   C41   S    
C52   H3    S    
Ba1   O16   S    
H70   N2    S    
C6    C7    A    
C15   C66   A    
C33   C47   A    
C21   C22   A    
Ba1   O1    S    
C31   P1    S    
C7    C8    A    
O21   P8    S    
C59   H61   S    
Ba2   O23   S    
C52   H78   S    
C57   H54   S    
C64   C65   S    
Ba2   O6    S    
O6    P7    D    
C62   N2    S    
C57   H55   S    
C61   H69   S    
O23   P7    S    
C12   H4    S    
C47   P2    S    
C37   P5    S    
O7    P7    S    
C1    C59   S    
Ba2   O4    S    
C4    C16   S    
Ba1   P2    S    
C28   H41   S    
C49   C50   S    
C61   H66   S    
C60   H64   S    
C37   C38   S    
C2    C66   A    
C63   H76   S    
C51   C55   S    
C54   H48   S    
C42   C44   S    
Ba1   O20   S    
C51   C52   S    
O5    P2    S    
Ba1   O23   S    
C65   H22   S    
C32   C37   D    
C48   P3    S    
C23   H7    S    
O9    P8    S    
C12   O14   S    
C41   C42   D    
C35   C36   D    
C56   H16   S    
C40   C53   S    
C3    C6    A    
O13   P1    S    
C46   C60   S    
C29   C30   A    
C52   H2    S    
C11   C13   A    
C49   N1    S    
C16   H10   S    
C33   C48   A    
C51   H77   S    
O18   P3    S    
C10   C11   A    
Ba1   O5    S    
C17   C26   A    
C1    C12   S    
C59   H62   S    
O2    P5    D    
C29   P6    S    
C46   C47   A    
C10   P8    S    
C45   O3    S    
Ba2   O5    S    
C55   H52   S    
C53   H42   S    
C24   C25   A    
C12   H1    S    
C18   C31   A    
O11   P6    D    
Ba2   O20   S    
C3    C5    A    
C62   H72   S    
C43   C46   A    
O20   P4    S    
C58   H57   S    
C51   O12   S    
C14   C20   A    
C36   P7    S    
C53   H43   S    
C23   C34   S    
C32   C36   S    
O12   P2    S    
C60   H63   S    
C26   C29   A    
C6    H25   S    
O4    P1    S    
C34   C58   S    
C64   H18   S    
C35   H36   S    
C42   H38   S    
O17   P3    D    
C4    H21   S    
C44   C48   A    
C65   H19   S    
C55   H51   S    
C23   H6    S    
C61   H68   S    
C54   N1    S    
C58   H58   S    
O10   P6    S    
C11   H24   S    
C8    C14   A    
C27   H28   S    
C30   C31   A    
C45   C56   S    
C63   H74   S    
O8    P8    D    
Ba1   O10   S    
C50   H45   S    
C58   H59   S    
C32   C61   S    
C15   C17   A    
C54   H47   S    
C21   H32   S    
C59   H60   S    
O1    P1    D    
C33   N2    S    
C45   H13   S    
C35   C39   S    
C1    H5    S    
C7    C10   A    
C16   H40   S    
O14   P6    S    
C28   C63   S    
C8    C9    A    
Ba2   O21   S    
C20   H27   S    
C18   C19   A    
Ba1   O15   S    
C62   H73   S    
C2    H31   S    
C50   H67   S    
C20   C21   A    
C28   C40   S    
C38   C39   S    
O19   P4    D    
C56   H15   S    
O15   P2    D    
Ba2   O19   S    
C64   O9    S    
Ba2   O24   S    
C55   H50   S    
C62   H71   S    
C1    C57   S    
