data_mof_unit_42426.cif
_audit_creation_date              2012-12-11T16:56:12-0500
_audit_creation_method            fapswitch 2.2
_symmetry_space_group_name_H-M    P1
_symmetry_Int_Tables_number       1
_space_group_crystal_system       triclinic
_cell_length_a                    6.945017
_cell_length_b                    14.55399
_cell_length_c                    16.182826
_cell_angle_alpha                 90.510217
_cell_angle_beta                  89.967057
_cell_angle_gamma                 89.928786
_cell_volume                      1635.65656151

loop_
_atom_site_label
_atom_site_type_symbol
_atom_type_description
_atom_site_fract_x
_atom_site_fract_y
_atom_site_fract_z
_atom_type_partial_charge
O1    O     O_R   0.505830 0.583360 0.413880 -0.534752
O2    O     O_R   0.175830 0.595460 0.585520 -0.533861
O3    O     O_R   0.005520 0.416640 0.586120 -0.548661
C1    C     C_R   0.344369 0.617273 0.614570 0.712387
O4    O     O_R   0.176120 0.594390 0.414490 -0.511016
O5    O     O_R   0.005810 0.415570 0.413870 -0.532597
C2    C     C_R   0.345076 0.617593 0.386776 0.764144
O6    O     O_R   0.505540 0.584430 0.586130 -0.541911
O7    O     O_3   0.339200 0.441330 0.500000 -0.377565
V1    V     V_3+5 0.064350 0.510880 0.500000 1.500181
O8    O     O_R   0.676100 0.404540 0.414480 -0.536826
C3    C     C_R   0.845065 0.382340 0.385974 0.725729
O9    O     O_R   0.675810 0.405610 0.585510 -0.546918
C4    C     C_R   0.844764 0.385562 0.614903 0.694079
V2    V     V_3+5 0.564340 0.489120 0.500000 1.463430
O10   O     O_3   0.839360 0.558670 0.500000 -0.351886
C5    C     C_2   0.729094 0.218368 0.793151 -0.153341
C6    C     C_2   0.887598 0.168713 0.812200 0.194023
H1    H     H_    0.601913 0.213065 0.831917 0.097249
C7    C     C_2   0.711207 0.278285 0.719253 -0.107394
C8    C     C_2   0.860810 0.323934 0.686379 -0.266038
H2    H     H_    0.567675 0.288620 0.694386 0.133769
H3    H     H_    0.001939 0.319796 0.714651 0.180938
C9    C     C_R   0.731392 0.244072 0.191695 -0.057565
C10   C     C_R   0.882254 0.180018 0.188160 -0.178108
C11   C     C_R   0.024169 0.183962 0.251657 0.326700
C12   C     C_R   0.014573 0.253227 0.312899 -0.103464
H4    H     H_    0.123153 0.254484 0.360920 0.140715
C13   C     C_R   0.857604 0.314216 0.317825 -0.211346
C14   C     C_R   0.718183 0.309457 0.255508 0.021258
C15   C     C_3   0.506084 0.293195 0.264347 0.382100
C16   C     C_3   0.520947 0.223457 0.193372 -0.395886
H5    H     H_    0.472668 0.259536 0.324090 0.081985
H6    H     H_    0.450223 0.240512 0.134150 0.166740
H7    H     H_    0.494993 0.151709 0.213209 0.186409
C17   C     C_R   0.496927 0.752282 0.687700 0.034842
C18   C     C_R   0.351531 0.685957 0.682806 -0.175430
C19   C     C_R   0.208889 0.687879 0.744850 -0.226662
H8    H     H_    0.092131 0.638695 0.742788 0.126312
C20   C     C_R   0.223790 0.747964 0.813953 0.451327
C21   C     C_R   0.377721 0.811679 0.819787 -0.180701
C22   C     C_R   0.508908 0.813978 0.754024 -0.052480
C23   C     C_3   0.723465 0.809374 0.756043 -0.417840
C24   C     C_3   0.711022 0.741496 0.683959 0.237531
H9    H     H_    0.775362 0.777669 0.813900 0.206117
H10   H     H_    0.791286 0.876212 0.740568 0.178512
H11   H     H_    0.760735 0.670947 0.698837 0.108410
C25   C     C_R   0.529700 0.706816 0.280771 0.098062
C26   C     C_R   0.356681 0.690688 0.323016 -0.228808
C27   C     C_R   0.199861 0.750107 0.305096 0.429133
C28   C     C_R   0.211928 0.811797 0.237916 -0.274210
H12   H     H_    0.086497 0.852450 0.222441 0.143943
C29   C     C_R   0.381099 0.818986 0.190017 -0.178218
C30   C     C_R   0.542078 0.769475 0.216641 0.122077
C31   C     C_3   0.677763 0.709767 0.168758 -0.416014
C32   C     C_3   0.663914 0.641125 0.238830 -0.379300
H13   H     H_    0.822872 0.741183 0.163075 0.185550
H14   H     H_    0.614549 0.684137 0.109788 0.154263
H15   H     H_    0.800905 0.632290 0.273086 0.219724
H16   H     H_    0.592929 0.575879 0.220592 0.159513
O11   O     O_R   0.229930 0.912420 0.917160 -0.514602
O12   O     O_R   0.559420 0.902500 0.088780 -0.541910
O13   O     O_R   0.729660 0.081330 0.089380 -0.535946
C33   C     C_R   0.390664 0.881301 0.117931 0.720212
O14   O     O_R   0.559650 0.901420 0.917750 -0.541548
O15   O     O_R   0.729880 0.080250 0.917130 -0.545576
C34   C     C_R   0.390643 0.878780 0.889343 0.741877
O16   O     O_R   0.229700 0.913500 0.089410 -0.542924
O17   O     O_3   0.396250 0.055540 0.003280 -0.375829
V3    V     V_3+5 0.671130 0.986010 0.003260 1.424448
O18   O     O_R   0.059600 0.091310 0.917720 -0.546186
C35   C     C_R   0.891504 0.110270 0.887296 0.636816
O19   O     O_R   0.059370 0.092380 0.088750 -0.540350
C36   C     C_R   0.890821 0.112396 0.119045 0.696012
V4    V     V_3+5 0.171120 0.007820 0.003230 1.431569
O20   O     O_3   0.896130 0.938240 0.003240 -0.356764
O21   O     O_3   0.089444 0.742204 0.876662 -0.556113
C37   C     C_3   0.154423 0.677402 0.934599 -0.276348
H17   H     H_    0.294093 0.698540 0.962629 0.115848
H18   H     H_    0.167023 0.607693 0.906219 0.125454
H19   H     H_    0.047232 0.673362 0.985296 0.162955
O22   O     O_3   0.791677 0.774793 0.610232 -0.633502
H20   H     H_    0.733199 0.835490 0.597918 0.287787
O23   O     O_3   0.028636 0.742711 0.348005 -0.554104
C38   C     C_3   0.012873 0.817718 0.403250 -0.195216
H21   H     H_    0.135070 0.819146 0.447789 0.130704
H22   H     H_    0.878279 0.809819 0.439399 0.180895
H23   H     H_    0.002864 0.884031 0.369820 0.119321
O24   O     O_3   0.042648 0.167801 0.758355 -0.650476
H24   H     H_    0.138555 0.122037 0.776991 0.287086
O25   O     O_3   0.163921 0.117473 0.261078 -0.668118
H25   H     H_    0.122295 0.060235 0.232961 0.275671
O26   O     O_3   0.389807 0.373253 0.254158 -0.540372
C39   C     C_3   0.390826 0.410261 0.173740 -0.241922
H26   H     H_    0.289916 0.371832 0.133083 0.139621
H27   H     H_    0.537451 0.413314 0.146361 0.129550
H28   H     H_    0.334906 0.481569 0.177414 0.143628

loop_
_geom_bond_atom_site_label_1
_geom_bond_atom_site_label_2
_ccdc_geom_bond_type
O18   V4    S    
C31   C32   S    
O26   C39   S    
C3    C13   S    
C12   C13   A    
C21   C22   A    
C17   C22   A    
C1    O6    A    
C27   O23   S    
C21   C34   S    
O15   V3    S    
C38   H21   S    
O11   V4    S    
O16   V4    S    
C25   C30   A    
C11   C12   A    
C18   C19   A    
C33   O16   A    
C4    C8    S    
C17   C18   A    
C24   O22   S    
O5    C3    A    
C14   C15   S    
C29   C33   S    
C37   H18   S    
O14   V3    S    
C5    C7    S    
O12   V3    S    
C10   C36   S    
O19   C36   A    
O12   C33   A    
O8    V2    S    
O15   C35   A    
C1    C18   S    
O14   C34   A    
C15   H5    S    
O1    V2    S    
O7    V1    S    
C24   H11   S    
O21   C37   S    
O9    C4    A    
O19   V4    S    
O17   V3    S    
C5    C6    D    
C38   H22   S    
C6    C35   S    
C28   H12   S    
C16   H7    S    
C9    C10   A    
C2    C26   S    
O25   H25   S    
O4    C2    A    
C37   H17   S    
C39   H28   S    
C11   O25   S    
C15   O26   S    
C32   H16   S    
C28   C29   A    
C16   H6    S    
O2    C1    A    
V4    O20   S    
C9    C16   S    
C13   C14   A    
O11   C34   A    
C15   C16   S    
O13   V3    S    
C27   C28   A    
C31   H13   S    
O23   C38   S    
C39   H27   S    
C23   H9    S    
O3    C4    A    
C20   C21   A    
C7    H2    S    
O22   H20   S    
O6    V2    S    
O9    V2    S    
C23   C24   S    
V3    O20   S    
C17   C24   S    
C22   C23   S    
O2    V1    S    
C38   H23   S    
C25   C32   S    
C30   C31   S    
C25   C26   A    
O1    C2    A    
C6    O24   S    
O5    V1    S    
O8    C3    A    
C29   C30   A    
O13   C36   A    
C32   H15   S    
C8    H3    S    
C10   C11   A    
O4    V1    S    
O3    V1    S    
V1    O10   S    
C19   C20   A    
C37   H19   S    
C19   H8    S    
C5    H1    S    
O17   V4    S    
O7    V2    S    
C39   H26   S    
C23   H10   S    
C9    C14   A    
O18   C35   A    
C7    C8    D    
C26   C27   A    
C31   H14   S    
C12   H4    S    
C20   O21   S    
O24   H24   S    
V2    O10   S    
