data_mof_unit_52044.cif
_audit_creation_date              2012-12-10T19:45:41-0500
_audit_creation_method            fapswitch 2.2
_symmetry_space_group_name_H-M    P1
_symmetry_Int_Tables_number       1
_space_group_crystal_system       triclinic
_cell_length_a                    10.883835
_cell_length_b                    14.948713
_cell_length_c                    14.554149
_cell_angle_alpha                 64.849405
_cell_angle_beta                  106.269536
_cell_angle_gamma                 100.622713
_cell_volume                      2051.80432351

loop_
_atom_site_label
_atom_site_type_symbol
_atom_type_description
_atom_site_fract_x
_atom_site_fract_y
_atom_site_fract_z
_atom_type_partial_charge
C1    C     C_R   0.474897 0.119450 0.310268 0.818535
C2    C     C_R   0.524193 0.880611 0.689245 0.834887
C3    C     C_R   0.870547 0.992792 0.502725 -0.111991
C4    C     C_R   0.131135 0.998950 0.506830 -0.106468
C5    C     C_R   0.907991 0.953863 0.442400 -0.007479
C6    C     C_R   0.094694 0.034803 0.570148 0.020237
C7    C     C_R   0.448692 0.188986 0.197440 -0.139845
C8    C     C_R   0.546279 0.811991 0.801497 -0.141490
C9    C     C_R   0.324590 0.239561 0.016354 0.331680
C10   C     C_R   0.672247 0.760645 0.981201 0.341244
C11   C     C_R   0.362254 0.164187 0.117345 0.157539
C12   C     C_R   0.649627 0.830068 0.876467 0.142507
C13   C     C_R   0.501654 0.287171 0.172935 -0.332439
C14   C     C_R   0.474495 0.720024 0.829989 -0.336357
C15   C     C_R   0.459171 0.364697 0.075698 0.015688
C16   C     C_R   0.509876 0.642673 0.929324 0.022159
C17   C     C_R   0.369625 0.339225 0.997395 0.083608
C18   C     C_R   0.605377 0.666366 0.006279 0.075259
C19   C     C_R   0.502818 0.466780 0.054142 0.109871
C20   C     C_R   0.458647 0.541712 0.953101 0.110445
C21   C     C_R   0.369364 0.512361 0.877896 -0.261410
C22   C     C_R   0.589142 0.496562 0.130357 -0.254644
C23   C     C_R   0.263971 0.999801 0.502833 0.768412
C24   C     C_R   0.736681 0.998297 0.499768 0.778872
C25   C     C_R   0.326273 0.413839 0.899653 -0.160471
C26   C     C_R   0.638709 0.593776 0.106876 -0.166299
C27   C     C_R   0.751874 0.303869 0.628840 -0.262199
C28   C     C_R   0.246451 0.697464 0.371010 -0.274966
C29   C     C_R   0.704470 0.213119 0.622346 0.385642
C30   C     C_R   0.296746 0.788809 0.375092 0.376420
C31   C     C_R   0.506410 0.282414 0.514251 0.380847
C32   C     C_R   0.489359 0.715340 0.491380 0.375742
C33   C     C_R   0.546425 0.371778 0.533474 -0.110212
C34   C     C_R   0.447363 0.625646 0.473832 -0.106454
C35   C     C_R   0.676252 0.383247 0.583329 0.010524
C36   C     C_R   0.318308 0.615428 0.423405 0.026003
C37   C     C_R   0.467105 0.451450 0.503422 0.058249
C38   C     C_R   0.524458 0.544525 0.507202 0.043250
C39   C     C_R   0.657630 0.555165 0.539815 -0.315792
C40   C     C_R   0.332580 0.440356 0.475650 -0.315071
C41   C     C_R   0.731762 0.474489 0.586443 0.422850
C42   C     C_R   0.258780 0.522053 0.431381 0.410377
C43   C     C_R   0.369803 0.084240 0.772675 -0.149407
C44   C     C_R   0.688689 0.916098 0.209100 -0.178525
C45   C     C_R   0.286407 0.037464 0.711508 -0.135544
C46   C     C_R   0.750844 0.960079 0.279299 -0.161720
C47   C     C_R   0.185529 0.087479 0.630882 0.081862
C48   C     C_R   0.820516 0.903065 0.378612 0.078444
C49   C     C_R   0.166628 0.185514 0.613497 0.242720
C50   C     C_R   0.829399 0.800870 0.406486 0.251889
C51   C     C_R   0.248988 0.229757 0.678601 -0.200469
C52   C     C_R   0.761470 0.757271 0.336472 -0.154848
C53   C     C_R   0.351061 0.180162 0.756299 -0.142612
C54   C     C_R   0.691009 0.814582 0.238651 -0.138385
C55   C     C_R   0.964898 0.029326 0.568240 -0.197445
C56   C     C_R   0.037089 0.959917 0.443747 -0.217782
Cu1   Cu    Cu3+1 0.466270 0.918260 0.475690 0.948248
Cu2   Cu    Cu3+1 0.533730 0.081740 0.524310 0.954048
H1    H     H_    0.414809 0.215776 0.804793 0.158588
H2    H     H_    0.639564 0.780454 0.185073 0.169125
H3    H     H_    0.331147 0.563561 0.800120 0.143359
H4    H     H_    0.623394 0.446523 0.209471 0.143941
H5    H     H_    0.849162 0.313511 0.669924 0.217360
H6    H     H_    0.149652 0.689135 0.328050 0.219235
H7    H     H_    0.706495 0.625839 0.531600 0.184962
H8    H     H_    0.282595 0.369184 0.486344 0.169280
H9    H     H_    0.448085 0.045514 0.833807 0.131079
H10   H     H_    0.639474 0.960897 0.131065 0.133068
H11   H     H_    0.300166 0.961955 0.727097 0.119046
H12   H     H_    0.749437 0.039290 0.254684 0.127401
H13   H     H_    0.234440 0.303390 0.668582 0.148468
H14   H     H_    0.764225 0.678909 0.357238 0.153977
H15   H     H_    0.937381 0.057400 0.616174 0.199700
H16   H     H_    0.063921 0.934393 0.393332 0.190350
H17   H     H_    0.258113 0.396545 0.838070 0.201027
H18   H     H_    0.707853 0.610870 0.168197 0.197316
H19   H     H_    0.396473 0.709218 0.770260 0.173123
H20   H     H_    0.573613 0.301328 0.233848 0.182080
N1    N     N_R   0.584450 0.204570 0.560790 -0.228336
N2    N     N_R   0.415550 0.795430 0.439210 -0.226354
O1    O     O_R   0.455540 0.022090 0.338120 -0.575541
O2    O     O_R   0.544460 0.977910 0.661880 -0.589702
O3    O     O_R   0.512510 0.160150 0.379180 -0.552296
O4    O     O_R   0.487490 0.839850 0.620820 -0.549266
O5    O     O_R   0.291160 0.930970 0.479480 -0.586264
O6    O     O_R   0.708840 0.069030 0.520520 -0.570981
O7    O     O_R   0.348130 0.069020 0.520540 -0.576564
O8    O     O_R   0.651870 0.930980 0.479460 -0.581508
O9    O     O_3   0.241040 0.219158 0.935110 -0.768283
H21   H     H_    0.239428 0.148420 0.948741 0.334720
O10   O     O_3   0.770423 0.777847 0.057474 -0.759901
H22   H     H_    0.793914 0.849778 0.035852 0.326645
O11   O     O_3   0.860230 0.484313 0.632951 -0.751313
H23   H     H_    0.877679 0.546795 0.644144 0.337109
O12   O     O_3   0.126994 0.511929 0.399091 -0.754014
H24   H     H_    0.097299 0.442802 0.437108 0.323447
N3    N     N_2   0.594622 0.718251 0.574483 -0.401807
H25   H     H_    0.680207 0.755487 0.557903 0.252343
C57   C     C_3   0.594411 0.646212 0.679646 -0.642436
H26   H     H_    0.659523 0.587663 0.702776 0.215278
H27   H     H_    0.496165 0.611875 0.687206 0.227113
H28   H     H_    0.631625 0.683465 0.734496 0.237629
N4    N     N_2   0.394071 0.275987 0.438325 -0.397485
H29   H     H_    0.312576 0.240378 0.463781 0.254710
C58   C     C_3   0.380205 0.348005 0.331746 -0.649519
H30   H     H_    0.305029 0.398210 0.312163 0.222955
H31   H     H_    0.348160 0.308684 0.278618 0.238664
H32   H     H_    0.471972 0.392453 0.318298 0.223462
N5    N     N_2   0.217955 0.871000 0.322573 -0.425698
H33   H     H_    0.264072 0.939591 0.307817 0.327653
C59   C     C_3   0.101328 0.869496 0.244308 -0.773713
H34   H     H_    0.122361 0.855306 0.181502 0.243818
H35   H     H_    0.059038 0.942161 0.209219 0.230289
H36   H     H_    0.028229 0.812926 0.280121 0.257867
N6    N     N_2   0.785009 0.132309 0.673749 -0.410325
H37   H     H_    0.736386 0.064389 0.691755 0.316824
C60   C     C_3   0.899472 0.135208 0.753564 -0.762486
H38   H     H_    0.971364 0.194274 0.719554 0.254192
H39   H     H_    0.946701 0.065068 0.787603 0.237144
H40   H     H_    0.874156 0.145829 0.816925 0.235133
N7    N     N_2   0.060245 0.237409 0.537340 -0.445700
H41   H     H_    0.031702 0.293588 0.548103 0.249011
C61   C     C_3   0.036698 0.248618 0.429665 -0.673833
H42   H     H_    0.052029 0.327071 0.377530 0.218947
H43   H     H_    0.935503 0.223171 0.404276 0.250606
H44   H     H_    0.100311 0.206233 0.418341 0.225704
N8    N     N_2   0.903779 0.741246 0.505260 -0.485706
H45   H     H_    0.922855 0.767987 0.562868 0.254249
C62   C     C_3   0.013286 0.700921 0.502703 -0.659806
H46   H     H_    0.058533 0.651055 0.582772 0.231972
H47   H     H_    0.086017 0.761330 0.473250 0.252998
H48   H     H_    0.983922 0.657420 0.453365 0.258277
N9    N     N_2   0.746134 0.905723 0.842541 -0.446020
H49   H     H_    0.766081 0.957425 0.875139 0.241551
C63   C     C_3   0.857744 0.871657 0.834447 -0.670540
H50   H     H_    0.942714 0.879756 0.894745 0.226465
H51   H     H_    0.877293 0.916350 0.756292 0.215123
H52   H     H_    0.842922 0.792723 0.844095 0.233795
N10   N     N_2   0.307558 0.065422 0.139444 -0.441298
H53   H     H_    0.211105 0.059201 0.106225 0.256262
C64   C     C_3   0.382689 0.002751 0.127059 -0.696151
H54   H     H_    0.394130 0.032231 0.045584 0.205474
H55   H     H_    0.335124 0.926760 0.147050 0.235241
H56   H     H_    0.478129 0.998450 0.180604 0.259960

loop_
_geom_bond_atom_site_label_1
_geom_bond_atom_site_label_2
_ccdc_geom_bond_type
C63   H52   S    
O11   H23   S    
C27   C29   A    
N10   C64   S    
C5    C56   A    
C36   C42   A    
C19   C20   A    
C18   C26   A    
C6    C55   A    
Cu2   O7    S    
C49   C51   A    
N3    H25   S    
C53   H1    S    
C63   H50   S    
C39   C41   A    
C54   H2    S    
C15   C19   A    
C58   H31   S    
C37   C40   A    
N5    C59   S    
C38   C39   A    
C61   H43   S    
C22   H4    S    
C1    O1    A    
N6    H37   S    
C32   N3    S    
C63   H51   S    
C14   H19   S    
C11   N10   S    
C1    C7    S    
C3    C55   A    
C43   C53   A    
C41   O11   S    
O12   H24   S    
C44   C46   A    
N6    C60   S    
C26   H18   S    
C31   C33   A    
C14   C16   A    
C21   H3    S    
C8    C12   A    
C62   H48   S    
C30   N2    A    
C40   C42   A    
C29   N6    S    
C23   O7    A    
C4    C56   A    
C39   H7    S    
Cu1   N2    S    
C3    C24   S    
C51   H13   S    
Cu2   O6    S    
N3    C57   S    
C52   C54   A    
C45   C47   A    
C58   H32   S    
C46   C48   A    
C56   H16   S    
C6    C47   S    
C30   N5    S    
C45   H11   S    
C42   O12   S    
C61   H42   S    
C19   C22   A    
Cu2   O2    S    
C47   C49   A    
C64   H56   S    
C9    O9    S    
O10   H22   S    
C4    C23   S    
C61   H44   S    
C27   C35   A    
C33   C37   A    
C51   C53   A    
C64   H55   S    
C31   N4    S    
C7    C11   A    
N8    C62   S    
C43   H9    S    
C37   C38   A    
C52   H14   S    
C32   N2    A    
C43   C45   A    
C50   C52   A    
C57   H26   S    
C29   N1    A    
C16   C20   A    
C49   N7    S    
C2    O4    A    
Cu1   O4    S    
C59   H35   S    
C48   C50   A    
C9    C11   A    
N7    H41   S    
C10   C12   A    
Cu2   N1    S    
C28   H6    S    
C4    C6    A    
C57   H27   S    
C10   O10   S    
C12   N9    S    
C13   C15   A    
C23   O5    A    
N9    H49   S    
N4    C58   S    
Cu1   O1    S    
C44   H10   S    
N8    H45   S    
C46   H12   S    
C62   H46   S    
C9    C17   A    
C15   C17   A    
C21   C25   A    
C13   H20   S    
C8    C14   A    
C59   H34   S    
C34   C38   A    
C24   O8    A    
C2    C8    S    
C3    C5    A    
N10   H53   S    
C31   N1    A    
C1    O3    A    
C58   H30   S    
C60   H38   S    
Cu1   O8    S    
C17   C25   A    
C60   H39   S    
C64   H54   S    
C5    C48   S    
Cu1   Cu2   S    
C10   C18   A    
C28   C30   A    
C33   C35   A    
C60   H40   S    
C59   H36   S    
C34   C36   A    
C35   C41   A    
N7    C61   S    
C2    O2    A    
C55   H15   S    
C44   C54   A    
C7    C13   A    
C57   H28   S    
C20   C21   A    
C28   C36   A    
C16   C18   A    
C22   C26   A    
N5    H33   S    
N4    H29   S    
N9    C63   S    
C27   H5    S    
C40   H8    S    
C50   N8    S    
C25   H17   S    
O9    H21   S    
Cu2   O3    S    
C24   O6    A    
Cu1   O5    S    
C32   C34   A    
C62   H47   S    
