data_mof_unit_7210.cif
_audit_creation_date              2012-10-26T20:12:09-0400
_audit_creation_method            fapswitch 2.2
_symmetry_space_group_name_H-M    P1
_symmetry_Int_Tables_number       1
_space_group_crystal_system       triclinic
_cell_length_a                    13.156688
_cell_length_b                    15.175831
_cell_length_c                    13.977869
_cell_angle_alpha                 91.664353
_cell_angle_beta                  95.002406
_cell_angle_gamma                 93.693414
_cell_volume                      2772.78094081

loop_
_atom_site_label
_atom_site_type_symbol
_atom_type_description
_atom_site_fract_x
_atom_site_fract_y
_atom_site_fract_z
_atom_type_partial_charge
C1    C     C_R   0.499699 0.330443 0.499134 0.641183
C2    C     C_R   0.486404 0.952744 0.504207 -0.048691
C3    C     C_R   0.533754 0.572052 0.110902 0.362503
C4    C     C_R   0.419088 0.459829 0.882699 0.352375
C5    C     C_R   0.537600 0.571437 0.212095 0.571786
C6    C     C_R   0.424709 0.453307 0.782727 0.538533
C7    C     C_R   0.464487 0.424321 0.203390 0.040150
C8    C     C_R   0.573543 0.549920 0.800149 0.084590
C9    C     C_R   0.470152 0.419476 0.101704 -0.079614
C10   C     C_R   0.588385 0.530196 0.898575 -0.083034
C11   C     C_R   0.503425 0.495217 0.053579 -0.012236
C12   C     C_R   0.495977 0.670160 0.500476 0.568613
C13   C     C_R   0.503882 0.495223 0.944372 -0.019639
C14   C     C_R   0.301855 0.507793 0.483313 0.561351
C15   C     C_R   0.699061 0.496822 0.516868 0.555401
C16   C     C_R   0.812049 0.500144 0.525452 -0.055875
C17   C     C_R   0.190849 0.521405 0.474625 -0.061169
C18   C     C_R   0.032280 0.505963 0.372169 0.410094
C19   C     C_R   0.967772 0.549619 0.621503 0.399731
C20   C     C_R   0.137704 0.515920 0.382981 0.391114
C21   C     C_R   0.864880 0.524728 0.614479 0.376793
C22   C     C_R   0.136005 0.539191 0.555600 -0.083358
C23   C     C_R   0.497325 0.234500 0.498589 -0.021436
C24   C     C_R   0.868128 0.487639 0.444478 -0.082662
C25   C     C_R   0.027057 0.533687 0.544059 -0.090578
C26   C     C_R   0.975383 0.507821 0.453011 -0.092671
C27   C     C_R   0.412872 0.095618 0.536550 0.389331
C28   C     C_R   0.482928 0.904876 0.416525 0.396352
C29   C     C_R   0.415621 0.187213 0.535362 0.350108
C30   C     C_R   0.484408 0.813296 0.414634 0.384202
C31   C     C_R   0.819680 0.437565 0.357764 0.116567
C32   C     C_R   0.827355 0.345815 0.350688 0.003201
C33   C     C_R   0.789963 0.298295 0.266464 -0.056858
C34   C     C_R   0.487056 0.767064 0.500703 -0.050872
C35   C     C_R   0.744687 0.341996 0.188984 -0.119320
C36   C     C_R   0.736924 0.433268 0.195627 -0.098006
C37   C     C_R   0.774795 0.481290 0.279308 0.028235
C38   C     C_R   0.190598 0.565283 0.651009 0.112847
C39   C     C_R   0.175304 0.513813 0.731245 0.074502
C40   C     C_R   0.203976 0.549056 0.823804 -0.006037
C41   C     C_R   0.258329 0.631175 0.836854 -0.116719
C42   C     C_R   0.280331 0.679944 0.757233 -0.086135
C43   C     C_R   0.245455 0.647940 0.664477 -0.021341
C44   C     C_R   0.419106 0.344100 0.245907 0.077713
C45   C     C_R   0.577832 0.190332 0.464798 0.258869
C46   C     C_R   0.318435 0.341584 0.271856 -0.080061
C47   C     C_R   0.270579 0.262999 0.300445 -0.110983
C48   C     C_R   0.321616 0.185160 0.299887 -0.098904
C49   C     C_R   0.420781 0.186029 0.271444 -0.128566
C50   C     C_R   0.470032 0.265134 0.245702 -0.073186
C51   C     C_R   0.598993 0.645219 0.782518 0.094557
C52   C     C_R   0.675040 0.674253 0.723871 -0.001495
C53   C     C_R   0.712875 0.762573 0.727283 -0.102622
C54   C     C_R   0.676713 0.823177 0.790686 -0.083486
C55   C     C_R   0.598875 0.796579 0.847286 -0.049130
C56   C     C_R   0.478917 0.814377 0.587012 0.255962
C57   C     C_R   0.558633 0.708955 0.841687 -0.036696
C58   C     C_R   0.440815 0.334914 0.045394 0.075221
C59   C     C_R   0.339647 0.296984 0.039621 0.004153
C60   C     C_R   0.308816 0.226460 0.975039 -0.064079
C61   C     C_R   0.377883 0.193999 0.914783 -0.055673
C62   C     C_R   0.479141 0.229247 0.922163 -0.098685
C63   C     C_R   0.511125 0.297778 0.988784 -0.114690
C64   C     C_R   0.694259 0.535596 0.945554 0.048420
C65   C     C_R   0.743882 0.615691 0.982904 -0.041456
C66   C     C_R   0.845062 0.618244 0.023478 -0.087864
C67   C     C_R   0.577002 0.097776 0.466330 -0.039725
C68   C     C_R   0.898442 0.541594 0.024950 -0.045990
C69   C     C_R   0.851038 0.462416 0.984894 -0.076516
C70   C     C_R   0.749677 0.459508 0.944840 -0.078246
C71   C     C_R   0.662120 0.052834 0.426104 0.128471
C72   C     C_R   0.717740 0.992015 0.479693 -0.097736
C73   C     C_R   0.795964 0.949166 0.440049 -0.092139
C74   C     C_R   0.819885 0.966782 0.346813 -0.071403
C75   C     C_R   0.765554 0.027263 0.293020 -0.101443
C76   C     C_R   0.687109 0.070088 0.332292 0.005597
C77   C     C_R   0.480836 0.952434 0.685834 0.135607
C78   C     C_R   0.480951 0.906902 0.590423 -0.030130
C79   C     C_R   0.565621 0.007161 0.724123 -0.106249
C80   C     C_R   0.573146 0.036442 0.820302 -0.136929
C81   C     C_R   0.495232 0.012972 0.878354 -0.132865
C82   C     C_R   0.408051 0.962597 0.839490 -0.127579
C83   C     C_R   0.400665 0.932620 0.743565 0.020831
C84   C     C_R   0.493447 0.050123 0.503571 -0.053850
Cu1   Cu    Cu3+1 0.500000 0.499990 0.596430 1.100220
Cu2   Cu    Cu3+1 0.500000 0.500010 0.403570 1.102474
F1    F     F_    0.818306 0.523116 0.697314 -0.614445
F2    F     F_    0.468740 0.770519 0.668643 -0.667422
F3    F     F_    0.557542 0.649278 0.069376 -0.635866
F4    F     F_    0.331322 0.430710 0.918122 -0.654004
F5    F     F_    0.582557 0.642874 0.262756 -0.529211
F6    F     F_    0.350843 0.404842 0.727047 -0.558414
F7    F     F_    0.187224 0.521560 0.302075 -0.599049
F8    F     F_    0.987272 0.497623 0.280972 -0.620236
F9    F     F_    0.005738 0.593661 0.704012 -0.619285
F10   F     F_    0.329801 0.050886 0.567351 -0.595885
F11   F     F_    0.478501 0.947246 0.332131 -0.602744
F12   F     F_    0.336948 0.229914 0.567582 -0.554743
F13   F     F_    0.481340 0.770599 0.327840 -0.494723
F14   F     F_    0.658237 0.237858 0.432803 -0.665918
H1    H     H_    0.863717 0.311450 0.409874 0.137471
H2    H     H_    0.257855 0.688727 0.603693 0.126373
H3    H     H_    0.275368 0.399094 0.264764 0.210783
H4    H     H_    0.192855 0.261975 0.320364 0.143669
H5    H     H_    0.284067 0.124020 0.320696 0.165061
H6    H     H_    0.459491 0.125361 0.269649 0.166615
H7    H     H_    0.546543 0.264569 0.223034 0.123851
H8    H     H_    0.707128 0.630407 0.676176 0.196051
H9    H     H_    0.772192 0.783541 0.682245 0.113863
H10   H     H_    0.708990 0.890664 0.795701 0.110970
H11   H     H_    0.570534 0.843327 0.896577 0.141398
H12   H     H_    0.797023 0.227777 0.260929 0.111953
H13   H     H_    0.499528 0.689656 0.887690 0.150930
H14   H     H_    0.282761 0.325954 0.079699 0.132986
H15   H     H_    0.230295 0.199392 0.968989 0.114944
H16   H     H_    0.352400 0.142307 0.861630 0.153879
H17   H     H_    0.532503 0.205241 0.874709 0.122993
H18   H     H_    0.589075 0.325391 0.992405 0.079461
H19   H     H_    0.705451 0.676373 0.980577 0.180240
H20   H     H_    0.882387 0.679910 0.053114 0.134201
H21   H     H_    0.976826 0.543759 0.056185 0.173398
H22   H     H_    0.892841 0.403292 0.984729 0.126008
H23   H     H_    0.716342 0.305152 0.123690 0.090500
H24   H     H_    0.714854 0.398122 0.912127 0.108353
H25   H     H_    0.700754 0.977154 0.551807 0.082460
H26   H     H_    0.838020 0.902202 0.481687 0.121923
H27   H     H_    0.880462 0.933527 0.316234 0.130259
H28   H     H_    0.784003 0.040830 0.220707 0.101446
H29   H     H_    0.645229 0.116048 0.289060 0.124657
H30   H     H_    0.628158 0.023861 0.681514 0.090977
H31   H     H_    0.640323 0.076070 0.850309 0.109470
H32   H     H_    0.501914 0.034642 0.953215 0.131110
H33   H     H_    0.346994 0.945573 0.884104 0.120859
H34   H     H_    0.702760 0.467060 0.135530 0.102405
H35   H     H_    0.333709 0.892044 0.714753 0.142846
H36   H     H_    0.770626 0.552336 0.282711 0.160588
H37   H     H_    0.132423 0.450302 0.722389 0.154590
H38   H     H_    0.182779 0.513092 0.885510 0.185641
H39   H     H_    0.282287 0.657474 0.908663 0.142672
H40   H     H_    0.320980 0.744006 0.768095 0.161522
N1    N     N_R   0.500000 0.500020 0.258690 -0.274779
N2    N     N_R   0.500000 0.499980 0.741310 -0.277964
O1    O     O_R   0.500010 0.371450 0.581430 -0.442447
O2    O     O_R   0.499990 0.628550 0.418570 -0.392326
O3    O     O_R   0.500010 0.371460 0.418560 -0.494928
O4    O     O_R   0.499990 0.628540 0.581440 -0.483706
O5    O     O_R   0.349000 0.499980 0.568210 -0.460016
O6    O     O_R   0.651000 0.500020 0.431790 -0.510949
O7    O     O_R   0.349000 0.499990 0.405340 -0.462981
O8    O     O_R   0.651000 0.500010 0.594660 -0.480364

loop_
_geom_bond_atom_site_label_1
_geom_bond_atom_site_label_2
_ccdc_geom_bond_type
C28   F11   S    
C66   C68   A    
C20   F7    S    
C39   H37   S    
C34   C56   A    
C16   C21   A    
C23   C45   A    
C27   C29   A    
C41   C42   A    
C1    O3    A    
C35   C36   A    
C18   C26   A    
Cu1   O1    S    
C21   F1    S    
C81   C82   A    
Cu2   O2    S    
C77   C78   S    
C12   O2    A    
C29   F12   S    
C1    O1    A    
C23   C29   A    
C27   C84   A    
C19   C21   A    
C24   C26   A    
C9    C58   S    
Cu1   Cu2   S    
C15   O6    A    
C56   F2    S    
C77   C83   A    
C44   C50   A    
C15   C16   S    
C22   C38   S    
C17   C20   A    
C56   C78   A    
C54   H10   S    
C18   C20   A    
C75   H28   S    
C73   C74   A    
C12   O4    A    
C4    C13   A    
Cu1   O8    S    
C40   C41   A    
C62   H17   S    
C46   C47   A    
C2    C84   S    
C74   H27   S    
C68   C69   A    
C22   C25   A    
C40   H38   S    
C45   C67   A    
C51   C57   A    
C64   C70   A    
C6    N2    A    
C83   H35   S    
C59   C60   A    
C16   C24   A    
C80   H31   S    
C66   H20   S    
C14   C17   S    
C27   F10   S    
C61   C62   A    
C44   C46   A    
C4    F4    S    
C77   C79   A    
C38   C39   A    
C41   H39   S    
C74   C75   A    
C30   C34   A    
C42   H40   S    
C51   C52   A    
Cu1   O4    S    
C4    C6    A    
Cu2   O7    S    
C39   C40   A    
C63   H18   S    
C80   C81   A    
C81   H32   S    
C57   H13   S    
C25   C26   A    
C53   C54   A    
C79   H30   S    
C30   F13   S    
C10   C13   A    
C31   C37   A    
Cu2   O6    S    
C60   C61   A    
Cu1   N2    S    
C75   C76   A    
C62   C63   A    
C2    C78   A    
C76   H29   S    
C5    N1    A    
C47   C48   A    
C61   H16   S    
C65   H19   S    
C37   H36   S    
C33   H12   S    
C7    C44   S    
C9    C11   A    
C8    C51   S    
C5    F5    S    
C48   C49   A    
C1    C23   S    
C55   C57   A    
C50   H7    S    
C18   F8    S    
C42   C43   A    
C12   C34   S    
Cu2   O3    S    
C7    N1    A    
C19   F9    S    
C52   C53   A    
C53   H9    S    
C58   C63   A    
C7    C9    A    
C54   C55   A    
C36   C37   A    
C47   H4    S    
C55   H11   S    
C31   C32   A    
C10   C64   S    
Cu1   O5    S    
C72   C73   A    
C3    C5    A    
C45   F14   S    
C36   H34   S    
C68   H21   S    
C8    N2    A    
C49   H6    S    
C48   H5    S    
C46   H3    S    
C17   C22   A    
C72   H25   S    
C3    F3    S    
C64   C65   A    
C82   H33   S    
C35   H23   S    
C58   C59   A    
C43   H2    S    
C38   C43   A    
C32   C33   A    
C11   C13   S    
C71   C76   A    
C69   H22   S    
C59   H14   S    
C6    F6    S    
C14   O5    A    
C14   O7    A    
C28   C30   A    
C33   C35   A    
C67   C71   S    
C65   C66   A    
C69   C70   A    
C19   C25   A    
C24   C31   S    
C3    C11   A    
C79   C80   A    
C70   H24   S    
C67   C84   A    
C71   C72   A    
C52   H8    S    
C8    C10   A    
C49   C50   A    
C32   H1    S    
C60   H15   S    
C2    C28   A    
C82   C83   A    
C15   O8    A    
C73   H26   S    
Cu2   N1    S    
