data_mof_unit_7379.cif
_audit_creation_date              2012-12-10T21:07:38-0500
_audit_creation_method            fapswitch 2.2
_symmetry_space_group_name_H-M    P1
_symmetry_Int_Tables_number       1
_space_group_crystal_system       triclinic
_cell_length_a                    8.572732
_cell_length_b                    17.522115
_cell_length_c                    16.849127
_cell_angle_alpha                 89.135072
_cell_angle_beta                  97.503544
_cell_angle_gamma                 92.504335
_cell_volume                      2506.76549194

loop_
_atom_site_label
_atom_site_type_symbol
_atom_type_description
_atom_site_fract_x
_atom_site_fract_y
_atom_site_fract_z
_atom_type_partial_charge
C1    C     C_R   0.498030 0.353129 0.500337 0.884422
C2    C     C_R   0.390320 0.453921 0.247615 -0.213392
C3    C     C_R   0.624452 0.545366 0.838454 0.485762
C4    C     C_R   0.383993 0.449520 0.162006 0.500164
C5    C     C_R   0.510621 0.503665 0.876858 -0.049427
C6    C     C_R   0.490132 0.496108 0.123269 -0.053250
C7    C     C_1   0.505900 0.501849 0.964132 0.083267
C8    C     C_1   0.495464 0.497851 0.036027 0.086084
C9    C     C_R   0.201099 0.498839 0.479562 0.981791
C10   C     C_R   0.798905 0.501378 0.520418 0.984394
C11   C     C_2   0.036697 0.493320 0.468920 -0.302749
C12   C     C_R   0.498132 0.646792 0.499389 0.889437
C13   C     C_2   0.963299 0.507315 0.530955 -0.303874
C14   C     C_R   0.448033 0.845246 0.567449 -0.153831
C15   C     C_R   0.442352 0.152897 0.425120 -0.159587
C16   C     C_R   0.470501 0.767431 0.569109 -0.200097
C17   C     C_R   0.465014 0.231620 0.426501 -0.207331
C18   C     C_R   0.483308 0.729108 0.497793 -0.041729
C19   C     C_R   0.482163 0.270224 0.499785 -0.036543
C20   C     C_R   0.473886 0.769507 0.424875 -0.141163
C21   C     C_R   0.476117 0.229233 0.571598 -0.132971
C22   C     C_R   0.451562 0.847501 0.423474 -0.162477
C23   C     C_1   0.427610 0.964687 0.494521 -0.054472
C24   C     C_R   0.453482 0.150349 0.569967 -0.161982
C25   C     C_R   0.438337 0.884726 0.494733 0.154643
C26   C     C_R   0.436624 0.112796 0.496742 0.156017
C27   C     C_3   0.888901 0.580139 0.863789 -0.252348
C28   C     C_3   0.239507 0.333918 0.150711 -0.296469
C29   C     C_1   0.427042 0.032391 0.495436 -0.055355
C30   C     C_R   0.396957 0.460099 0.829836 -0.374200
C31   C     C_R   0.599148 0.542363 0.170007 -0.356486
C32   C     C_R   0.392610 0.456736 0.746393 0.558079
C33   C     C_R   0.604920 0.544764 0.253544 0.553071
C34   C     C_R   0.613283 0.543958 0.752668 -0.211895
H1    H     H_    0.976352 0.475727 0.410927 0.207013
H2    H     H_    0.450998 0.118642 0.625552 0.145834
H3    H     H_    0.309517 0.427655 0.859032 0.230025
H4    H     H_    0.683133 0.576931 0.140564 0.234349
H5    H     H_    0.694998 0.578384 0.722117 0.168368
H6    H     H_    0.306968 0.420880 0.278412 0.166904
H7    H     H_    0.129704 0.288878 0.739983 0.385860
H8    H     H_    0.867735 0.712688 0.260161 0.386998
H9    H     H_    0.908905 0.616123 0.810947 0.159251
H10   H     H_    0.910086 0.519079 0.852861 0.178064
H11   H     H_    0.977438 0.599449 0.914229 0.202984
H12   H     H_    0.023659 0.525096 0.588863 0.206197
H13   H     H_    0.152948 0.339913 0.193619 0.168054
H14   H     H_    0.348437 0.307605 0.180291 0.143353
H15   H     H_    0.184897 0.294056 0.103511 0.204683
H16   H     H_    0.439826 0.874721 0.622763 0.141533
H17   H     H_    0.431194 0.123262 0.368517 0.137333
H18   H     H_    0.477026 0.737397 0.626033 0.165701
H19   H     H_    0.468429 0.262090 0.370289 0.155419
H20   H     H_    0.483162 0.740981 0.369195 0.194050
H21   H     H_    0.488617 0.257941 0.628704 0.193959
H22   H     H_    0.446104 0.878815 0.367280 0.145455
N1    N     N_R   0.500040 0.500030 0.707230 -0.171043
N2    N     N_R   0.499960 0.499970 0.292770 -0.171110
O1    O     O_R   0.500000 0.389130 0.566570 -0.569403
O2    O     O_2   0.242790 0.370735 0.617686 -0.291790
O3    O     O_3   0.231639 0.315747 0.758715 -0.578236
O4    O     O_2   0.756095 0.629994 0.382748 -0.292184
O5    O     O_2   0.913512 0.567156 0.294516 -0.339321
O6    O     O_3   0.765010 0.686253 0.242078 -0.574412
O7    O     O_3   0.737298 0.590359 0.885101 -0.600356
O8    O     O_3   0.271419 0.404973 0.114301 -0.589564
O9    O     O_R   0.500000 0.610870 0.433430 -0.568149
O10   O     O_R   0.499990 0.389100 0.433480 -0.647870
O11   O     O_R   0.500010 0.610900 0.566520 -0.646093
O12   O     O_R   0.271750 0.500010 0.550980 -0.567230
O13   O     O_R   0.728250 0.499990 0.449020 -0.567327
O14   O     O_R   0.271740 0.499980 0.417890 -0.620719
O15   O     O_R   0.728260 0.500020 0.582110 -0.622731
O16   O     O_2   0.084024 0.434556 0.704712 -0.358431
S1    S     S_3+6 0.235356 0.395262 0.701593 0.008589
S2    S     S_3+6 0.762215 0.606230 0.298476 0.017028
Zn1   Zn    Zn3+2 0.500010 0.500020 0.588860 1.016095
Zn2   Zn    Zn3+2 0.499990 0.499980 0.411140 1.017365

loop_
_geom_bond_atom_site_label_1
_geom_bond_atom_site_label_2
_ccdc_geom_bond_type
C4    O8    S    
C12   O11   A    
C28   H13   S    
C33   N2    A    
H8    O6    S    
O11   Zn1   S    
C9    O14   A    
H7    O3    S    
O1    Zn1   S    
C32   S1    S    
C7    C8    T    
O3    S1    S    
C24   H2    S    
C23   C29   T    
C19   C21   A    
C24   C26   A    
C1    O1    A    
C13   H12   S    
C10   O15   A    
O5    S2    D    
C1    O10   A    
O14   Zn2   S    
C27   H10   S    
C22   C25   A    
C34   N1    A    
C31   C33   A    
C15   H17   S    
C10   O13   A    
C27   H11   S    
C6    C31   A    
O12   Zn1   S    
O4    S2    D    
C3    O7    S    
O9    Zn2   S    
C32   N1    A    
O10   Zn2   S    
C12   O9    A    
C1    C19   S    
O16   S1    D    
C34   H5    S    
N1    Zn1   S    
C9    O12   A    
C4    C6    A    
C5    C7    S    
C15   C26   A    
C22   H22   S    
C3    C34   A    
C30   H3    S    
C28   O8    S    
C27   O7    S    
C27   H9    S    
C28   H15   S    
C33   S2    S    
O6    S2    S    
C9    C11   S    
C20   H20   S    
C20   C22   A    
C14   C16   A    
C17   H19   S    
C21   H21   S    
C5    C30   A    
C15   C17   A    
C28   H14   S    
C16   H18   S    
C3    C5    A    
C10   C13   S    
C6    C8    S    
C2    N2    A    
O2    S1    D    
C31   H4    S    
C11   H1    S    
C30   C32   A    
C11   C13   D    
C14   H16   S    
C2    C4    A    
C17   C19   A    
C18   C20   A    
C23   C25   S    
C14   C25   A    
N2    Zn2   S    
C2    H6    S    
C26   C29   S    
C16   C18   A    
C21   C24   A    
C12   C18   S    
O15   Zn1   S    
O13   Zn2   S    
