data_mof_unit_63774.cif
_audit_creation_date              2013-03-05T16:02:33-0500
_audit_creation_method            fapswitch 2.2
_symmetry_space_group_name_H-M    P1
_symmetry_Int_Tables_number       1
_space_group_crystal_system       triclinic
_cell_length_a                    8.196019
_cell_length_b                    14.474362
_cell_length_c                    16.583642
_cell_angle_alpha                 106.480527
_cell_angle_beta                  82.355412
_cell_angle_gamma                 91.820806
_cell_volume                      1869.72303699

loop_
_atom_site_label
_atom_site_type_symbol
_atom_site_description
_atom_site_fract_x
_atom_site_fract_y
_atom_site_fract_z
_atom_type_partial_charge
P1    P     P_3+3 0.619500 0.379780 0.307000 0.479871
O1    O     O_2   0.449810 0.404330 0.292300 -0.354964
O2    O     O_3   0.665430 0.428070 0.399450 -0.413714
O3    O     O_3   0.183150 0.584440 0.337010 -0.411879
O4    O     O_2   0.357044 0.485265 0.192152 -0.372960
O5    O     O_3   0.610496 0.254077 0.283775 -0.545819
O6    O     O_3   0.257397 0.654417 0.191709 -0.515551
H1    H     H_    0.261387 0.744490 0.313210 0.157304
C1    C     C_3   0.235662 0.825304 0.225679 -0.815027
H2    H     H_    0.219369 0.890499 0.280653 0.233157
H3    H     H_    0.364797 0.823353 0.194836 0.288284
P2    P     P_3+3 0.105540 0.727570 0.557610 0.491656
P3    P     P_3+3 0.607993 0.756894 0.369700 0.528878
O7    O     O_2   0.286000 0.735700 0.531070 -0.350251
O8    O     O_3   0.580930 0.641410 0.378050 -0.323016
O9    O     O_2   0.458244 0.816291 0.424231 -0.355496
O10   O     O_3   0.092213 0.779390 0.667605 -0.570457
O11   O     O_3   0.588849 0.752914 0.265101 -0.509673
C2    C     C_3   0.736330 0.716446 0.214033 0.337381
H4    H     H_    0.779634 0.650946 0.227581 0.064311
H5    H     H_    0.832174 0.773116 0.223826 0.075619
C3    C     C_3   0.708403 0.688885 0.121465 -0.795671
H6    H     H_    0.614886 0.631010 0.109298 0.275666
H7    H     H_    0.664786 0.752664 0.105620 0.274240
C4    C     C_3   0.506962 0.797936 0.689177 0.839395
H8    H     H_    0.387004 0.763729 0.686103 -0.023521
C5    C     C_3   0.484411 0.895442 0.756584 -0.987452
H9    H     H_    0.602827 0.935029 0.760648 0.280996
H10   H     H_    0.391301 0.939389 0.740803 0.232823
H11   H     H_    0.441100 0.884615 0.819557 0.246895
Ba1   Ba    Ba6+2 0.356390 0.534880 0.456030 1.603450
C6    C     C_3   0.543149 0.226497 0.355296 0.337626
H12   H     H_    0.434681 0.271559 0.388856 0.033674
H13   H     H_    0.636163 0.235364 0.399526 0.130966
C7    C     C_3   0.489110 0.120741 0.328110 -0.185338
H14   H     H_    0.364764 0.116234 0.308457 0.176773
H15   H     H_    0.484005 0.089348 0.382156 0.124810
C8    C     C_3   0.090522 0.706205 0.707937 0.454263
H16   H     H_    0.200300 0.659003 0.684648 0.015406
H17   H     H_    0.984770 0.660332 0.694442 0.173434
C9    C     C_3   0.078425 0.750550 0.803396 -0.965882
H18   H     H_    0.192984 0.789710 0.820294 0.234587
H19   H     H_    0.059447 0.693262 0.836096 0.235547
H20   H     H_    0.972717 0.801551 0.825592 0.299308
P4    P     P_3+3 0.570190 0.620290 0.693000 0.526620
O12   O     O_2   0.739870 0.595710 0.707750 -0.325411
O13   O     O_3   0.524260 0.572010 0.600550 -0.371984
O14   O     O_3   0.006540 0.415640 0.663000 -0.366655
O15   O     O_3   0.621402 0.743160 0.711245 -0.565492
P5    P     P_3+3 0.593204 0.238136 0.623942 0.508795
O16   O     O_3   0.149240 0.378950 0.461440 -0.413326
O17   O     O_3   0.608760 0.358670 0.621950 -0.358859
O18   O     O_2   0.748400 0.185817 0.569078 -0.330771
O19   O     O_3   0.624072 0.235017 0.725790 -0.492737
Ba2   Ba    Ba6+2 0.833430 0.465200 0.543970 1.636415
P6    P     P_3+3 0.205630 0.552565 0.226403 0.452658
C10   C     C_3   0.198746 0.736482 0.256346 0.474821
H21   H     H_    0.063950 0.732194 0.274089 -0.045069
H22   H     H_    0.151430 0.828967 0.179451 0.248487
O20   O     O_3   0.040450 0.621130 0.538560 -0.407611
C11   C     C_3   0.060564 0.280285 0.291051 0.454455
H23   H     H_    0.931687 0.302136 0.317394 0.090257
H24   H     H_    0.141612 0.344413 0.302473 0.103596
C12   C     C_3   0.069204 0.235004 0.195801 -0.886795
H25   H     H_    0.985283 0.172257 0.182581 0.295342
H26   H     H_    0.032445 0.287839 0.164552 0.196656
H27   H     H_    0.197028 0.210503 0.168589 0.263125
P7    P     P_3+3 0.093679 0.257588 0.437242 0.474192
O21   O     O_2   0.903680 0.264350 0.468980 -0.320067
O22   O     O_3   0.113796 0.211689 0.326797 -0.533822
H28   H     H_    0.825437 0.662442 0.080354 0.207957
C13   C     C_3   0.479428 0.260129 0.783299 0.791279
H29   H     H_    0.383582 0.293792 0.759247 -0.085942
C14   C     C_3   0.413233 0.171220 0.808402 -1.064614
H30   H     H_    0.512061 0.136719 0.829801 0.292736
H31   H     H_    0.310192 0.191127 0.860865 0.246456
H32   H     H_    0.368050 0.118453 0.753720 0.231016
P8    P     P_3+3 0.984702 0.443909 0.773016 0.494297
C15   C     C_3   0.041914 0.273555 0.781056 0.409760
H33   H     H_    0.124014 0.296014 0.831126 0.051727
O23   O     O_2   0.840161 0.516339 0.806872 -0.336143
O24   O     O_3   0.912637 0.340383 0.800068 -0.447831
H34   H     H_    0.112088 0.266771 0.717305 0.064586
H35   H     H_    0.072710 0.122268 0.771466 0.202024
C16   C     C_3   0.971652 0.174950 0.781131 -0.849786
H36   H     H_    0.895509 0.148733 0.728714 0.288696
H37   H     H_    0.894840 0.179182 0.842544 0.264299
C17   C     C_2   0.291212 0.522219 0.752775 -0.469811
C18   C     C_R   0.899510 0.471637 0.250236 -0.538684
C19   C     C_2   0.437027 0.630505 0.862251 0.092358
C20   C     C_2   0.430353 0.587227 0.778545 0.194254
C21   C     C_2   0.177389 0.499132 0.810170 0.116038
C22   C     C_3   0.214983 0.519534 0.900366 -0.020716
C23   C     C_3   0.301245 0.616434 0.929025 0.071465
C24   C     C_2   0.077601 0.504992 0.965604 -0.180294
C25   C     C_2   0.114481 0.487216 0.036401 -0.114713
C26   C     C_R   0.841867 0.421802 0.081343 0.094370
C27   C     C_R   0.988739 0.469068 0.103322 -0.066305
C28   C     C_R   0.727477 0.397618 0.142591 -0.238713
C29   C     C_R   0.756949 0.421912 0.227390 0.321827
C30   C     C_R   0.017868 0.492707 0.188893 0.194979
H38   H     H_    0.618035 0.358320 0.123413 0.181621
H39   H     H_    0.273624 0.501309 0.686362 0.168871
H40   H     H_    0.921925 0.489728 0.315708 0.174668
H41   H     H_    0.950098 0.511656 0.956768 0.188065
H42   H     H_    0.243229 0.486381 0.045307 0.195936
C31   C     C_R   0.186255 0.945162 0.541541 -0.111180
C32   C     C_R   0.014695 0.797923 0.496415 0.261361
C33   C     C_R   0.891956 0.752436 0.448070 -0.331189
C34   C     C_R   0.801082 0.803731 0.409470 0.216425
C35   C     C_R   0.848795 0.894506 0.406759 -0.215311
C36   C     C_R   0.980894 0.940322 0.447918 -0.054261
C37   C     C_R   0.061053 0.894323 0.496828 -0.055684
H43   H     H_    0.858940 0.678804 0.445572 0.177209
C38   C     C_R   0.149956 0.085357 0.488989 -0.155980
C39   C     C_R   0.232576 0.038614 0.537166 0.070677
C40   C     C_R   0.191955 0.183233 0.492480 0.206588
C41   C     C_R   0.316370 0.228556 0.539693 -0.472618
C42   C     C_R   0.408198 0.178979 0.579149 0.197722
C43   C     C_R   0.365110 0.084623 0.578715 -0.263229
C44   C     C_R   0.029967 0.031834 0.440416 0.332836
H44   H     H_    0.777597 0.928605 0.372854 0.203827
H45   H     H_    0.436391 0.046683 0.609769 0.183699
H46   H     H_    0.348280 0.302306 0.541939 0.157373
H47   H     H_    0.249187 0.913007 0.580264 0.174571
I1    I     I_    0.642768 0.030572 0.221460 -0.231728
I2    I     I_    0.539285 0.364149 0.895466 -0.360274
I3    I     I_    0.618282 0.732293 0.908901 -0.347248
N1    N     N_R   0.965711 0.063859 0.376979 0.247656
O25   O     O_R   0.815071 0.095478 0.392265 -0.397972
O26   O     O_R   0.030044 0.029185 0.298371 -0.396906
N2    N     N_R   0.568571 0.808816 0.606287 0.224389
O27   O     O_R   0.610248 0.892099 0.594602 -0.455973
O28   O     O_R   0.601186 0.730893 0.544894 -0.366986

loop_
_geom_bond_atom_site_label_1
_geom_bond_atom_site_label_2
_geom_bond_distance
_ccdc_geom_bond_type
C11   O22   1.399228 S    
Ba1   O20   2.903456 S    
O14   Ba2   2.835018 S    
O5    C6    1.396885 S    
C22   C23   1.530062 S    
C38   C44   1.422834 A    
C5    H10   1.110824 S    
C9    H18   1.107913 S    
O4    P6    1.544987 D    
C24   C25   1.344171 D    
O7    Ba1   2.862482 S    
C26   C27   1.404590 A    
C19   C20   1.359042 D    
P4    O12   1.513866 D    
P5    O19   1.754003 S    
C14   H31   1.109470 S    
P3    O11   1.747005 S    
C7    H15   1.109706 S    
P6    C30   1.835755 S    
O11   C2    1.404114 S    
C8    H16   1.105617 S    
P7    C40   1.859295 S    
C38   C39   1.426301 A    
P1    Ba1   3.397053 S    
C32   C33   1.400448 A    
P1    O1    1.513518 D    
O14   P8    1.738483 S    
C11   H24   1.110519 S    
C41   C42   1.393282 A    
C31   C37   1.410381 A    
C24   H41   1.085362 S    
C34   C35   1.370217 A    
O2    Ba2   2.833539 S    
C7    H14   1.105086 S    
N2    O27   1.302371 A    
C38   C40   1.434098 A    
C14   H32   1.105087 S    
C25   C27   1.485479 S    
O12   Ba2   2.856639 S    
P5    O17   1.754586 S    
C1    H2    1.107677 S    
C1    C10   1.519346 S    
C43   H45   1.081207 S    
O10   C8    1.402951 S    
C18   C30   1.401279 A    
C16   H37   1.110775 S    
C22   C24   1.507528 S    
C8    H17   1.083018 S    
Ba1   O13   2.832910 S    
Ba2   O20   2.794997 S    
O3    P6    1.745473 S    
C5    H11   1.109890 S    
C9    H19   1.109218 S    
O6    P6    1.749562 S    
P1    C29   1.844296 S    
C36   C37   1.417317 A    
C26   C28   1.400254 A    
C19   C23   1.513899 S    
P4    O13   1.584164 S    
P5    O18   1.543249 D    
C14   H30   1.110920 S    
C18   C29   1.391552 A    
P1    O5    1.750907 S    
C6    C7    1.536591 S    
C17   C21   1.346225 D    
C2    C3    1.519314 S    
H35   C16   1.108441 S    
C31   H47   1.080744 S    
C8    C9    1.521066 S    
C13   C14   1.524224 S    
C44   N1    1.427772 S    
P2    C32   1.859243 S    
P7    O21   1.572893 D    
C13   I2    2.138823 S    
P8    C21   1.847132 S    
C4    H8    1.087416 S    
C16   H36   1.109590 S    
C39   C43   1.411032 A    
O1    Ba1   2.856078 S    
P1    O2    1.584187 S    
C6    H13   1.106715 S    
C32   C37   1.432808 A    
P2    O10   1.754386 S    
C7    I1    2.149344 S    
C12   H27   1.110858 S    
C35   H44   1.078563 S    
P3    C34   1.831633 S    
H1    C10   1.108736 S    
P8    O24   1.746487 S    
C28   C29   1.401424 A    
C17   C20   1.483865 S    
P4    O15   1.764001 S    
C41   H46   1.082414 S    
O2    Ba1   2.911974 S    
C1    H3    1.110075 S    
Ba2   O21   2.862569 S    
C33   H43   1.081849 S    
P7    O22   1.749132 S    
P2    O7    1.496760 D    
P3    O8    1.721070 S    
P2    Ba1   3.408936 S    
C9    H20   1.110257 S    
C3    H7    1.110252 S    
C15   H33   1.108848 S    
C3    H28   1.110259 S    
C15   C16   1.522247 S    
C17   H39   1.084316 S    
O13   Ba2   2.912875 S    
N1    O25   1.298026 A    
C25   H42   1.085695 S    
C35   C36   1.404300 A    
C2    H5    1.110715 S    
Ba1   O16   2.795612 S    
C13   H29   1.109749 S    
C15   O24   1.400338 S    
C42   C43   1.398025 A    
O17   Ba2   2.785339 S    
O8    Ba1   2.784719 S    
C4    C5    1.530396 S    
C27   C30   1.413256 A    
C6    H12   1.106680 S    
C2    H4    1.112986 S    
C36   C44   1.406452 A    
C18   H40   1.081632 S    
C40   C41   1.400606 A    
C12   H25   1.110624 S    
C11   C12   1.521680 S    
C15   H34   1.114030 S    
P8    O23   1.544589 D    
C10   H21   1.109281 S    
C21   C22   1.511862 S    
O16   Ba2   2.902558 S    
O16   P7    1.746996 S    
C11   H23   1.107542 S    
P4    C20   1.863572 S    
C4    O15   1.394807 S    
C31   C39   1.412384 A    
O3    Ba1   2.835519 S    
P5    C42   1.854851 S    
P2    O20   1.573043 S    
C28   H38   1.081725 S    
O19   C13   1.406046 S    
P4    Ba2   3.397582 S    
N2    O28   1.294352 A    
P3    O9    1.547237 D    
C5    H9    1.111287 S    
C19   I3    2.120397 S    
C3    H6    1.111026 S    
Ba1   Ba2   4.586173 S    
C33   C34   1.395502 A    
C4    N2    1.449989 S    
C1    H22   1.110562 S    
O6    C10   1.402792 S    
C12   H26   1.106890 S    
N1    O26   1.300778 A    
