data_mof_unit_9063.cif
_audit_creation_date              2012-10-26T19:00:10-0400
_audit_creation_method            fapswitch 2.2
_symmetry_space_group_name_H-M    P1
_symmetry_Int_Tables_number       1
_space_group_crystal_system       triclinic
_cell_length_a                    10.880144
_cell_length_b                    10.75602
_cell_length_c                    9.563472
_cell_angle_alpha                 90.267754
_cell_angle_beta                  91.519529
_cell_angle_gamma                 89.763515
_cell_volume                      1118.77012581

loop_
_atom_site_label
_atom_site_type_symbol
_atom_type_description
_atom_site_fract_x
_atom_site_fract_y
_atom_site_fract_z
_atom_type_partial_charge
C1    C     C_R   0.499879 0.262765 0.499484 0.548798
C2    C     C_R   0.821057 0.515245 0.988779 -0.091551
C3    C     C_R   0.821640 0.393037 0.037928 -0.106734
C4    C     C_R   0.262215 0.499478 0.497696 0.538488
C5    C     C_R   0.857002 0.295582 0.950490 -0.135762
C6    C     C_R   0.893193 0.320357 0.814315 -0.100332
C7    C     C_R   0.892271 0.442796 0.764264 0.064425
C8    C     C_R   0.606259 0.063612 0.525079 0.003987
C9    C     C_R   0.498882 0.129807 0.495963 0.003871
C10   C     C_R   0.394089 0.066625 0.446020 -0.139069
C11   C     C_R   0.392003 0.936045 0.446602 -0.035054
C12   C     C_R   0.173860 0.602045 0.958483 -0.108705
C13   C     C_R   0.497076 0.870872 0.497635 0.028006
C14   C     C_R   0.605381 0.935938 0.526177 -0.005398
C15   C     C_3   0.694324 0.930372 0.647663 -0.283645
C16   C     C_R   0.499971 0.737359 0.500052 0.550326
C17   C     C_3   0.695570 0.071731 0.645541 -0.273756
C18   C     C_R   0.470054 0.604786 0.073321 0.177044
C19   C     C_R   0.521001 0.393656 0.074223 -0.022313
C20   C     C_R   0.521316 0.393688 0.925911 -0.007792
C21   C     C_R   0.470763 0.604855 0.926145 0.160278
C22   C     C_3   0.536009 0.726263 0.924057 -0.283800
C23   C     C_R   0.929705 0.530787 0.381701 -0.159473
C24   C     C_3   0.533635 0.727124 0.082322 -0.274910
C25   C     C_R   0.737755 0.500124 0.502208 0.544067
C26   C     C_R   0.131345 0.698928 0.042264 -0.133209
C27   C     C_R   0.096828 0.675285 0.179258 -0.112777
C28   C     C_R   0.106799 0.554722 0.234131 0.061538
C29   C     C_R   0.148749 0.457506 0.149004 -0.045753
C30   C     C_R   0.182928 0.481449 0.011899 -0.099590
C31   C     C_3   0.277084 0.868596 0.399466 -0.397093
C32   C     C_R   0.871730 0.501348 0.505851 -0.009979
C33   C     C_R   0.943253 0.470504 0.626366 -0.035986
C34   C     C_R   0.070143 0.467180 0.617654 -0.160608
C35   C     C_R   0.128209 0.497165 0.493600 -0.012106
C36   C     C_R   0.056570 0.527426 0.372741 -0.035042
C37   C     C_R   0.856778 0.540352 0.852596 -0.050679
Cu1   Cu    Cu3+1 0.499990 0.499980 0.640670 0.928115
Cu2   Cu    Cu3+1 0.500010 0.500020 0.359330 0.925471
H1    H     H_    0.200198 0.620708 0.852356 0.126898
H2    H     H_    0.541006 0.307957 0.128743 0.119364
H3    H     H_    0.123870 0.792087 0.000553 0.099822
H4    H     H_    0.541682 0.308003 0.871902 0.121116
H5    H     H_    0.630298 0.717060 0.883221 0.134927
H6    H     H_    0.478340 0.800881 0.875678 0.127890
H7    H     H_    0.626378 0.721020 0.133433 0.139222
H8    H     H_    0.473357 0.801305 0.124454 0.131657
H9    H     H_    0.060695 0.750384 0.242035 0.095459
H10   H     H_    0.153363 0.363283 0.188325 0.099617
H11   H     H_    0.215975 0.406419 0.946977 0.103826
H12   H     H_    0.794531 0.373727 0.143649 0.126299
H13   H     H_    0.875746 0.556520 0.289567 0.130745
H14   H     H_    0.123953 0.440982 0.709787 0.132529
H15   H     H_    0.858699 0.635651 0.816610 0.090778
H16   H     H_    0.794063 0.590722 0.056438 0.094779
H17   H     H_    0.243692 0.809827 0.485645 0.132125
H18   H     H_    0.202394 0.934224 0.367976 0.110245
H19   H     H_    0.297287 0.808725 0.308097 0.156873
H20   H     H_    0.857823 0.201054 0.988785 0.098444
H21   H     H_    0.924217 0.244770 0.748822 0.091966
H22   H     H_    0.313192 0.118850 0.412480 0.108346
H23   H     H_    0.653042 0.892718 0.743134 0.132427
H24   H     H_    0.783565 0.887792 0.619194 0.128213
H25   H     H_    0.655492 0.115199 0.739827 0.138526
H26   H     H_    0.785085 0.110484 0.613973 0.127968
N1    N     N_R   0.500790 0.500930 0.147930 -0.232809
N2    N     N_R   0.500790 0.500890 0.852020 -0.231162
O1    O     O_R   0.500000 0.319640 0.618810 -0.511691
O2    O     O_R   0.500010 0.319680 0.381230 -0.514266
O3    O     O_R   0.319640 0.499990 0.618790 -0.514828
O4    O     O_R   0.319650 0.500030 0.381210 -0.490145
O5    O     O_R   0.499990 0.680320 0.618770 -0.507347
O6    O     O_R   0.500000 0.680360 0.381190 -0.506879
O7    O     O_R   0.680350 0.499970 0.618790 -0.487957
O8    O     O_R   0.680360 0.500010 0.381210 -0.516274

loop_
_geom_bond_atom_site_label_1
_geom_bond_atom_site_label_2
_ccdc_geom_bond_type
C27   H9    S    
Cu1   O3    S    
C18   C21   A    
C20   N2    A    
C19   C20   A    
C16   O5    A    
C4    O3    A    
C29   H10   S    
C26   C27   A    
C18   C24   S    
C31   H19   S    
C28   C29   A    
C25   O7    A    
C2    H16   S    
C17   H25   S    
C5    C6    A    
C1    O1    A    
C19   N1    A    
C34   C35   A    
C22   H5    S    
C35   C36   A    
C8    C9    A    
Cu2   O8    S    
C31   H17   S    
C9    C10   A    
C25   C32   S    
C30   H11   S    
C4    C35   S    
C11   C31   S    
Cu2   O4    S    
C13   C14   A    
C21   N2    A    
C7    C33   S    
C7    C37   A    
Cu1   O5    S    
C5    H20   S    
C16   O6    A    
C6    H21   S    
C1    C9    S    
C3    H12   S    
C1    O2    A    
C12   C26   A    
C25   O8    A    
C12   H1    S    
C29   C30   A    
C33   C34   A    
Cu2   O2    S    
C37   H15   S    
Cu1   O1    S    
Cu2   N1    S    
C22   C24   S    
C10   H22   S    
C20   H4    S    
C26   H3    S    
Cu1   O7    S    
C15   C17   S    
C8    C14   A    
C12   C30   A    
C24   H8    S    
C3    C5    A    
C6    C7    A    
C18   N1    A    
C17   H26   S    
C8    C17   S    
C24   H7    S    
C32   C33   A    
C31   H18   S    
C2    C3    A    
C23   C32   A    
C11   C13   A    
C2    C37   A    
C23   H13   S    
Cu1   Cu2   S    
C15   H23   S    
Cu2   O6    S    
C10   C11   A    
C22   H6    S    
Cu1   N2    S    
C28   C36   S    
C34   H14   S    
C23   C36   A    
C13   C16   S    
C27   C28   A    
C15   H24   S    
C14   C15   S    
C21   C22   S    
C4    O4    A    
C19   H2    S    
