data_mof_unit_53127.cif
_audit_creation_date              2012-12-10T18:03:59-0500
_audit_creation_method            fapswitch 2.2
_symmetry_space_group_name_H-M    P1
_symmetry_Int_Tables_number       1
_space_group_crystal_system       triclinic
_cell_length_a                    10.797683
_cell_length_b                    9.526383
_cell_length_c                    10.844412
_cell_angle_alpha                 90.232991
_cell_angle_beta                  90.064196
_cell_angle_gamma                 90.045207
_cell_volume                      1115.47699993

loop_
_atom_site_label
_atom_site_type_symbol
_atom_type_description
_atom_site_fract_x
_atom_site_fract_y
_atom_site_fract_z
_atom_type_partial_charge
C1    C     C_R   0.262359 0.499758 0.497171 0.783945
C2    C     C_R   0.737704 0.499974 0.497497 0.784048
C3    C     C_R   0.423366 0.074529 0.423364 -0.109484
C4    C     C_R   0.577300 0.075281 0.576046 -0.081004
C5    C     C_R   0.423169 0.924917 0.422470 0.459564
C6    C     C_R   0.578227 0.925600 0.576185 0.521637
C7    C     C_R   0.495040 0.499433 0.262135 0.850258
C8    C     C_R   0.493551 0.499957 0.737586 0.853821
C9    C     C_R   0.476654 0.623196 0.063641 -0.105838
C10   C     C_R   0.475336 0.623795 0.937026 -0.100353
C11   C     C_R   0.475888 0.497520 0.129145 -0.153427
C12   C     C_R   0.473588 0.498751 0.870198 -0.188330
C13   C     C_R   0.450668 0.371013 0.064129 0.296310
C14   C     C_R   0.443833 0.373297 0.933249 0.308384
C15   C     C_3   0.555731 0.751784 0.929153 0.223914
C16   C     C_3   0.557949 0.751270 0.070223 0.206602
C17   C     C_R   0.064056 0.406986 0.566544 -0.207920
C18   C     C_R   0.936082 0.407095 0.566513 -0.211235
C19   C     C_R   0.871496 0.499583 0.490265 -0.198432
C20   C     C_R   0.128702 0.498688 0.489698 -0.205956
C21   C     C_R   0.935785 0.589480 0.408625 0.401386
C22   C     C_R   0.064716 0.587890 0.407525 0.417892
Cu1   Cu    Cu3+1 0.500000 0.640660 0.500000 1.070671
Cu2   Cu    Cu3+1 0.500000 0.359340 0.500000 1.004420
H1    H     H_    0.646565 0.731924 0.884170 0.166622
H2    H     H_    0.511816 0.842622 0.114752 0.170062
H3    H     H_    0.112852 0.337355 0.628687 0.184241
H4    H     H_    0.887247 0.337288 0.628446 0.168948
H5    H     H_    0.362324 0.131883 0.362542 0.174252
H6    H     H_    0.638794 0.133267 0.636476 0.141747
N1    N     N_R   0.500000 0.852070 0.500000 -0.185515
N2    N     N_R   0.500000 0.147940 0.500000 -0.192128
O1    O     O_R   0.319640 0.618740 0.499990 -0.535034
O2    O     O_R   0.680360 0.618740 0.500010 -0.529628
O3    O     O_R   0.319620 0.381170 0.499990 -0.580947
O4    O     O_R   0.680380 0.381170 0.500010 -0.590146
O5    O     O_R   0.499990 0.618810 0.319660 -0.541963
O6    O     O_R   0.500010 0.618810 0.680340 -0.533942
O7    O     O_R   0.499960 0.381240 0.319650 -0.535816
O8    O     O_R   0.500040 0.381240 0.680350 -0.530722
O9    O     O_3   0.439088 0.246841 0.128583 -0.732296
H7    H     H_    0.468731 0.168304 0.076284 0.336010
O10   O     O_3   0.410773 0.255301 0.866314 -0.700402
H8    H     H_    0.353847 0.197517 0.916622 0.332930
O11   O     O_3   0.493561 0.868582 0.879469 -0.691018
H9    H     H_    0.410483 0.875924 0.918274 0.327809
O12   O     O_3   0.676421 0.724957 0.119060 -0.699303
H10   H     H_    0.710224 0.638753 0.079719 0.317194
O13   O     O_3   0.876884 0.675205 0.324587 -0.642816
H11   H     H_    0.793087 0.637950 0.308109 0.341620
O14   O     O_3   0.124068 0.669580 0.320766 -0.651882
H12   H     H_    0.204952 0.626468 0.300580 0.330634
O15   O     O_3   0.347061 0.851013 0.343571 -0.686234
H13   H     H_    0.298900 0.918165 0.292989 0.317794
O16   O     O_3   0.657952 0.852262 0.651374 -0.677560
H14   H     H_    0.708238 0.919904 0.699922 0.306618

loop_
_geom_bond_atom_site_label_1
_geom_bond_atom_site_label_2
_ccdc_geom_bond_type
C5    N1    A    
Cu1   O1    S    
O10   H8    S    
Cu2   N2    S    
O15   H13   S    
C13   C14   A    
Cu1   O6    S    
C11   C13   A    
C9    C10   A    
O12   H10   S    
C6    O16   S    
C8    C12   S    
Cu1   O2    S    
C2    O2    A    
O16   H14   S    
C13   O9    S    
C6    N1    A    
C7    O5    A    
C1    O1    A    
Cu2   O4    S    
O11   H9    S    
C7    C11   S    
C9    C11   A    
C4    N2    A    
C10   C12   A    
C21   O13   S    
C16   O12   S    
C21   C22   A    
C19   C21   A    
C9    C16   S    
C12   C14   A    
C17   C18   A    
C10   C15   S    
C8    O6    A    
C16   H2    S    
C3    N2    A    
O13   H11   S    
C15   H1    S    
Cu2   O3    S    
C15   O11   S    
Cu1   Cu2   S    
C15   C16   S    
C17   H3    S    
C17   C20   A    
C18   H4    S    
C1    O3    A    
C4    C6    A    
C18   C19   A    
O9    H7    S    
C2    O4    A    
C3    H5    S    
C7    O7    A    
C14   O10   S    
C1    C20   S    
C5    O15   S    
C8    O8    A    
Cu2   O8    S    
C2    C19   S    
Cu1   O5    S    
Cu2   O7    S    
C4    H6    S    
O14   H12   S    
C20   C22   A    
C22   O14   S    
C3    C5    A    
Cu1   N1    S    
