data_mof_unit_56716.cif
_audit_creation_date              2012-12-10T17:02:18-0500
_audit_creation_method            fapswitch 2.2
_symmetry_space_group_name_H-M    P1
_symmetry_Int_Tables_number       1
_space_group_crystal_system       triclinic
_cell_length_a                    10.667895
_cell_length_b                    10.765506
_cell_length_c                    10.07381
_cell_angle_alpha                 89.393916
_cell_angle_beta                  91.461708
_cell_angle_gamma                 90.603724
_cell_volume                      1156.42742982

loop_
_atom_site_label
_atom_site_type_symbol
_atom_type_description
_atom_site_fract_x
_atom_site_fract_y
_atom_site_fract_z
_atom_type_partial_charge
C1    C     C_R   0.494731 0.262557 0.500140 0.890731
C2    C     C_2   0.458915 0.133241 0.499429 -0.126613
C3    C     C_2   0.473779 0.594606 0.924990 -0.132737
C4    C     C_R   0.259900 0.490701 0.498700 0.866826
C5    C     C_2   0.501287 0.600282 0.072140 0.224535
C6    C     C_R   0.498498 0.736705 0.499215 0.926658
C7    C     C_R   0.739450 0.516427 0.502466 0.877361
C8    C     C_R   0.114306 0.384716 0.717641 -0.164380
C9    C     C_R   0.063452 0.386257 0.843233 -0.205196
C10   C     C_R   0.962503 0.463625 0.867657 0.109760
C11   C     C_R   0.902178 0.526600 0.760990 0.037270
C12   C     C_R   0.060952 0.456674 0.613221 0.084021
C13   C     C_R   0.942657 0.507882 0.628855 0.000862
C14   C     C_1   0.592747 0.418774 0.898445 0.376493
C15   C     C_1   0.818567 0.627103 0.791112 0.228993
C16   C     C_1   0.881693 0.633903 0.282174 0.196006
C17   C     C_1   0.350432 0.881216 0.308988 0.231101
C18   C     C_1   0.546808 0.100367 0.277014 0.177505
C19   C     C_R   0.125363 0.487033 0.496697 -0.124726
C20   C     C_R   0.064168 0.544230 0.388876 -0.248089
C21   C     C_R   0.938209 0.568774 0.393887 -0.001407
C22   C     C_R   0.873924 0.540498 0.510816 -0.182093
C23   C     C_2   0.444276 0.932935 0.400029 0.009484
C24   C     C_2   0.504464 0.868017 0.495301 -0.355657
C25   C     C_2   0.474960 0.062676 0.391306 -0.034929
H1    H     H_    0.115207 0.573204 0.301766 0.174304
H2    H     H_    0.466643 0.322282 0.129563 0.217076
H3    H     H_    0.340116 0.409727 0.151184 0.204837
H4    H     H_    0.902834 0.394629 0.042464 0.205203
H5    H     H_    0.001428 0.517374 0.055127 0.185890
H6    H     H_    0.430256 0.674459 0.876954 0.155870
H7    H     H_    0.197294 0.329880 0.703615 0.148919
H8    H     H_    0.108346 0.334652 0.923812 0.146866
H9    H     H_    0.567638 0.912889 0.567005 0.156858
H10   H     H_    0.453392 0.092522 0.696517 0.204770
H11   H     H_    0.314768 0.137313 0.626929 0.181144
H12   H     H_    0.516279 0.789347 0.056883 0.162412
H13   H     H_    0.613572 0.722741 0.168034 0.218135
N1    N     N_2   0.501340 0.501330 0.852150 -0.153559
N2    N     N_1   0.275165 0.840156 0.236714 -0.208362
N3    N     N_1   0.605119 0.128809 0.186051 -0.201736
N4    N     N_2   0.501380 0.501360 0.147810 -0.084444
N5    N     N_3   0.394352 0.083695 0.612618 -0.447720
N6    N     N_1   0.668215 0.349491 0.936015 -0.238982
N7    N     N_3   0.522062 0.719900 0.130054 -0.406008
N8    N     N_3   0.424345 0.405430 0.100784 -0.417112
N9    N     N_3   0.924406 0.481548 0.001296 -0.442037
N10   N     N_1   0.752247 0.707707 0.815393 -0.208055
N11   N     N_1   0.839453 0.687223 0.191747 -0.213049
O1    O     O_R   0.499980 0.319060 0.613040 -0.627786
O2    O     O_R   0.500020 0.319100 0.386900 -0.619390
O3    O     O_R   0.316750 0.499980 0.613090 -0.613856
O4    O     O_R   0.316790 0.500020 0.386950 -0.629279
O5    O     O_R   0.499980 0.680900 0.613100 -0.615561
O6    O     O_R   0.500020 0.680940 0.386960 -0.599073
O7    O     O_R   0.683210 0.499980 0.613050 -0.623791
O8    O     O_R   0.683250 0.500020 0.386910 -0.596057
Zn1   Zn    Zn3+2 0.499970 0.499970 0.650990 0.957734
Zn2   Zn    Zn3+2 0.500030 0.500030 0.349010 0.964061

loop_
_geom_bond_atom_site_label_1
_geom_bond_atom_site_label_2
_ccdc_geom_bond_type
N4    Zn2   S    
C3    H6    S    
C5    N4    D    
C16   C21   S    
C1    O1    A    
O6    Zn2   S    
C4    O4    A    
C7    C22   S    
H10   N5    S    
C9    C10   A    
C2    N5    S    
H11   N5    S    
C19   C20   A    
C1    O2    A    
C6    O6    A    
C8    C12   A    
C6    C24   S    
O4    Zn2   S    
C3    N1    D    
C21   C22   A    
C16   N11   T    
C9    H8    S    
C12   C13   A    
C11   C13   A    
H3    N8    S    
C17   C23   S    
C18   C25   S    
C20   H1    S    
C7    O7    A    
H4    N9    S    
C15   N10   T    
C12   C19   A    
C6    O5    A    
C13   C22   A    
C4    O3    A    
C2    C25   D    
C11   C15   S    
C23   C25   S    
O5    Zn1   S    
O3    Zn1   S    
O8    Zn2   S    
O2    Zn2   S    
C10   C11   A    
C23   C24   D    
H12   N7    S    
O1    Zn1   S    
H5    N9    S    
C20   C21   A    
H2    N8    S    
C14   N6    T    
C1    C2    S    
N4    N8    S    
C18   N3    T    
C10   N9    S    
N1    Zn1   S    
H13   N7    S    
C14   N1    S    
C4    C19   S    
C5    N7    S    
C7    O8    A    
C24   H9    S    
O7    Zn1   S    
C8    C9    A    
C3    C5    S    
C17   N2    T    
C8    H7    S    
