data_mof_unit_5734.cif
_audit_creation_date              2012-12-11T15:34:30-0500
_audit_creation_method            fapswitch 2.2
_symmetry_space_group_name_H-M    P1
_symmetry_Int_Tables_number       1
_space_group_crystal_system       triclinic
_cell_length_a                    15.068444
_cell_length_b                    15.072833
_cell_length_c                    34.883136
_cell_angle_alpha                 90.613185
_cell_angle_beta                  89.916711
_cell_angle_gamma                 60.036066
_cell_volume                      6863.23580921

loop_
_atom_site_label
_atom_site_type_symbol
_atom_type_description
_atom_site_fract_x
_atom_site_fract_y
_atom_site_fract_z
_atom_type_partial_charge
C1    C     C_R   0.302035 0.608564 0.555723 0.566346
C2    C     C_R   0.235497 0.709421 0.385306 -0.125329
C3    C     C_R   0.688567 0.104259 0.267287 -0.145668
C4    C     C_R   0.690949 0.098517 0.227461 -0.122482
C5    C     C_R   0.666990 0.185233 0.205738 0.121729
C6    C     C_R   0.720639 0.229927 0.347921 -0.125102
C7    C     C_R   0.703873 0.253298 0.386898 -0.128365
C8    C     C_R   0.562755 0.218957 0.385909 -0.128152
C9    C     C_R   0.737085 0.587637 0.648076 -0.125719
C10   C     C_R   0.580463 0.194527 0.346928 -0.117278
C11   C     C_R   0.656721 0.204123 0.327590 0.037090
C12   C     C_R   0.621829 0.252445 0.405885 0.025297
C13   C     C_R   0.225014 0.709345 0.345544 -0.066880
C14   C     C_R   0.091233 0.706269 0.092223 0.018047
C15   C     C_R   0.134159 0.603542 0.103058 -0.136613
C16   C     C_R   0.184809 0.571292 0.138031 -0.085558
C17   C     C_R   0.190671 0.642048 0.162944 0.039408
C18   C     C_R   0.153096 0.743060 0.150894 -0.136035
C19   C     C_R   0.104489 0.774682 0.115813 -0.126742
C20   C     C_R   0.280338 0.654816 0.220625 -0.178535
C21   C     C_3   0.913493 0.120967 0.913216 -0.114817
C22   C     C_3   0.465849 0.287002 0.832640 -0.118063
C23   C     C_3   0.821006 0.295189 0.600410 -0.098975
C24   C     C_R   0.243886 0.619515 0.325948 0.060866
C25   C     C_3   0.258291 0.390466 0.601207 -0.112282
C26   C     C_3   0.750342 0.491443 0.069871 -0.105633
C27   C     C_3   0.793378 0.421160 0.318688 -0.126459
C28   C     C_3   0.574287 0.934231 0.291637 -0.078924
C29   C     C_3   0.767211 0.794747 0.211854 -0.122580
C30   C     C_3   0.424233 0.918182 0.363716 -0.142785
C31   C     C_3   0.836985 0.499159 0.180219 -0.103961
C32   C     C_3   0.511062 0.439048 0.208589 -0.133997
C33   C     C_3   0.847320 0.240767 0.147505 -0.091056
C34   C     C_3   0.416054 0.276771 0.149279 -0.127585
C35   C     C_R   0.557987 0.718879 0.651442 -0.123588
C36   C     C_3   0.772538 0.434724 0.839179 -0.118452
C37   C     C_3   0.326101 0.788235 0.263833 -0.131631
C38   C     C_3   0.016086 0.606143 0.213729 -0.129010
C39   C     C_3   0.565148 0.919383 0.822567 -0.087338
C40   C     C_R   0.262942 0.620183 0.406086 0.019912
C41   C     C_R   0.735887 0.025980 0.943404 0.558138
C42   C     C_R   0.745621 0.722514 0.945254 0.547642
C43   C     C_R   0.038858 0.733596 0.948506 0.543261
C44   C     C_R   0.722859 0.038725 0.052941 0.546331
C45   C     C_R   0.732829 0.734384 0.054633 0.559634
C46   C     C_R   0.651962 0.658729 0.669808 0.037058
C47   C     C_R   0.028066 0.744708 0.057696 0.540073
C48   C     C_R   0.546922 0.701887 0.612919 -0.133327
C49   C     C_R   0.668223 0.667131 0.789398 0.363576
C50   C     C_R   0.658564 0.664477 0.711799 0.321386
C51   C     C_R   0.752355 0.591268 0.851852 0.231211
C52   C     C_R   0.771714 0.605438 0.889950 -0.129054
C53   C     C_R   0.628189 0.778573 0.889591 -0.132894
C54   C     C_R   0.610980 0.767725 0.850916 0.227586
C55   C     C_R   0.675228 0.674425 0.831378 0.038435
C56   C     C_R   0.610535 0.588721 0.555193 0.540097
C57   C     C_R   0.288877 0.656977 0.260776 0.265012
C58   C     C_R   0.712136 0.700109 0.908599 -0.073682
C59   C     C_R   0.720719 0.078315 0.906349 -0.023908
C60   C     C_R   0.625461 0.117789 0.888111 -0.165742
C61   C     C_R   0.614004 0.147203 0.849836 0.248096
C62   C     C_R   0.699840 0.133827 0.828872 -0.020600
C63   C     C_R   0.792302 0.103696 0.847757 -0.157698
C64   C     C_R   0.803072 0.077788 0.886573 0.254828
C65   C     C_R   0.728557 0.203059 0.768403 -0.128963
C66   C     C_R   0.724414 0.210257 0.728561 -0.113032
C67   C     C_R   0.688770 0.155612 0.706679 0.029091
C68   C     C_R   0.241209 0.615772 0.283635 -0.005688
C69   C     C_R   0.590856 0.299474 0.553335 0.558488
C70   C     C_R   0.659582 0.091959 0.725236 -0.116097
C71   C     C_R   0.663477 0.085096 0.765013 -0.066868
C72   C     C_R   0.696398 0.141786 0.786859 0.050229
C73   C     C_R   0.583253 0.187895 0.648098 -0.140835
C74   C     C_R   0.561311 0.220392 0.610404 -0.176286
C75   C     C_R   0.723849 0.217296 0.604985 0.273111
C76   C     C_R   0.746509 0.181223 0.642742 -0.104078
C77   C     C_R   0.674108 0.172176 0.665039 -0.009620
C78   C     C_R   0.628337 0.240580 0.589108 0.036064
C79   C     C_R   0.188720 0.571454 0.266135 -0.147157
C80   C     C_R   0.094547 0.695437 0.911855 0.017077
C81   C     C_R   0.302843 0.608822 0.445333 0.547510
C82   C     C_R   0.130467 0.753002 0.892704 -0.106257
C83   C     C_R   0.156356 0.734979 0.853971 -0.115894
C84   C     C_R   0.147210 0.658910 0.833836 0.023158
C85   C     C_R   0.121585 0.594427 0.853789 -0.119889
C86   C     C_R   0.095418 0.612537 0.892605 -0.128525
C87   C     C_R   0.208332 0.560761 0.771964 -0.106208
C88   C     C_R   0.214285 0.558495 0.732006 -0.104184
C89   C     C_R   0.164923 0.650007 0.711267 0.037051
C90   C     C_R   0.176833 0.573550 0.226446 0.272904
C91   C     C_R   0.107087 0.743345 0.731021 -0.105235
C92   C     C_R   0.101497 0.745614 0.770858 -0.104896
C93   C     C_R   0.607762 0.589886 0.445206 0.551225
C94   C     C_R   0.153472 0.654600 0.791671 0.033621
C95   C     C_R   0.206194 0.719285 0.653929 -0.137105
C96   C     C_R   0.237223 0.709962 0.615919 -0.172944
C97   C     C_R   0.216860 0.560398 0.607469 0.277205
C98   C     C_R   0.182670 0.572767 0.645918 -0.107750
C99   C     C_R   0.182085 0.648783 0.669587 -0.010473
C100  C     C_R   0.246767 0.628751 0.592729 0.038685
C101  C     C_R   0.221169 0.617529 0.203409 -0.017437
C102  C     C_R   0.688421 0.720033 0.090363 -0.025199
C103  C     C_R   0.610422 0.806814 0.109338 -0.197072
C104  C     C_R   0.581346 0.800258 0.146556 -0.143277
C105  C     C_R   0.587995 0.302925 0.443698 0.540721
C106  C     C_R   0.630277 0.707209 0.166001 0.009015
C107  C     C_R   0.701770 0.617257 0.146092 0.278095
C108  C     C_R   0.728769 0.623391 0.107857 0.273734
C109  C     C_R   0.595531 0.636690 0.224959 -0.151213
C110  C     C_R   0.596393 0.627684 0.264629 -0.134583
C111  C     C_R   0.616157 0.691399 0.288331 0.072441
C112  C     C_R   0.264701 0.532648 0.347012 -0.129455
C113  C     C_R   0.630536 0.768476 0.272180 0.312524
C114  C     C_R   0.635951 0.773363 0.231817 0.261831
C115  C     C_R   0.617261 0.707623 0.208127 -0.010767
C116  C     C_R   0.544906 0.745457 0.354672 0.277599
C117  C     C_R   0.629546 0.624079 0.592115 0.022587
C118  C     C_R   0.544691 0.718925 0.393289 -0.137648
C119  C     C_R   0.704851 0.560733 0.383741 -0.132211
C120  C     C_R   0.704355 0.583213 0.344688 0.240035
C121  C     C_R   0.623130 0.674642 0.330137 0.105244
C122  C     C_R   0.622606 0.625730 0.407710 -0.067999
C123  C     C_R   0.272915 0.533318 0.386673 -0.123161
C124  C     C_R   0.698045 0.101480 0.088269 -0.072191
C125  C     C_R   0.772835 0.117205 0.105910 -0.146706
C126  C     C_R   0.758492 0.155746 0.143543 0.236800
C127  C     C_R   0.669759 0.175348 0.163836 0.084041
C128  C     C_R   0.589258 0.171788 0.145013 0.235600
C129  C     C_R   0.725938 0.570587 0.609464 -0.141384
C130  C     C_R   0.604508 0.133469 0.107336 -0.135171
C131  C     C_R   0.638934 0.279189 0.223945 0.309078
C132  C     C_R   0.639873 0.283666 0.264186 -0.102675
C133  C     C_R   0.663229 0.196646 0.285745 -0.021826
Cr1   Cr    Cr6+3 0.421670 0.426920 0.499620 1.042159
Cr2   Cr    Cr6+3 0.427030 0.651190 0.500980 1.010123
Cr3   Cr    Cr6+3 0.651280 0.421870 0.499380 1.041344
Cr4   Cr    Cr6+3 0.910810 0.908010 0.001130 1.035818
Cr5   Cr    Cr6+3 0.682800 0.909890 0.998370 1.007183
Cr6   Cr    Cr6+3 0.908370 0.682300 0.002180 1.030202
H1    H     H_    0.819460 0.162845 0.655129 0.107309
H2    H     H_    0.067241 0.814696 0.715640 0.109458
H3    H     H_    0.504509 0.981720 0.805442 0.170004
H4    H     H_    0.636180 0.882096 0.804670 0.111323
H5    H     H_    0.577163 0.955094 0.848648 0.133736
H6    H     H_    0.056292 0.818665 0.785462 0.113911
H7    H     H_    0.836152 0.543287 0.904297 0.151364
H8    H     H_    0.114432 0.535024 0.838802 0.122804
H9    H     H_    0.575954 0.881663 0.096377 0.155357
H10   H     H_    0.582368 0.570147 0.276979 0.145331
H11   H     H_    0.811006 0.541271 0.661291 0.132917
H12   H     H_    0.491425 0.775671 0.667230 0.133336
H13   H     H_    0.707325 0.036721 0.283766 0.129181
H14   H     H_    0.711088 0.026511 0.213408 0.133899
H15   H     H_    0.745839 0.261171 0.714962 0.108400
H16   H     H_    0.780854 0.235735 0.333246 0.097794
H17   H     H_    0.750965 0.278547 0.401456 0.126578
H18   H     H_    0.499190 0.217460 0.399782 0.121961
H19   H     H_    0.126381 0.548970 0.084993 0.123177
H20   H     H_    0.072415 0.854325 0.108166 0.138956
H21   H     H_    0.204774 0.778668 0.330034 0.136799
H22   H     H_    0.152359 0.539113 0.283427 0.129115
H23   H     H_    0.294512 0.462960 0.401706 0.135662
H24   H     H_    0.227183 0.777493 0.399466 0.126685
H25   H     H_    0.579784 0.851573 0.903791 0.152568
H26   H     H_    0.633090 0.048127 0.708995 0.109703
H27   H     H_    0.560452 0.121380 0.902903 0.152761
H28   H     H_    0.791326 0.511563 0.593833 0.117203
H29   H     H_    0.852786 0.175644 0.933336 0.102751
H30   H     H_    0.917129 0.161600 0.887324 0.101267
H31   H     H_    0.987966 0.090016 0.928098 0.138643
H32   H     H_    0.754593 0.246941 0.784880 0.094052
H33   H     H_    0.506073 0.318872 0.815810 0.124323
H34   H     H_    0.451254 0.318170 0.862507 0.113642
H35   H     H_    0.390434 0.313000 0.819062 0.137616
H36   H     H_    0.640893 0.035394 0.778791 0.123049
H37   H     H_    0.526246 0.180832 0.664626 0.115438
H38   H     H_    0.878132 0.257076 0.623408 0.098838
H39   H     H_    0.752299 0.365092 0.611873 0.121771
H40   H     H_    0.856921 0.320320 0.578505 0.148850
H41   H     H_    0.131749 0.816649 0.906869 0.149023
H42   H     H_    0.068417 0.566598 0.906648 0.133716
H43   H     H_    0.260605 0.485656 0.717415 0.100650
H44   H     H_    0.178364 0.784032 0.839230 0.119757
H45   H     H_    0.206578 0.778548 0.671643 0.122357
H46   H     H_    0.260020 0.763098 0.605463 0.138317
H47   H     H_    0.197373 0.385338 0.617276 0.110048
H48   H     H_    0.488582 0.235703 0.598754 0.128477
H49   H     H_    0.323553 0.374497 0.620392 0.099573
H50   H     H_    0.287795 0.329664 0.578701 0.143069
H51   H     H_    0.696656 0.544212 0.048020 0.102185
H52   H     H_    0.708889 0.468540 0.090366 0.134738
H53   H     H_    0.808225 0.421102 0.054628 0.129454
H54   H     H_    0.717608 0.425395 0.316414 0.102298
H55   H     H_    0.835937 0.375059 0.343834 0.112091
H56   H     H_    0.838189 0.380425 0.292646 0.150587
H57   H     H_    0.580639 0.586327 0.207251 0.179714
H58   H     H_    0.524805 0.869565 0.161133 0.165163
H59   H     H_    0.858453 0.093888 0.831802 0.125796
H60   H     H_    0.496488 0.945082 0.286569 0.132180
H61   H     H_    0.595088 0.969196 0.268048 0.167412
H62   H     H_    0.570157 0.976793 0.318342 0.117053
H63   H     H_    0.797865 0.726693 0.192457 0.099711
H64   H     H_    0.805091 0.773640 0.240294 0.139741
H65   H     H_    0.786705 0.849381 0.198609 0.132756
H66   H     H_    0.485632 0.923928 0.379353 0.122743
H67   H     H_    0.367873 0.917037 0.383954 0.118474
H68   H     H_    0.382305 0.988499 0.346476 0.122293
H69   H     H_    0.480361 0.768028 0.411630 0.133381
H70   H     H_    0.471736 0.745081 0.600255 0.129019
H71   H     H_    0.825332 0.553334 0.204131 0.111895
H72   H     H_    0.892258 0.497871 0.158717 0.148062
H73   H     H_    0.871401 0.421598 0.192640 0.139513
H74   H     H_    0.766676 0.490054 0.394837 0.140468
H75   H     H_    0.845508 0.092751 0.091675 0.141618
H76   H     H_    0.546185 0.121507 0.094213 0.145363
H77   H     H_    0.530825 0.174217 0.331378 0.099607
H78   H     H_    0.620542 0.355076 0.278651 0.104473
H79   H     H_    0.501878 0.479910 0.236293 0.134997
H80   H     H_    0.459302 0.406100 0.207784 0.129258
H81   H     H_    0.158360 0.522232 0.657782 0.104059
H82   H     H_    0.486424 0.496332 0.185465 0.135305
H83   H     H_    0.773917 0.314940 0.149385 0.189623
H84   H     H_    0.876055 0.224529 0.117416 0.096303
H85   H     H_    0.904521 0.248931 0.164842 0.144326
H86   H     H_    0.393704 0.254459 0.122066 0.111688
H87   H     H_    0.429131 0.342383 0.144490 0.109694
H88   H     H_    0.350609 0.303531 0.169569 0.154988
H89   H     H_    0.695232 0.468287 0.826041 0.117999
H90   H     H_    0.768645 0.419387 0.870119 0.098953
H91   H     H_    0.822543 0.360046 0.824660 0.138211
H92   H     H_    0.248695 0.489727 0.787501 0.093186
H93   H     H_    0.242569 0.839784 0.259014 0.099473
H94   H     H_    0.370495 0.778696 0.237171 0.117028
H95   H     H_    0.349973 0.826757 0.285241 0.194915
H96   H     H_    0.317690 0.684527 0.202562 0.104862
H97   H     H_    0.215292 0.492386 0.146331 0.138670
H98   H     H_    0.998229 0.681236 0.201502 0.117940
H99   H     H_    0.989906 0.615881 0.244096 0.122592
H100  H     H_    0.972488 0.578024 0.197093 0.122458
H101  H     H_    0.279049 0.462558 0.332670 0.106768
H102  H     H_    0.155584 0.799539 0.169636 0.110878
N1    N     N_R   0.754157 0.610945 0.767944 -0.174505
N2    N     N_R   0.749382 0.609159 0.729899 -0.240916
N3    N     N_R   0.572616 0.720440 0.733276 -0.241807
N4    N     N_R   0.577390 0.722011 0.771307 -0.176083
O1    O     O_R   0.502070 0.323090 0.541280 -0.528564
O2    O     O_R   0.831550 0.656950 0.958960 -0.519501
O3    O     O_R   0.998590 0.685540 0.963930 -0.508087
O4    O     O_R   0.338340 0.520690 0.539540 -0.443645
O5    O     O_R   0.008220 0.831200 0.045060 -0.524588
O6    O     O_R   0.813270 0.997930 0.038810 -0.505502
O7    O     O_R   0.657500 0.016560 0.039940 -0.519969
O8    O     O_R   0.685680 0.820940 0.038120 -0.512959
O9    O     O_R   0.822130 0.666070 0.043610 -0.460009
O10   O     O_R   0.989860 0.694000 0.042400 -0.499156
O11   O     O_3   0.833990 0.833400 0.000560 -0.244848
O12   O     O_R   0.520720 0.641670 0.461580 -0.501040
O13   O     O_R   0.324760 0.674070 0.543580 -0.534566
O14   O     O_R   0.522400 0.640310 0.540110 -0.505845
O15   O     O_R   0.675940 0.500630 0.542210 -0.518856
O16   O     O_R   0.641790 0.337020 0.538150 -0.447767
O17   O     O_R   0.500260 0.324550 0.456580 -0.523736
O18   O     O_R   0.336660 0.522040 0.461020 -0.501988
O19   O     O_R   0.322940 0.675540 0.458880 -0.516980
O20   O     O_3   0.898255 0.038666 0.903287 -0.536824
O21   O     O_3   0.521021 0.179063 0.832195 -0.581085
O22   O     O_3   0.795508 0.226139 0.582833 -0.549947
O23   O     O_R   0.674120 0.502090 0.457500 -0.516607
O24   O     O_3   0.217239 0.486360 0.583174 -0.548005
O25   O     O_3   0.801355 0.535567 0.089104 -0.542396
O26   O     O_3   0.784371 0.518933 0.320364 -0.561570
O27   O     O_3   0.650269 0.830505 0.296157 -0.557835
O28   O     O_3   0.659951 0.842165 0.215570 -0.577909
O29   O     O_3   0.463971 0.832466 0.338639 -0.582889
O30   O     O_3   0.743049 0.522624 0.163302 -0.569615
O31   O     O_3   0.614571 0.364353 0.202074 -0.575558
O32   O     O_3   0.837033 0.159782 0.162477 -0.568876
O33   O     O_3   0.502092 0.192315 0.165516 -0.564434
O34   O     O_R   0.640110 0.338380 0.459630 -0.502248
O35   O     O_3   0.815359 0.498256 0.833889 -0.543071
O36   O     O_3   0.348839 0.691890 0.278226 -0.569934
O37   O     O_3   0.120924 0.533044 0.210329 -0.574582
O38   O     O_3   0.532348 0.849553 0.832146 -0.547275
O39   O     O_3   0.499990 0.499990 0.499990 -0.252944
O40   O     O_R   0.017640 0.822070 0.960410 -0.494032
O41   O     O_R   0.822000 0.989470 0.960340 -0.442144
O42   O     O_R   0.666920 0.007430 0.955290 -0.534654
O43   O     O_R   0.694410 0.812480 0.959650 -0.501322

loop_
_geom_bond_atom_site_label_1
_geom_bond_atom_site_label_2
_ccdc_geom_bond_type
C37   H93   S    
C27   O26   S    
C87   C88   A    
C126  C127  A    
C28   O27   S    
C49   N4    A    
C98   H81   S    
C111  C121  S    
C104  H58   S    
C25   H47   S    
C118  H69   S    
C95   C96   A    
C67   C77   S    
C113  O27   S    
C34   H86   S    
C110  H10   S    
C31   O30   S    
C42   C58   S    
C104  C106  A    
C97   C98   A    
C26   H51   S    
C37   H95   S    
C90   C101  A    
C93   O23   A    
C33   O32   S    
C53   C54   A    
C59   C64   A    
Cr1   O18   S    
C120  O26   S    
C89   C99   S    
C56   C117  S    
C29   H64   S    
C28   H62   S    
C34   H87   S    
C132  H78   S    
C109  C115  A    
C50   N3    A    
C64   O20   S    
C11   C133  S    
C118  C122  A    
C12   C105  S    
C98   C99   A    
C95   C99   A    
C95   H45   S    
C90   O37   S    
C106  C107  A    
C8    H18   S    
C15   C16   A    
C21   H30   S    
C87   C94   A    
Cr5   O43   S    
C22   H33   S    
N3    N4    A    
C109  H57   S    
C18   C19   A    
C73   C74   A    
C5    C131  A    
C37   H94   S    
C2    C13   A    
C17   C101  S    
C110  C111  A    
C36   O35   S    
C79   C90   A    
C80   C86   A    
C113  C114  A    
Cr4   O6    S    
C38   H100  S    
C26   O25   S    
C57   O36   S    
C44   O7    A    
C31   H73   S    
C39   O38   S    
C16   C17   A    
C47   O5    A    
C24   C112  A    
Cr3   O15   S    
C86   H42   S    
C107  C108  A    
C102  C108  A    
C70   C71   A    
C27   H54   S    
C89   C91   A    
Cr5   O8    S    
C107  O30   S    
C13   H21   S    
C23   H40   S    
C6    H16   S    
C7    H17   S    
C21   O20   S    
C45   O9    A    
C33   H83   S    
C68   C79   A    
C4    H14   S    
Cr3   O16   S    
Cr6   O2    S    
C9    C46   A    
C36   H89   S    
C29   H65   S    
C39   H5    S    
C5    C127  S    
C69   C78   S    
C102  C103  A    
C38   O37   S    
C35   H12   S    
C79   H22   S    
C16   H97   S    
Cr5   O11   S    
Cr6   O3    S    
C96   H46   S    
C1    C100  S    
C128  O33   S    
C22   H35   S    
C103  H9    S    
Cr4   O5    S    
C6    C7    A    
C84   C94   S    
C76   C77   A    
C76   H1    S    
C29   O28   S    
C7    C12   A    
C42   O2    A    
C126  O32   S    
C9    H11   S    
Cr2   O12   S    
C28   H60   S    
C116  C121  A    
C129  H28   S    
C83   H44   S    
C51   C52   A    
Cr4   O11   S    
Cr6   O9    S    
C23   H39   S    
C84   C85   A    
C41   C59   S    
C15   H19   S    
C80   C82   A    
C50   N2    A    
C10   C11   A    
C70   H26   S    
C6    C11   A    
C66   H15   S    
C123  H23   S    
C26   H53   S    
C14   C19   A    
C132  C133  A    
C74   H48   S    
C75   O22   S    
C20   C101  A    
C51   C55   A    
C112  H101  S    
C43   C80   S    
C85   C86   A    
C30   H66   S    
Cr5   O42   S    
C44   C124  S    
Cr1   O39   S    
C3    C4    A    
C13   C24   A    
C60   C61   A    
C3    C133  A    
Cr6   O10   S    
C75   C76   A    
C59   C60   A    
C47   O10   A    
C62   C63   A    
C32   O31   S    
C25   H49   S    
C38   H99   S    
C125  H75   S    
C22   O21   S    
C44   O6    A    
C88   H43   S    
C83   C84   A    
C39   H3    S    
Cr4   O40   S    
C43   O3    A    
C8    C12   A    
C20   H96   S    
C49   C55   S    
C34   H88   S    
Cr3   O34   S    
C92   C94   A    
C17   C18   A    
C3    H13   S    
C62   C72   S    
C130  H76   S    
C111  C113  A    
C27   H55   S    
C28   H61   S    
C48   H70   S    
C119  C120  A    
C116  O29   S    
C21   H29   S    
C48   C117  A    
C52   C58   A    
C112  C123  A    
C93   O12   A    
C33   H84   S    
C18   H102  S    
C8    C10   A    
C65   H32   S    
C30   O29   S    
C32   H79   S    
C125  C126  A    
C105  O34   A    
C56   O14   A    
C27   H56   S    
C57   C68   A    
C127  C128  A    
C37   O36   S    
C56   O15   A    
C91   C92   A    
C97   C100  A    
C117  C129  A    
C120  C121  A    
C131  O31   S    
C1    O13   A    
C119  C122  A    
C54   O38   S    
C40   C123  A    
Cr1   O17   S    
C54   C55   A    
Cr2   O13   S    
C52   H7    S    
C29   H63   S    
N1    N2    A    
C92   H6    S    
C105  O17   A    
Cr2   O14   S    
C40   C81   S    
Cr2   O39   S    
C85   H8    S    
C39   H4    S    
C4    C5    A    
C131  C132  A    
C128  C130  A    
C2    H24   S    
C69   O16   A    
C53   C58   A    
C53   H25   S    
C49   N1    A    
C14   C47   S    
C81   O18   A    
C26   H52   S    
C9    C129  A    
C65   C72   A    
C46   C50   S    
Cr5   O7    S    
C63   H59   S    
C106  C115  S    
Cr3   O23   S    
C67   C70   A    
C19   H20   S    
C119  H74   S    
C108  O25   S    
Cr6   O11   S    
C71   C72   A    
C32   H82   S    
C109  C110  A    
C124  C130  A    
C38   H98   S    
C10   H77   S    
C36   H90   S    
C31   H71   S    
C21   H31   S    
Cr4   O41   S    
C73   H37   S    
C87   H92   S    
C30   H68   S    
C96   C100  A    
C23   O22   S    
C71   H36   S    
C51   O35   S    
C66   C67   A    
C1    O4    A    
C114  C115  A    
C65   C66   A    
C34   O33   S    
C61   C62   A    
Cr3   O39   S    
C75   C78   A    
C42   O43   A    
C61   O21   S    
C23   H38   S    
C32   H80   S    
C35   C48   A    
C45   C102  S    
C24   C68   S    
C22   H34   S    
C63   C64   A    
C33   H85   S    
C2    C40   A    
C69   O1    A    
Cr2   O19   S    
C60   H27   S    
C31   H72   S    
C88   C89   A    
C81   O19   A    
C36   H91   S    
C82   C83   A    
C74   C78   A    
C82   H41   S    
C103  C104  A    
C97   O24   S    
C73   C77   A    
C14   C15   A    
C25   H50   S    
Cr1   O4    S    
C91   H2    S    
C20   C57   A    
C41   O42   A    
C35   C46   A    
C93   C122  S    
Cr1   O1    S    
C25   O24   S    
C41   O41   A    
C114  O28   S    
C45   O8    A    
C124  C125  A    
C43   O40   A    
C116  C118  A    
C30   H67   S    
