data_mof_unit_61640.cif
_audit_creation_date              2012-12-10T17:49:43-0500
_audit_creation_method            fapswitch 2.2
_symmetry_space_group_name_H-M    P1
_symmetry_Int_Tables_number       1
_space_group_crystal_system       triclinic
_cell_length_a                    27.794086
_cell_length_b                    36.14844
_cell_length_c                    27.795212
_cell_angle_alpha                 89.999706
_cell_angle_beta                  89.999699
_cell_angle_gamma                 90.000333
_cell_volume                      27926.2066671

loop_
_atom_site_label
_atom_site_type_symbol
_atom_type_description
_atom_site_fract_x
_atom_site_fract_y
_atom_site_fract_z
_atom_type_partial_charge
C1    C     C_R   0.500009 0.650289 0.250011 0.827909
C2    C     C_R   0.500009 0.650289 0.749990 0.827913
C3    C     C_R   0.500006 0.349711 0.749985 0.827913
C4    C     C_R   0.500006 0.349711 0.250015 0.827910
C5    C     C_R   0.500009 0.150289 0.750011 0.827909
C6    C     C_R   0.500009 0.150289 0.249990 0.827913
C7    C     C_R   0.500005 0.849711 0.249985 0.827913
C8    C     C_R   0.500005 0.849711 0.750015 0.827910
C9    C     C_R   0.000010 0.650289 0.750011 0.827909
C10   C     C_R   0.000009 0.650289 0.249990 0.827913
C11   C     C_R   0.000005 0.349711 0.249985 0.827913
C12   C     C_R   0.000006 0.349711 0.750015 0.827910
C13   C     C_R   0.000010 0.150289 0.250011 0.827909
C14   C     C_R   0.000009 0.150289 0.749990 0.827913
C15   C     C_R   0.000006 0.849711 0.749985 0.827913
C16   C     C_R   0.000005 0.849711 0.250015 0.827910
C17   C     C_3   0.484452 0.978529 0.299854 -0.388052
C18   C     C_3   0.487140 0.978530 0.699386 -0.388151
C19   C     C_3   0.487140 0.021469 0.699385 -0.388157
C20   C     C_3   0.484453 0.021469 0.299855 -0.388058
C21   C     C_3   0.487264 0.478529 0.800645 -0.388162
C22   C     C_3   0.485014 0.478530 0.199973 -0.388063
C23   C     C_3   0.485015 0.521470 0.199972 -0.388070
C24   C     C_3   0.487265 0.521469 0.800647 -0.388170
C25   C     C_3   0.983986 0.978529 0.799707 -0.388030
C26   C     C_3   0.987029 0.978530 0.199414 -0.388142
C27   C     C_3   0.987030 0.021469 0.199414 -0.388147
C28   C     C_3   0.983986 0.021469 0.799708 -0.388040
C29   C     C_3   0.987264 0.478529 0.300645 -0.388163
C30   C     C_3   0.985929 0.478530 0.699708 -0.388098
C31   C     C_3   0.985930 0.521470 0.699707 -0.388105
C32   C     C_3   0.987265 0.521469 0.300646 -0.388169
C33   C     C_1   0.000010 0.610612 0.249990 -0.141154
C34   C     C_1   0.000010 0.610612 0.750010 -0.141155
C35   C     C_1   0.000007 0.389388 0.750013 -0.141154
C36   C     C_1   0.000008 0.389388 0.249987 -0.141154
C37   C     C_1   0.000010 0.110612 0.749990 -0.141156
C38   C     C_1   0.000010 0.110612 0.250010 -0.141153
C39   C     C_1   0.000007 0.889388 0.250013 -0.141152
C40   C     C_1   0.000008 0.889388 0.749986 -0.141156
C41   C     C_1   0.500010 0.610612 0.749990 -0.141154
C42   C     C_1   0.500010 0.610612 0.250010 -0.141154
C43   C     C_1   0.500007 0.389388 0.250013 -0.141154
C44   C     C_1   0.500008 0.389388 0.749987 -0.141154
C45   C     C_1   0.500010 0.110612 0.249990 -0.141154
C46   C     C_1   0.500010 0.110612 0.750010 -0.141153
C47   C     C_1   0.500007 0.889388 0.750013 -0.141153
C48   C     C_1   0.500008 0.889388 0.249986 -0.141154
C49   C     C_3   0.500009 0.963487 0.249988 0.346134
C50   C     C_3   0.500009 0.963487 0.750012 0.346135
C51   C     C_3   0.500009 0.036513 0.750011 0.346135
C52   C     C_3   0.500009 0.036513 0.249989 0.346135
C53   C     C_3   0.500009 0.463487 0.749988 0.346132
C54   C     C_3   0.500009 0.463487 0.250012 0.346140
C55   C     C_3   0.500009 0.536513 0.250011 0.346139
C56   C     C_3   0.500008 0.536513 0.749989 0.346133
C57   C     C_3   0.000009 0.963487 0.749988 0.346140
C58   C     C_3   0.000009 0.963487 0.250012 0.346133
C59   C     C_3   0.000009 0.036513 0.250011 0.346131
C60   C     C_3   0.000008 0.036513 0.749989 0.346142
C61   C     C_3   0.000009 0.463487 0.249988 0.346132
C62   C     C_3   0.000009 0.463487 0.750012 0.346143
C63   C     C_3   0.000009 0.536513 0.750011 0.346143
C64   C     C_3   0.000009 0.536513 0.249989 0.346133
C65   C     C_3   0.962508 0.521470 0.213624 -0.389813
C66   C     C_3   0.963481 0.521470 0.787356 -0.389818
C67   C     C_3   0.963482 0.478530 0.787356 -0.389819
C68   C     C_3   0.962508 0.478530 0.213624 -0.389817
C69   C     C_3   0.964959 0.021470 0.711254 -0.389806
C70   C     C_3   0.962678 0.021470 0.286550 -0.389822
C71   C     C_3   0.962677 0.978530 0.286550 -0.389823
C72   C     C_3   0.964960 0.978530 0.711253 -0.389810
C73   C     C_3   0.462508 0.521470 0.713625 -0.389813
C74   C     C_3   0.464169 0.521470 0.288015 -0.389817
C75   C     C_3   0.464169 0.478530 0.288016 -0.389820
C76   C     C_3   0.462508 0.478530 0.713624 -0.389819
C77   C     C_3   0.464599 0.021470 0.211585 -0.389809
C78   C     C_3   0.462597 0.021470 0.786468 -0.389815
C79   C     C_3   0.462597 0.978530 0.786469 -0.389818
C80   C     C_3   0.464599 0.978530 0.211584 -0.389817
C81   C     C_1   0.000009 0.577261 0.249990 -0.125812
C82   C     C_1   0.000010 0.577261 0.750010 -0.125810
C83   C     C_1   0.000008 0.422739 0.750012 -0.125810
C84   C     C_1   0.000008 0.422739 0.249987 -0.125812
C85   C     C_1   0.000009 0.077261 0.749990 -0.125810
C86   C     C_1   0.000010 0.077261 0.250010 -0.125812
C87   C     C_1   0.000008 0.922739 0.250013 -0.125812
C88   C     C_1   0.000008 0.922739 0.749987 -0.125810
C89   C     C_1   0.500009 0.577261 0.749990 -0.125812
C90   C     C_1   0.500010 0.577261 0.250010 -0.125810
C91   C     C_1   0.500008 0.422739 0.250013 -0.125810
C92   C     C_1   0.500008 0.422739 0.749987 -0.125812
C93   C     C_1   0.500009 0.077261 0.249990 -0.125812
C94   C     C_1   0.500010 0.077261 0.750010 -0.125811
C95   C     C_1   0.500008 0.922739 0.750012 -0.125811
C96   C     C_1   0.500008 0.922739 0.249987 -0.125811
C97   C     C_1   0.499978 0.750004 0.431117 -0.149647
C98   C     C_1   0.499978 0.750004 0.568883 -0.149647
C99   C     C_1   0.499978 0.249996 0.568883 -0.149647
C100  C     C_1   0.499978 0.249996 0.431117 -0.149647
C101  C     C_1   0.499978 0.250004 0.931117 -0.149647
C102  C     C_1   0.499978 0.250004 0.068883 -0.149646
C103  C     C_1   0.499978 0.749996 0.068883 -0.149646
C104  C     C_1   0.499978 0.749996 0.931117 -0.149646
C105  C     C_1   0.999978 0.750004 0.931117 -0.149647
C106  C     C_1   0.999978 0.750004 0.068883 -0.149647
C107  C     C_1   0.999978 0.249996 0.068883 -0.149647
C108  C     C_1   0.999978 0.249996 0.931117 -0.149647
C109  C     C_1   0.999978 0.250004 0.431117 -0.149646
C110  C     C_1   0.999978 0.250004 0.568883 -0.149646
C111  C     C_1   0.999978 0.749996 0.568883 -0.149646
C112  C     C_1   0.999978 0.749996 0.431117 -0.149646
C113  C     C_1   0.499974 0.750007 0.474552 -0.001459
C114  C     C_1   0.499975 0.750007 0.525448 -0.001459
C115  C     C_1   0.499975 0.249993 0.525448 -0.001461
C116  C     C_1   0.499974 0.249993 0.474552 -0.001461
C117  C     C_1   0.499975 0.250007 0.974552 -0.001458
C118  C     C_1   0.499975 0.250007 0.025448 -0.001458
C119  C     C_1   0.499975 0.749993 0.025448 -0.001460
C120  C     C_1   0.499974 0.749993 0.974552 -0.001460
C121  C     C_1   0.999975 0.750007 0.974552 -0.001459
C122  C     C_1   0.999975 0.750007 0.025448 -0.001459
C123  C     C_1   0.999975 0.249993 0.025448 -0.001461
C124  C     C_1   0.999974 0.249993 0.974552 -0.001461
C125  C     C_1   0.999975 0.250007 0.474552 -0.001458
C126  C     C_1   0.999975 0.250007 0.525448 -0.001458
C127  C     C_1   0.999975 0.749993 0.525448 -0.001460
C128  C     C_1   0.999975 0.749993 0.474552 -0.001460
C129  C     C_R   0.499986 0.750002 0.120618 0.821394
C130  C     C_R   0.499986 0.750002 0.879382 0.821394
C131  C     C_R   0.499986 0.249998 0.879382 0.821400
C132  C     C_R   0.499986 0.249998 0.120618 0.821400
C133  C     C_R   0.499986 0.250002 0.620618 0.821393
C134  C     C_R   0.499986 0.250002 0.379382 0.821393
C135  C     C_R   0.499986 0.749998 0.379382 0.821399
C136  C     C_R   0.499986 0.749998 0.620618 0.821399
C137  C     C_R   0.999986 0.750002 0.620618 0.821394
C138  C     C_R   0.999986 0.750002 0.379382 0.821394
C139  C     C_R   0.999986 0.249998 0.379382 0.821400
C140  C     C_R   0.999986 0.249998 0.620618 0.821400
C141  C     C_R   0.999986 0.250002 0.120618 0.821393
C142  C     C_R   0.999986 0.250002 0.879382 0.821393
C143  C     C_R   0.999986 0.749998 0.879382 0.821399
C144  C     C_R   0.999986 0.749998 0.120618 0.821399
C145  C     C_R   0.370613 0.750001 0.249998 0.821593
C146  C     C_R   0.370613 0.750001 0.750002 0.821598
C147  C     C_R   0.370613 0.250001 0.749998 0.821594
C148  C     C_R   0.370613 0.250001 0.250002 0.821597
C149  C     C_R   0.870613 0.750001 0.749998 0.821593
C150  C     C_R   0.870613 0.750001 0.250002 0.821598
C151  C     C_R   0.870613 0.250001 0.249998 0.821594
C152  C     C_R   0.870613 0.250001 0.750002 0.821597
C153  C     C_R   0.629380 0.749999 0.249998 0.821388
C154  C     C_R   0.629380 0.749998 0.750002 0.821384
C155  C     C_R   0.629380 0.249999 0.749998 0.821387
C156  C     C_R   0.629380 0.249999 0.250002 0.821385
C157  C     C_R   0.129380 0.749999 0.749998 0.821388
C158  C     C_R   0.129380 0.749999 0.250002 0.821384
C159  C     C_R   0.129380 0.249999 0.249998 0.821387
C160  C     C_R   0.129380 0.249999 0.750002 0.821385
C161  C     C_1   0.681113 0.749999 0.249998 -0.149555
C162  C     C_1   0.681113 0.749999 0.750001 -0.149556
C163  C     C_1   0.681114 0.249999 0.749998 -0.149557
C164  C     C_1   0.681113 0.249999 0.250001 -0.149553
C165  C     C_1   0.181114 0.749999 0.749998 -0.149555
C166  C     C_1   0.181113 0.749999 0.250001 -0.149556
C167  C     C_1   0.181114 0.249999 0.249998 -0.149557
C168  C     C_1   0.181114 0.249999 0.750001 -0.149553
C169  C     C_1   0.724549 0.750000 0.249999 -0.001476
C170  C     C_1   0.724549 0.750000 0.750000 -0.001479
C171  C     C_1   0.724549 0.250000 0.749999 -0.001478
C172  C     C_1   0.724549 0.250000 0.250000 -0.001476
C173  C     C_1   0.224549 0.750000 0.749999 -0.001476
C174  C     C_1   0.224549 0.750000 0.250000 -0.001479
C175  C     C_1   0.224549 0.250000 0.249999 -0.001479
C176  C     C_1   0.224549 0.250000 0.750000 -0.001476
C177  C     C_1   0.775444 0.750000 0.250001 -0.001464
C178  C     C_1   0.775444 0.750000 0.749999 -0.001468
C179  C     C_1   0.775444 0.250000 0.750001 -0.001468
C180  C     C_1   0.775444 0.250000 0.249999 -0.001465
C181  C     C_1   0.275444 0.750000 0.750001 -0.001465
C182  C     C_1   0.275444 0.750000 0.249999 -0.001468
C183  C     C_1   0.275444 0.250000 0.250001 -0.001468
C184  C     C_1   0.275444 0.250000 0.749999 -0.001465
C185  C     C_1   0.818879 0.750001 0.250001 -0.149719
C186  C     C_1   0.818880 0.750001 0.749999 -0.149720
C187  C     C_1   0.818880 0.250001 0.750002 -0.149722
C188  C     C_1   0.818880 0.250001 0.249999 -0.149717
C189  C     C_1   0.318880 0.750001 0.750002 -0.149719
C190  C     C_1   0.318880 0.750001 0.249999 -0.149720
C191  C     C_1   0.318880 0.250001 0.250001 -0.149722
C192  C     C_1   0.318880 0.250001 0.749999 -0.149718
C193  C     C_3   0.550974 0.978531 0.238526 -0.388230
C194  C     C_3   0.550288 0.978530 0.764182 -0.388122
C195  C     C_3   0.550288 0.021470 0.764181 -0.388116
C196  C     C_3   0.550973 0.021470 0.238526 -0.388223
C197  C     C_3   0.550253 0.478531 0.735695 -0.388118
C198  C     C_3   0.550843 0.478530 0.262047 -0.388205
C199  C     C_3   0.550842 0.521470 0.262046 -0.388198
C200  C     C_3   0.550253 0.521470 0.735695 -0.388111
C201  C     C_3   0.051080 0.978531 0.739003 -0.388249
C202  C     C_3   0.050319 0.978530 0.264071 -0.388129
C203  C     C_3   0.050319 0.021470 0.264070 -0.388123
C204  C     C_3   0.051080 0.021470 0.739003 -0.388242
C205  C     C_3   0.050253 0.478531 0.235695 -0.388117
C206  C     C_3   0.050615 0.478530 0.762972 -0.388167
C207  C     C_3   0.050615 0.521470 0.762971 -0.388159
C208  C     C_3   0.050253 0.521470 0.235696 -0.388112
H1    H     H_    0.077933 0.531744 0.261364 0.167400
H2    H     H_    0.077608 0.531744 0.736579 0.167322
H3    H     H_    0.077607 0.468258 0.736578 0.167326
H4    H     H_    0.077933 0.468258 0.261365 0.167403
H5    H     H_    0.077027 0.031744 0.766424 0.167218
H6    H     H_    0.077879 0.031743 0.238273 0.167386
H7    H     H_    0.077879 0.968258 0.238273 0.167389
H8    H     H_    0.077027 0.968258 0.766424 0.167222
H9    H     H_    0.577933 0.531744 0.761364 0.167400
H10   H     H_    0.577349 0.531744 0.235166 0.167273
H11   H     H_    0.577349 0.468258 0.235165 0.167276
H12   H     H_    0.577933 0.468258 0.761364 0.167403
H13   H     H_    0.577176 0.031744 0.265702 0.167244
H14   H     H_    0.577906 0.031743 0.738444 0.167391
H15   H     H_    0.577905 0.968258 0.738444 0.167394
H16   H     H_    0.577176 0.968258 0.265702 0.167248
H17   H     H_    0.447815 0.968256 0.308955 0.170490
H18   H     H_    0.451041 0.968256 0.688339 0.170531
H19   H     H_    0.451041 0.031742 0.688339 0.170533
H20   H     H_    0.447815 0.031741 0.308956 0.170491
H21   H     H_    0.451193 0.468256 0.811781 0.170536
H22   H     H_    0.448480 0.468257 0.190461 0.170497
H23   H     H_    0.448481 0.531742 0.190460 0.170498
H24   H     H_    0.451193 0.531741 0.811781 0.170537
H25   H     H_    0.947264 0.968256 0.808465 0.170478
H26   H     H_    0.950906 0.968256 0.188447 0.170529
H27   H     H_    0.950906 0.031741 0.188447 0.170531
H28   H     H_    0.947264 0.031741 0.808466 0.170480
H29   H     H_    0.951192 0.468256 0.311780 0.170536
H30   H     H_    0.949574 0.468257 0.689530 0.170512
H31   H     H_    0.949575 0.531742 0.689530 0.170513
H32   H     H_    0.951193 0.531741 0.311781 0.170537
H33   H     H_    0.509416 0.968256 0.328171 0.167490
H34   H     H_    0.513583 0.968257 0.672443 0.167325
H35   H     H_    0.513582 0.031743 0.672441 0.167324
H36   H     H_    0.509416 0.031742 0.328172 0.167489
H37   H     H_    0.513773 0.468256 0.827523 0.167322
H38   H     H_    0.510296 0.468257 0.171937 0.167451
H39   H     H_    0.510296 0.531743 0.171936 0.167450
H40   H     H_    0.513773 0.531742 0.827524 0.167322
H41   H     H_    0.008684 0.968256 0.828257 0.167517
H42   H     H_    0.013413 0.968257 0.172413 0.167329
H43   H     H_    0.013412 0.031743 0.172412 0.167328
H44   H     H_    0.008684 0.031742 0.828259 0.167517
H45   H     H_    0.013772 0.468256 0.327523 0.167323
H46   H     H_    0.011718 0.468257 0.672137 0.167395
H47   H     H_    0.011718 0.531743 0.672136 0.167395
H48   H     H_    0.013772 0.531742 0.327524 0.167322
H49   H     H_    0.475036 0.968259 0.175305 0.168104
H50   H     H_    0.471079 0.968257 0.823254 0.167914
H51   H     H_    0.471078 0.031743 0.823253 0.167914
H52   H     H_    0.475033 0.031744 0.175305 0.168103
H53   H     H_    0.470900 0.468258 0.676818 0.167905
H54   H     H_    0.474197 0.468258 0.324411 0.168063
H55   H     H_    0.474194 0.531743 0.324410 0.168063
H56   H     H_    0.470897 0.531744 0.676819 0.167904
H57   H     H_    0.975736 0.968259 0.675073 0.168136
H58   H     H_    0.971240 0.968258 0.323316 0.167924
H59   H     H_    0.971239 0.031743 0.323315 0.167924
H60   H     H_    0.975733 0.031744 0.675073 0.168135
H61   H     H_    0.970901 0.468258 0.176818 0.167904
H62   H     H_    0.972844 0.468258 0.823928 0.167996
H63   H     H_    0.972841 0.531744 0.823927 0.167995
H64   H     H_    0.970898 0.531744 0.176819 0.167904
H65   H     H_    0.563016 0.968258 0.202748 0.170524
H66   H     H_    0.560401 0.968258 0.800552 0.170493
H67   H     H_    0.560400 0.031743 0.800551 0.170492
H68   H     H_    0.563015 0.031744 0.202748 0.170523
H69   H     H_    0.560276 0.468258 0.699300 0.170491
H70   H     H_    0.562482 0.468257 0.297958 0.170518
H71   H     H_    0.562481 0.531743 0.297958 0.170517
H72   H     H_    0.560275 0.531744 0.699300 0.170491
H73   H     H_    0.063457 0.968258 0.703339 0.170526
H74   H     H_    0.060511 0.968258 0.300419 0.170496
H75   H     H_    0.060511 0.031744 0.300418 0.170495
H76   H     H_    0.063455 0.031744 0.703339 0.170525
H77   H     H_    0.060277 0.468258 0.199301 0.170491
H78   H     H_    0.061598 0.468257 0.799090 0.170507
H79   H     H_    0.061597 0.531743 0.799090 0.170507
H80   H     H_    0.060276 0.531744 0.199301 0.170490
O1    O     O_3   0.499990 0.750000 0.250000 -0.478295
O2    O     O_3   0.499990 0.750000 0.750000 -0.478295
O3    O     O_3   0.499990 0.250000 0.750000 -0.478295
O4    O     O_3   0.499990 0.250000 0.250000 -0.478295
O5    O     O_3   0.999990 0.750000 0.750000 -0.478295
O6    O     O_3   0.999990 0.750000 0.250000 -0.478295
O7    O     O_3   0.999990 0.250000 0.250000 -0.478295
O8    O     O_3   0.999990 0.250000 0.750000 -0.478295
O9    O     O_R   0.527870 0.668020 0.277880 -0.637068
O10   O     O_R   0.527870 0.668020 0.722120 -0.637070
O11   O     O_R   0.527870 0.331980 0.722120 -0.637070
O12   O     O_R   0.527870 0.331980 0.277880 -0.637067
O13   O     O_R   0.527870 0.168020 0.777880 -0.637071
O14   O     O_R   0.527870 0.168020 0.222120 -0.637067
O15   O     O_R   0.527870 0.831980 0.222120 -0.637067
O16   O     O_R   0.527870 0.831980 0.777880 -0.637069
O17   O     O_R   0.027870 0.668020 0.777880 -0.637069
O18   O     O_R   0.027870 0.668020 0.222120 -0.637070
O19   O     O_R   0.027870 0.331980 0.222120 -0.637070
O20   O     O_R   0.027870 0.331980 0.777880 -0.637068
O21   O     O_R   0.027870 0.168020 0.277880 -0.637071
O22   O     O_R   0.027870 0.168020 0.722120 -0.637067
O23   O     O_R   0.027870 0.831980 0.722120 -0.637066
O24   O     O_R   0.027870 0.831980 0.277880 -0.637069
O25   O     O_R   0.472130 0.728510 0.143730 -0.634396
O26   O     O_R   0.472130 0.728510 0.856270 -0.634397
O27   O     O_R   0.472130 0.271490 0.856270 -0.634391
O28   O     O_R   0.472130 0.271490 0.143730 -0.634391
O29   O     O_R   0.472130 0.228510 0.643730 -0.634396
O30   O     O_R   0.472130 0.228510 0.356270 -0.634398
O31   O     O_R   0.472130 0.771490 0.356270 -0.634392
O32   O     O_R   0.472130 0.771490 0.643730 -0.634392
O33   O     O_R   0.972130 0.728510 0.643730 -0.634396
O34   O     O_R   0.972130 0.728510 0.356270 -0.634398
O35   O     O_R   0.972130 0.271490 0.356270 -0.634391
O36   O     O_R   0.972130 0.271490 0.643730 -0.634391
O37   O     O_R   0.972130 0.228510 0.143730 -0.634396
O38   O     O_R   0.972130 0.228510 0.856270 -0.634398
O39   O     O_R   0.972130 0.771490 0.856270 -0.634392
O40   O     O_R   0.972130 0.771490 0.143730 -0.634392
O41   O     O_R   0.393720 0.728520 0.222140 -0.634410
O42   O     O_R   0.393720 0.728520 0.777860 -0.634411
O43   O     O_R   0.393720 0.271480 0.777860 -0.634411
O44   O     O_R   0.393720 0.271480 0.222140 -0.634411
O45   O     O_R   0.393720 0.228520 0.722140 -0.634409
O46   O     O_R   0.393720 0.228520 0.277860 -0.634412
O47   O     O_R   0.393720 0.771480 0.277860 -0.634412
O48   O     O_R   0.393720 0.771480 0.722140 -0.634410
O49   O     O_R   0.893720 0.728520 0.722140 -0.634410
O50   O     O_R   0.893720 0.728520 0.277860 -0.634411
O51   O     O_R   0.893720 0.271480 0.277860 -0.634411
O52   O     O_R   0.893720 0.271480 0.722140 -0.634411
O53   O     O_R   0.893720 0.228520 0.222140 -0.634409
O54   O     O_R   0.893720 0.228520 0.777860 -0.634412
O55   O     O_R   0.893720 0.771480 0.777860 -0.634412
O56   O     O_R   0.893720 0.771480 0.222140 -0.634410
O57   O     O_R   0.606280 0.728500 0.277860 -0.634399
O58   O     O_R   0.606280 0.728500 0.722140 -0.634400
O59   O     O_R   0.606280 0.271500 0.722140 -0.634400
O60   O     O_R   0.606280 0.271500 0.277860 -0.634397
O61   O     O_R   0.606280 0.228500 0.777860 -0.634400
O62   O     O_R   0.606280 0.228500 0.222140 -0.634400
O63   O     O_R   0.606280 0.771500 0.222140 -0.634400
O64   O     O_R   0.606280 0.771500 0.777860 -0.634398
O65   O     O_R   0.106280 0.728500 0.777860 -0.634399
O66   O     O_R   0.106280 0.728500 0.222140 -0.634400
O67   O     O_R   0.106280 0.271500 0.222140 -0.634400
O68   O     O_R   0.106280 0.271500 0.777860 -0.634398
O69   O     O_R   0.106280 0.228500 0.277860 -0.634400
O70   O     O_R   0.106280 0.228500 0.722140 -0.634400
O71   O     O_R   0.106280 0.771500 0.722140 -0.634400
O72   O     O_R   0.106280 0.771500 0.277860 -0.634398
O73   O     O_R   0.527850 0.771500 0.143710 -0.634399
O74   O     O_R   0.527850 0.771500 0.856290 -0.634397
O75   O     O_R   0.527850 0.228500 0.856290 -0.634393
O76   O     O_R   0.527850 0.228500 0.143710 -0.634393
O77   O     O_R   0.527850 0.271500 0.643710 -0.634399
O78   O     O_R   0.527850 0.271500 0.356290 -0.634397
O79   O     O_R   0.527850 0.728500 0.356290 -0.634392
O80   O     O_R   0.527850 0.728500 0.643710 -0.634393
O81   O     O_R   0.027850 0.771500 0.643710 -0.634399
O82   O     O_R   0.027850 0.771500 0.356290 -0.634397
O83   O     O_R   0.027850 0.228500 0.356290 -0.634393
O84   O     O_R   0.027850 0.228500 0.643710 -0.634393
O85   O     O_R   0.027850 0.271500 0.143710 -0.634399
O86   O     O_R   0.027850 0.271500 0.856290 -0.634397
O87   O     O_R   0.027850 0.728500 0.856290 -0.634392
O88   O     O_R   0.027850 0.728500 0.143710 -0.634393
O89   O     O_R   0.472140 0.668020 0.222150 -0.637150
O90   O     O_R   0.472140 0.668020 0.777850 -0.637148
O91   O     O_R   0.472140 0.331980 0.777850 -0.637149
O92   O     O_R   0.472140 0.331980 0.222150 -0.637152
O93   O     O_R   0.472140 0.168020 0.722150 -0.637147
O94   O     O_R   0.472140 0.168020 0.277850 -0.637152
O95   O     O_R   0.472140 0.831980 0.277850 -0.637152
O96   O     O_R   0.472140 0.831980 0.722150 -0.637150
O97   O     O_R   0.972140 0.668020 0.722150 -0.637149
O98   O     O_R   0.972140 0.668020 0.277850 -0.637148
O99   O     O_R   0.972140 0.331980 0.277850 -0.637149
O100  O     O_R   0.972140 0.331980 0.722150 -0.637151
O101  O     O_R   0.972140 0.168020 0.222150 -0.637147
O102  O     O_R   0.972140 0.168020 0.777850 -0.637152
O103  O     O_R   0.972140 0.831980 0.777850 -0.637153
O104  O     O_R   0.972140 0.831980 0.222150 -0.637150
Zn1   Zn    Zn3+2 0.539790 0.780710 0.210180 0.978811
Zn2   Zn    Zn3+2 0.539790 0.780710 0.789820 0.978808
Zn3   Zn    Zn3+2 0.539790 0.219290 0.789820 0.978813
Zn4   Zn    Zn3+2 0.539790 0.219290 0.210180 0.978815
Zn5   Zn    Zn3+2 0.539790 0.280710 0.710180 0.978808
Zn6   Zn    Zn3+2 0.539790 0.280710 0.289820 0.978810
Zn7   Zn    Zn3+2 0.539790 0.719290 0.289820 0.978815
Zn8   Zn    Zn3+2 0.539790 0.719290 0.710180 0.978813
Zn9   Zn    Zn3+2 0.039790 0.780710 0.710180 0.978811
Zn10  Zn    Zn3+2 0.039790 0.780710 0.289820 0.978808
Zn11  Zn    Zn3+2 0.039790 0.219290 0.289820 0.978813
Zn12  Zn    Zn3+2 0.039790 0.219290 0.710180 0.978816
Zn13  Zn    Zn3+2 0.039790 0.280710 0.210180 0.978808
Zn14  Zn    Zn3+2 0.039790 0.280710 0.789820 0.978809
Zn15  Zn    Zn3+2 0.039790 0.719290 0.789820 0.978815
Zn16  Zn    Zn3+2 0.039790 0.719290 0.210180 0.978813
Zn17  Zn    Zn3+2 0.460190 0.719300 0.210200 0.978814
Zn18  Zn    Zn3+2 0.460190 0.719300 0.789800 0.978817
Zn19  Zn    Zn3+2 0.460190 0.280700 0.789800 0.978821
Zn20  Zn    Zn3+2 0.460190 0.280700 0.210200 0.978819
Zn21  Zn    Zn3+2 0.460190 0.219300 0.710200 0.978816
Zn22  Zn    Zn3+2 0.460190 0.219300 0.289800 0.978814
Zn23  Zn    Zn3+2 0.460190 0.780700 0.289800 0.978818
Zn24  Zn    Zn3+2 0.460190 0.780700 0.710200 0.978821
Zn25  Zn    Zn3+2 0.960190 0.719300 0.710200 0.978815
Zn26  Zn    Zn3+2 0.960190 0.719300 0.289800 0.978817
Zn27  Zn    Zn3+2 0.960190 0.280700 0.289800 0.978821
Zn28  Zn    Zn3+2 0.960190 0.280700 0.710200 0.978819
Zn29  Zn    Zn3+2 0.960190 0.219300 0.210200 0.978816
Zn30  Zn    Zn3+2 0.960190 0.219300 0.789800 0.978813
Zn31  Zn    Zn3+2 0.960190 0.780700 0.789800 0.978818
Zn32  Zn    Zn3+2 0.960190 0.780700 0.210200 0.978820
H81   H     H_    0.427593 0.968256 0.219044 0.167824
H82   H     H_    0.426042 0.968257 0.777041 0.168017
H83   H     H_    0.426042 0.031742 0.777038 0.168019
H84   H     H_    0.427592 0.031742 0.219048 0.167825
H85   H     H_    0.425977 0.468256 0.723141 0.168024
H86   H     H_    0.427248 0.468256 0.280140 0.167862
H87   H     H_    0.427248 0.531741 0.280136 0.167865
H88   H     H_    0.425976 0.531742 0.723145 0.168025
H89   H     H_    0.927884 0.968256 0.718367 0.167789
H90   H     H_    0.926102 0.968257 0.277203 0.168011
H91   H     H_    0.926102 0.031742 0.277200 0.168014
H92   H     H_    0.927883 0.031742 0.718371 0.167791
H93   H     H_    0.925977 0.468256 0.223140 0.168024
H94   H     H_    0.926710 0.468256 0.778809 0.167925
H95   H     H_    0.926709 0.531741 0.778804 0.167928
H96   H     H_    0.925976 0.531742 0.223144 0.168026

loop_
_geom_bond_atom_site_label_1
_geom_bond_atom_site_label_2
_ccdc_geom_bond_type
C62   C83   S    
C8    O16   A    
O62   Zn4   S    
O54   Zn30  S    
C39   C87   T    
C50   C79   S    
C150  C185  S    
C10   O98   A    
C152  O52   A    
O1    Zn7   S    
O2    Zn8   S    
C170  C178  S    
C67   H94   S    
C102  C132  S    
O93   Zn21  S    
C98   C114  T    
C2    C41   S    
C10   O18   A    
C146  O48   A    
C151  O53   A    
O86   Zn14  S    
C27   H43   S    
O26   Zn18  S    
C55   C74   S    
C25   H41   S    
C55   C199  S    
C77   H52   S    
C52   C196  S    
C207  H2    S    
C78   H51   S    
C107  C123  T    
O8    Zn30  S    
C44   C92   T    
C73   H56   S    
C19   H35   S    
C74   H55   S    
C148  C191  S    
O94   Zn22  S    
C17   H33   S    
C149  C186  S    
C140  O36   A    
C199  H10   S    
O5    Zn15  S    
C77   H84   S    
C159  O69   A    
C108  C142  S    
C78   H83   S    
O2    Zn18  S    
C151  C188  S    
C166  C174  T    
C202  C203  S    
C112  C138  S    
O82   Zn10  S    
C5    O93   A    
O76   Zn4   S    
C206  C207  S    
O104  Zn32  S    
C7    O95   A    
O44   Zn20  S    
C153  C161  S    
C65   H96   S    
C66   H95   S    
O28   Zn20  S    
C155  O59   A    
O29   Zn21  S    
O81   Zn9   S    
C22   H22   S    
O99   Zn27  S    
C119  C120  S    
C65   C68   S    
O15   Zn1   S    
O5    Zn25  S    
C3    O11   A    
C71   H90   S    
O92   Zn20  S    
O10   Zn8   S    
C9    C34   S    
O11   Zn5   S    
C17   C49   S    
C52   C77   S    
O4    Zn20  S    
C175  C183  S    
C176  C184  S    
C56   C73   S    
C48   C96   T    
C130  O74   A    
C61   C84   S    
C23   C55   S    
C4    C43   S    
C24   C56   S    
C5    C46   S    
C49   C80   S    
C53   C197  S    
C7    C48   S    
O80   Zn8   S    
C51   C78   S    
C133  O29   A    
C51   C195  S    
O64   Zn2   S    
C132  O28   A    
C80   H81   S    
C111  C137  S    
C12   O20   A    
C159  C167  S    
C153  O63   A    
C13   O21   A    
C160  C168  S    
C8    C47   S    
O74   Zn2   S    
C178  C186  T    
O18   Zn16  S    
O101  Zn29  S    
O6    Zn26  S    
O19   Zn13  S    
O12   Zn6   S    
C21   C24   S    
O7    Zn11  S    
C22   C23   S    
C80   H49   S    
C4    O12   A    
O5    Zn9   S    
C5    O13   A    
C62   C206  S    
C23   H23   S    
O1    Zn23  S    
C58   C202  S    
C56   C200  S    
O2    Zn24  S    
C41   C89   T    
C145  C190  S    
C154  O58   A    
C158  O66   A    
C45   C93   T    
C174  C182  S    
C123  C124  S    
C22   C54   S    
O66   Zn16  S    
O67   Zn13  S    
C141  O37   A    
C38   C86   T    
O9    Zn7   S    
C55   C90   S    
O38   Zn30  S    
C137  O33   A    
O23   Zn9   S    
C115  C116  S    
O21   Zn11  S    
C139  O83   A    
O78   Zn6   S    
C19   H19   S    
O70   Zn12  S    
C67   H62   S    
C17   H17   S    
C60   C204  S    
C193  H16   S    
O55   Zn31  S    
C129  O73   A    
C140  O84   A    
C138  O82   A    
C9    O97   A    
C107  C141  S    
C197  H12   S    
C6    O14   A    
O52   Zn28  S    
O4    Zn22  S    
C197  H69   S    
C26   H26   S    
C73   H88   S    
C66   C67   S    
C152  O54   A    
C74   H87   S    
C138  O34   A    
C132  O76   A    
C171  C179  S    
C25   C57   S    
C30   H30   S    
C169  C177  S    
C100  C134  S    
C28   C60   S    
O87   Zn15  S    
C29   C61   S    
C3    C44   S    
O88   Zn16  S    
C11   O19   A    
O17   Zn15  S    
C63   C82   S    
C31   C63   S    
C32   C64   S    
C157  C165  S    
C22   H38   S    
O27   Zn19  S    
C59   C70   S    
C155  C163  S    
O57   Zn7   S    
C42   C90   T    
O7    Zn29  S    
C69   C72   S    
C201  H8    S    
O43   Zn19  S    
C46   C94   T    
C193  C196  S    
C106  C122  T    
C142  O38   A    
C30   H46   S    
O8    Zn14  S    
C52   C93   S    
C12   C35   S    
C145  O41   A    
O4    Zn4   S    
C6    O94   A    
C13   C38   S    
C110  C126  T    
C56   C89   S    
C28   H28   S    
C71   H58   S    
C29   H45   S    
C195  H67   S    
C164  C172  T    
C15   O103  A    
C97   C135  S    
O41   Zn17  S    
O95   Zn23  S    
O96   Zn24  S    
C167  C175  T    
C168  C176  T    
C76   H85   S    
C154  C162  S    
C160  O68   A    
C196  H68   S    
C129  O25   A    
C182  C190  T    
C20   H20   S    
C31   H47   S    
C101  C117  T    
C68   H61   S    
C117  C118  S    
C154  O64   A    
C135  O31   A    
C72   H89   S    
C136  O32   A    
C3    O91   A    
C10   C33   S    
C23   H39   S    
C64   C81   S    
C54   C75   S    
C203  H75   S    
C131  O27   A    
C57   C201  S    
C104  C130  S    
C34   C82   T    
O59   Zn5   S    
O7    Zn27  S    
C61   C205  S    
C194  H15   S    
C141  O85   A    
C130  O26   A    
C6    C45   S    
O90   Zn18  S    
C198  H11   S    
C100  C116  T    
O31   Zn23  S    
C137  O81   A    
C75   H86   S    
C25   C28   S    
C4    O92   A    
C26   C27   S    
C133  O77   A    
C1    O9    A    
C14   O22   A    
C143  O87   A    
O8    Zn28  S    
C29   C32   S    
C152  C187  S    
C207  H79   S    
C30   C31   S    
C58   C71   S    
C208  H80   S    
C179  C187  T    
C150  O50   A    
O13   Zn3   S    
C17   C20   S    
C177  C185  T    
O42   Zn18  S    
C18   C19   S    
O6    Zn16  S    
O100  Zn28  S    
C65   H64   S    
O4    Zn6   S    
O6    Zn10  S    
C66   H63   S    
C26   H42   S    
O3    Zn3   S    
C181  C189  T    
C199  H71   S    
O1    Zn1   S    
C208  H1    S    
C200  H72   S    
C184  C192  T    
C149  O55   A    
C146  C189  S    
C70   C71   S    
C157  O65   A    
C202  H7    S    
C163  C171  T    
C196  H13   S    
C144  O40   A    
C172  C180  S    
O36   Zn28  S    
C194  C195  S    
C63   C66   S    
C173  C181  S    
C63   C207  S    
C200  H9    S    
O40   Zn32  S    
C151  O51   A    
C147  O43   A    
C136  O80   A    
C194  H66   S    
C18   H34   S    
O72   Zn10  S    
C148  O44   A    
C147  O45   A    
C35   C83   T    
O50   Zn26  S    
C205  H4    S    
O68   Zn14  S    
C205  H77   S    
C197  C200  S    
O3    Zn21  S    
O61   Zn3   S    
C159  O67   A    
C198  H70   S    
C21   H21   S    
C32   H48   S    
O97   Zn25  S    
C26   C58   S    
C157  O71   A    
C121  C122  S    
C101  C131  S    
C139  O35   A    
C30   C62   S    
C69   H92   S    
C125  C126  S    
C73   C76   S    
C70   H91   S    
C53   C76   S    
C127  C128  S    
C18   C50   S    
O22   Zn12  S    
C113  C114  S    
C77   C80   S    
C20   H36   S    
C31   H31   S    
C131  O75   A    
C8    O96   A    
C135  O79   A    
C24   H24   S    
O33   Zn25  S    
C195  H14   S    
C60   C85   S    
O16   Zn2   S    
O7    Zn13  S    
O53   Zn29  S    
C64   C65   S    
C54   C91   S    
C156  O60   A    
C14   C37   S    
C50   C194  S    
C99   C115  T    
O49   Zn25  S    
C72   H57   S    
C149  O49   A    
C108  C124  T    
C57   C72   S    
O75   Zn3   S    
C15   C40   S    
C112  C128  T    
C16   C39   S    
O73   Zn1   S    
C59   C203  S    
C1    C42   S    
C9    O17   A    
O103  Zn31  S    
O85   Zn13  S    
C165  C173  T    
O58   Zn8   S    
C40   C88   T    
C104  C120  T    
C76   H53   S    
C16   O24   A    
C98   C136  S    
C143  O39   A    
C203  H6    S    
C153  O57   A    
C148  O46   A    
C58   C87   S    
C134  O30   A    
C69   H60   S    
C28   H44   S    
C70   H59   S    
O5    Zn31  S    
O91   Zn19  S    
O6    Zn32  S    
C64   C208  S    
C99   C133  S    
O89   Zn17  S    
C62   C67   S    
C60   C69   S    
C37   C85   T    
C11   C36   S    
O3    Zn19  S    
C150  O56   A    
O39   Zn31  S    
O47   Zn23  S    
O1    Zn17  S    
C50   C95   S    
O48   Zn24  S    
C193  H65   S    
C16   O104  A    
O83   Zn11  S    
O34   Zn26  S    
C158  O72   A    
C12   O100  A    
C13   O101  A    
C206  H3    S    
O46   Zn22  S    
C7    O15   A    
C162  C170  T    
O102  Zn30  S    
C198  C199  S    
C18   H18   S    
C102  C118  T    
C27   H27   S    
O98   Zn26  S    
C75   H54   S    
C25   H25   S    
C180  C188  T    
C2    O10   A    
C202  H74   S    
C29   H29   S    
O37   Zn29  S    
C1    O89   A    
O63   Zn1   S    
C74   C75   S    
O8    Zn12  S    
C145  O47   A    
C156  O62   A    
C201  H73   S    
O84   Zn12  S    
C78   C79   S    
C21   H37   S    
C32   H32   S    
O56   Zn32  S    
O25   Zn17  S    
C204  H5    S    
O2    Zn2   S    
C43   C91   T    
C11   O99   A    
C142  O86   A    
C19   C51   S    
C103  C129  S    
C147  C192  S    
O32   Zn24  S    
C53   C92   S    
O30   Zn22  S    
O65   Zn15  S    
C105  C121  T    
C146  O42   A    
C134  O78   A    
C79   H82   S    
C109  C125  T    
C111  C127  T    
C201  C204  S    
C24   H40   S    
C97   C113  T    
O60   Zn6   S    
O71   Zn9   S    
O14   Zn4   S    
C205  C208  S    
O51   Zn27  S    
O69   Zn11  S    
C79   H50   S    
C204  H76   S    
C206  H78   S    
C103  C119  T    
C183  C191  T    
C105  C143  S    
C106  C144  S    
O79   Zn7   S    
C14   O102  A    
C54   C198  S    
C57   C88   S    
C109  C139  S    
C110  C140  S    
C59   C86   S    
C161  C169  T    
C20   C52   S    
C27   C59   S    
C21   C53   S    
C61   C68   S    
C144  O88   A    
C49   C193  S    
C36   C84   T    
C2    O90   A    
C49   C96   S    
O24   Zn10  S    
C160  O70   A    
C68   H93   S    
C155  O61   A    
C51   C94   S    
O3    Zn5   S    
C158  C166  S    
O35   Zn27  S    
C156  C164  S    
O20   Zn14  S    
O45   Zn21  S    
C47   C95   T    
O77   Zn5   S    
C33   C81   T    
C15   O23   A    
