data_mof_unit_65900.cif
_audit_creation_date              2012-12-10T18:51:28-0500
_audit_creation_method            fapswitch 2.2
_symmetry_space_group_name_H-M    P1
_symmetry_Int_Tables_number       1
_space_group_crystal_system       triclinic
_cell_length_a                    19.426043
_cell_length_b                    18.144957
_cell_length_c                    19.321466
_cell_angle_alpha                 90.002173
_cell_angle_beta                  90.195746
_cell_angle_gamma                 89.999644
_cell_volume                      6810.481684

loop_
_atom_site_label
_atom_site_type_symbol
_atom_type_description
_atom_site_fract_x
_atom_site_fract_y
_atom_site_fract_z
_atom_type_partial_charge
C1    C     C_R   0.367504 0.499999 0.499908 0.801858
C2    C     C_R   0.963969 0.499181 0.563721 -0.073279
C3    C     C_R   0.072228 0.499856 0.499897 -0.104477
C4    C     C_R   0.927777 0.499854 0.500120 -0.104457
C5    C     C_R   0.457515 0.720941 0.456028 0.096130
C6    C     C_R   0.542566 0.279061 0.543895 0.098436
C7    C     C_R   0.542484 0.720944 0.543972 0.096106
C8    C     C_R   0.457435 0.279058 0.456105 0.098455
C9    C     C_R   0.456736 0.798292 0.455156 -0.261010
C10   C     C_R   0.543341 0.201710 0.544771 -0.260558
C11   C     C_R   0.543263 0.798296 0.544844 -0.261011
C12   C     C_R   0.632497 0.499998 0.500093 0.801868
C13   C     C_R   0.456659 0.201707 0.455230 -0.260549
C14   C     C_R   0.500000 0.838440 0.500000 0.102132
C15   C     C_R   0.500000 0.161566 0.500000 0.103161
C16   C     C_R   0.508432 0.961306 0.561933 -0.160106
C17   C     C_R   0.491563 0.038708 0.438069 -0.159913
C18   C     C_R   0.491567 0.961301 0.438068 -0.160102
C19   C     C_R   0.508436 0.038713 0.561932 -0.159909
C20   C     C_R   0.500000 0.078726 0.500000 0.111177
C21   C     C_R   0.500000 0.921284 0.500000 0.111229
C22   C     C_R   0.500113 0.499999 0.367163 0.815718
C23   C     C_R   0.852057 0.499911 0.500230 0.162848
C24   C     C_R   0.499887 0.500001 0.632837 0.815716
C25   C     C_R   0.501868 0.566617 0.254493 -0.197951
C26   C     C_R   0.498230 0.433385 0.745510 -0.197523
C27   C     C_R   0.498154 0.566627 0.745509 -0.197958
C28   C     C_R   0.501746 0.433376 0.254488 -0.197529
C29   C     C_R   0.503695 0.567954 0.182046 -0.028433
C30   C     C_R   0.496399 0.432050 0.817957 -0.028601
C31   C     C_R   0.496328 0.567968 0.817957 -0.028436
C32   C     C_R   0.503573 0.432036 0.182040 -0.028605
C33   C     C_R   0.504532 0.499994 0.145426 -0.103327
C34   C     C_R   0.147947 0.499912 0.499786 0.162762
C35   C     C_R   0.495465 0.500009 0.854574 -0.103325
C36   C     C_R   0.501035 0.499997 0.290915 -0.089705
C37   C     C_R   0.498964 0.500004 0.709085 -0.089705
C38   C     C_R   0.497799 0.500008 0.930240 0.515625
C39   C     C_R   0.502198 0.499996 0.069760 0.515627
C40   C     C_R   0.744483 0.434393 0.512726 -0.168948
C41   C     C_R   0.255519 0.434419 0.487164 -0.168948
C42   C     C_R   0.255543 0.565533 0.512341 -0.171648
C43   C     C_R   0.744460 0.565555 0.487784 -0.171635
C44   C     C_R   0.816172 0.434476 0.513027 -0.077867
C45   C     C_R   0.708062 0.499985 0.500208 -0.045275
C46   C     C_R   0.183830 0.434504 0.486864 -0.077820
C47   C     C_R   0.183857 0.565371 0.512645 -0.078757
C48   C     C_R   0.816146 0.565395 0.487489 -0.078816
C49   C     C_2   0.504092 0.641531 0.147186 0.864904
C50   C     C_2   0.496097 0.358477 0.852821 0.865242
C51   C     C_2   0.495964 0.641546 0.852819 0.864902
C52   C     C_2   0.503842 0.358461 0.147173 0.865240
C53   C     C_2   0.924188 0.504009 0.370025 0.891467
C54   C     C_2   0.075817 0.503582 0.630004 0.891494
C55   C     C_2   0.074543 0.496096 0.369784 0.890667
C56   C     C_R   0.291940 0.499987 0.499797 -0.045272
C57   C     C_2   0.925462 0.495662 0.630220 0.890638
C58   C     C_R   0.963347 0.500502 0.436408 -0.073367
C59   C     C_R   0.036659 0.500290 0.563611 -0.073370
C60   C     C_R   0.036037 0.499395 0.436294 -0.073285
Cu1   Cu    Cu3+1 0.500000 0.573360 0.500000 0.952977
Cu2   Cu    Cu3+1 0.500000 0.426640 0.500000 0.955221
H1    H     H_    0.501638 0.618053 0.282961 0.194107
H2    H     H_    0.156216 0.383714 0.476891 0.142009
H3    H     H_    0.156264 0.616129 0.522627 0.142554
H4    H     H_    0.843739 0.616173 0.477602 0.142520
H5    H     H_    0.423873 0.690666 0.421527 0.129800
H6    H     H_    0.576274 0.309338 0.578331 0.124270
H7    H     H_    0.576126 0.690672 0.578473 0.129780
H8    H     H_    0.423726 0.309332 0.421669 0.124247
H9    H     H_    0.421732 0.826320 0.420300 0.142208
H10   H     H_    0.578400 0.173678 0.579568 0.140968
H11   H     H_    0.578268 0.826325 0.579700 0.142203
H12   H     H_    0.498538 0.381948 0.717046 0.194325
H13   H     H_    0.421599 0.173672 0.420433 0.140963
H14   H     H_    0.513864 0.932796 0.610858 0.142388
H15   H     H_    0.486124 0.067223 0.389147 0.142476
H16   H     H_    0.486135 0.932787 0.389143 0.142389
H17   H     H_    0.513876 0.067232 0.610854 0.142479
H18   H     H_    0.487400 0.751066 0.155528 0.349923
H19   H     H_    0.512986 0.248975 0.844503 0.349963
H20   H     H_    0.512676 0.751077 0.844473 0.349922
H21   H     H_    0.486938 0.248963 0.155497 0.349962
H22   H     H_    0.846692 0.463771 0.311401 0.347875
H23   H     H_    0.498403 0.618060 0.717043 0.194114
H24   H     H_    0.153314 0.463157 0.688513 0.347877
H25   H     H_    0.151454 0.536526 0.311030 0.347122
H26   H     H_    0.848550 0.535898 0.689093 0.347125
H27   H     H_    0.501419 0.381941 0.282950 0.194332
H28   H     H_    0.717638 0.383186 0.522692 0.151206
H29   H     H_    0.282364 0.383233 0.477103 0.151170
H30   H     H_    0.282405 0.616752 0.522379 0.156024
H31   H     H_    0.717599 0.616795 0.477836 0.156022
H32   H     H_    0.843786 0.383667 0.522908 0.141977
N1    N     N_R   0.561346 0.499960 0.032679 -0.154915
N2    N     N_R   0.438651 0.500040 0.967321 -0.154911
N3    N     N_R   0.559164 0.499965 0.963857 -0.188750
N4    N     N_R   0.440834 0.500035 0.036143 -0.188746
N5    N     N_R   0.500000 0.683620 0.500000 -0.178841
N6    N     N_R   0.500000 0.316380 0.500000 -0.176865
O1    O     O_R   0.400190 0.561980 0.499990 -0.586847
O2    O     O_R   0.484807 0.704421 0.184301 -0.765677
O3    O     O_2   0.478207 0.352036 0.913118 -0.542562
O4    O     O_R   0.515528 0.295623 0.815730 -0.765829
O5    O     O_2   0.478161 0.647965 0.913145 -0.542630
O6    O     O_R   0.515244 0.704430 0.815697 -0.765689
O7    O     O_2   0.521691 0.352013 0.086864 -0.542566
O8    O     O_R   0.484422 0.295613 0.184274 -0.765845
O9    O     O_2   0.939723 0.549519 0.326075 -0.557129
O10   O     O_R   0.869460 0.455554 0.358055 -0.743889
O11   O     O_2   0.060274 0.548941 0.674093 -0.557095
O12   O     O_R   0.599810 0.438020 0.500010 -0.585634
O13   O     O_R   0.130552 0.455097 0.641831 -0.743928
O14   O     O_2   0.058579 0.450720 0.325755 -0.557406
O15   O     O_R   0.129148 0.544594 0.357778 -0.745851
O16   O     O_2   0.941423 0.450138 0.674111 -0.557440
O17   O     O_R   0.870858 0.544122 0.642370 -0.745810
O18   O     O_R   0.599810 0.561980 0.500010 -0.586852
O19   O     O_R   0.400190 0.438020 0.499990 -0.585618
O20   O     O_R   0.499990 0.561970 0.400150 -0.586354
O21   O     O_R   0.500010 0.438030 0.599850 -0.585874
O22   O     O_R   0.500010 0.561970 0.599850 -0.586361
O23   O     O_R   0.499990 0.438030 0.400150 -0.585882
O24   O     O_2   0.521929 0.647942 0.086870 -0.542627

loop_
_geom_bond_atom_site_label_1
_geom_bond_atom_site_label_2
_ccdc_geom_bond_type
C53   O10   S    
C50   O4    S    
C16   C21   A    
C18   C21   A    
C2    C4    A    
C19   C20   A    
C5    H5    S    
C2    C57   S    
C22   O23   A    
C29   C49   S    
C7    C11   A    
C8    C13   A    
C7    N5    A    
C30   C35   A    
H24   O13   S    
C14   C21   S    
C1    C56   S    
C10   C15   A    
C16   C19   A    
C25   H1    S    
C11   C14   A    
C22   O20   A    
C58   C60   A    
C54   O13   S    
C29   C33   A    
C17   C20   A    
H21   O8    S    
C1    O19   A    
C27   H23   S    
C32   C52   S    
C42   C56   A    
C5    N5    A    
C52   O7    D    
N2    N4    A    
C41   C46   A    
C28   H27   S    
C34   C46   A    
C43   C48   A    
H25   O15   S    
C18   H16   S    
C3    C60   A    
C6    H6    S    
C30   C50   S    
C50   O3    D    
C55   C60   S    
Cu1   O20   S    
Cu1   N5    S    
C38   N3    A    
C24   O22   A    
Cu2   O23   S    
C24   C37   S    
C57   O16   D    
C54   C59   S    
C25   C29   A    
C40   C45   A    
C27   C31   A    
C13   H13   S    
C28   C32   A    
C35   C38   S    
C11   H11   S    
C49   O2    S    
C4    C23   S    
C2    C59   A    
C39   N4    A    
C3    C34   S    
C49   O24   D    
H22   O10   S    
C23   C44   A    
C46   H2    S    
C15   C20   S    
C6    N6    A    
Cu1   O1    S    
C9    C14   A    
C41   C56   A    
C5    C9    A    
C51   O5    D    
C17   H15   S    
C17   C18   A    
C33   C39   S    
C19   H17   S    
C43   C45   A    
C39   N1    A    
Cu2   O19   S    
Cu2   N6    S    
C41   H29   S    
C26   C30   A    
C13   C15   A    
C31   C35   A    
C38   N2    A    
C1    O1    A    
C12   O12   A    
C57   O17   S    
C12   O18   A    
C53   O9    D    
C23   C48   A    
Cu1   O18   S    
C16   H14   S    
C9    H9    S    
C31   C51   S    
C12   C45   S    
C7    H7    S    
C53   C58   S    
N1    N3    A    
C26   C37   A    
H18   O2    S    
C55   O14   D    
C22   C36   S    
C8    H8    S    
C48   H4    S    
C32   C33   A    
C8    N6    A    
C55   O15   S    
C27   C37   A    
C51   O6    S    
C24   O21   A    
C43   H31   S    
C54   O11   D    
C42   H30   S    
C42   C47   A    
H20   O6    S    
Cu1   Cu2   S    
C44   H32   S    
C6    C10   A    
C25   C36   A    
C40   C44   A    
Cu2   O12   S    
C28   C36   A    
C26   H12   S    
C4    C58   A    
Cu1   O22   S    
C52   O8    S    
C34   C47   A    
C40   H28   S    
H26   O17   S    
C47   H3    S    
Cu2   O21   S    
C3    C59   A    
H19   O4    S    
C10   H10   S    
