data_mof_unit_7566.cif
_audit_creation_date              2012-12-10T18:31:10-0500
_audit_creation_method            fapswitch 2.2
_symmetry_space_group_name_H-M    P1
_symmetry_Int_Tables_number       1
_space_group_crystal_system       triclinic
_cell_length_a                    13.672744
_cell_length_b                    14.833062
_cell_length_c                    15.333996
_cell_angle_alpha                 98.531269
_cell_angle_beta                  91.913763
_cell_angle_gamma                 98.025272
_cell_volume                      3040.68536839

loop_
_atom_site_label
_atom_site_type_symbol
_atom_type_description
_atom_site_fract_x
_atom_site_fract_y
_atom_site_fract_z
_atom_type_partial_charge
C1    C     C_R   0.512408 0.558286 0.663350 0.851693
C2    C     C_R   0.364364 0.405925 0.919257 -0.231540
C3    C     C_R   0.457339 0.685335 0.023462 -0.241640
C4    C     C_R   0.349078 0.340179 0.975022 -0.231437
C5    C     C_R   0.351088 0.171697 0.636283 0.000849
C6    C     C_R   0.651678 0.829494 0.366730 0.001741
C7    C     C_R   0.372235 0.257122 0.607633 -0.012821
C8    C     C_R   0.619054 0.740835 0.384567 -0.014072
C9    C     C_R   0.500576 0.208081 0.521266 -0.076756
C10   C     C_R   0.519425 0.797276 0.497211 -0.083627
C11   C     C_R   0.489593 0.122985 0.552269 -0.041447
C12   C     C_R   0.482086 0.442114 0.336410 0.854479
C13   C     C_R   0.555893 0.888925 0.489641 -0.039378
C14   C     C_R   0.418114 0.106811 0.616101 0.085704
C15   C     C_R   0.629289 0.905792 0.427396 0.081656
C16   C     C_R   0.318397 0.514185 0.496951 0.896549
C17   C     C_R   0.681594 0.485796 0.503102 0.891673
C18   C     C_R   0.545407 0.052924 0.519480 0.052880
C19   C     C_R   0.519087 0.963665 0.540164 0.061929
C20   C     C_R   0.459784 0.953087 0.612503 -0.251946
C21   C     C_R   0.628154 0.069558 0.468853 -0.258743
C22   C     C_R   0.418851 0.027089 0.657007 0.096990
C23   C     C_R   0.441267 0.562738 0.897818 0.091306
C24   C     C_R   0.676631 0.997985 0.430208 0.095642
C25   C     C_1   0.782160 0.475935 0.504178 -0.195261
C26   C     C_1   0.217772 0.523796 0.495938 -0.188925
C27   C     C_2   0.969423 0.462090 0.505263 -0.164136
C28   C     C_2   0.030348 0.536913 0.494996 -0.161471
C29   C     C_1   0.132605 0.531935 0.495187 0.003606
C30   C     C_1   0.867211 0.467341 0.505016 0.002181
C31   C     C_R   0.504922 0.596143 0.757228 -0.094439
C32   C     C_R   0.450406 0.408494 0.242221 -0.096936
C33   C     C_R   0.514498 0.719063 0.882706 -0.247118
C34   C     C_R   0.411635 0.456477 0.100353 0.088307
C35   C     C_R   0.376797 0.294819 0.117628 -0.239426
C36   C     C_R   0.535918 0.689924 0.794945 0.106571
C37   C     C_R   0.413029 0.315183 0.206250 0.104469
C38   C     C_R   0.458731 0.534834 0.809511 -0.297569
C39   C     C_R   0.449472 0.476645 0.187889 -0.294248
C40   C     C_3   0.254284 0.151141 0.680950 -0.464202
C41   C     C_3   0.163858 0.171288 0.628771 -0.336707
C42   C     C_3   0.068450 0.142659 0.673177 -0.888722
C43   C     C_3   0.702103 0.838389 0.280601 -0.463626
C44   C     C_3   0.646166 0.776960 0.199577 -0.331980
C45   C     C_R   0.469610 0.656337 0.934320 0.149496
C46   C     C_3   0.696043 0.794938 0.114817 -0.889445
C47   C     C_3   0.414965 0.233925 0.255489 -0.392939
C48   C     C_3   0.519647 0.208030 0.261060 -0.339135
C49   C     C_3   0.517435 0.109950 0.280839 -0.898058
C50   C     C_3   0.593511 0.760206 0.746227 -0.413690
C51   C     C_3   0.697641 0.737550 0.726931 -0.303845
C52   C     C_3   0.749888 0.802862 0.669365 -0.861076
C53   C     C_3   0.388668 0.022340 0.751246 -0.447272
C54   C     C_3   0.472320 0.000177 0.810430 -0.327241
C55   C     C_3   0.445266 0.007682 0.906797 -0.903367
C56   C     C_R   0.377794 0.363723 0.064575 0.149284
C57   C     C_3   0.780135 0.023283 0.398739 -0.449847
C58   C     C_3   0.850183 0.088903 0.468433 -0.326307
C59   C     C_3   0.953721 0.107304 0.434376 -0.901659
C60   C     C_R   0.405188 0.498031 0.952793 0.080224
C61   C     C_R   0.415631 0.525489 0.045316 0.080603
C62   C     C_R   0.433317 0.620623 0.079070 -0.237138
H1    H     H_    0.003946 0.601100 0.486586 0.156606
H2    H     H_    0.350848 0.223909 0.088535 0.131631
H3    H     H_    0.428907 0.646411 0.148286 0.145514
H4    H     H_    0.343094 0.382972 0.850254 0.140210
H5    H     H_    0.463778 0.778845 0.542064 0.131980
H6    H     H_    0.552552 0.225737 0.473176 0.141483
H7    H     H_    0.643274 0.681266 0.346815 0.137201
H8    H     H_    0.329620 0.311863 0.628523 0.134062
H9    H     H_    0.055702 0.066817 0.671730 0.261128
H10   H     H_    0.072669 0.177501 0.742806 0.263047
H11   H     H_    0.004617 0.162752 0.638008 0.250858
H12   H     H_    0.995741 0.397854 0.513668 0.155126
H13   H     H_    0.169440 0.245990 0.625094 0.214795
H14   H     H_    0.159738 0.132788 0.560462 0.229209
H15   H     H_    0.238460 0.077223 0.687142 0.219713
H16   H     H_    0.260406 0.192998 0.747885 0.195512
H17   H     H_    0.690317 0.865960 0.102382 0.253916
H18   H     H_    0.775275 0.786087 0.119909 0.263979
H19   H     H_    0.659751 0.745299 0.057855 0.260398
H20   H     H_    0.644820 0.702947 0.204698 0.216793
H21   H     H_    0.568732 0.791446 0.195293 0.221875
H22   H     H_    0.706332 0.909599 0.265976 0.218692
H23   H     H_    0.451257 0.889957 0.640177 0.131355
H24   H     H_    0.778015 0.820418 0.286877 0.200736
H25   H     H_    0.479136 0.101546 0.342409 0.271996
H26   H     H_    0.478148 0.059663 0.225543 0.260291
H27   H     H_    0.594243 0.094884 0.288396 0.251040
H28   H     H_    0.554904 0.212210 0.197156 0.224431
H29   H     H_    0.566021 0.256821 0.313277 0.224914
H30   H     H_    0.384462 0.246243 0.321513 0.219226
H31   H     H_    0.364452 0.173330 0.219882 0.192188
H32   H     H_    0.755364 0.875467 0.702301 0.252267
H33   H     H_    0.825689 0.786466 0.658141 0.243450
H34   H     H_    0.659791 0.138790 0.462616 0.145491
H35   H     H_    0.708777 0.794924 0.604326 0.273070
H36   H     H_    0.741884 0.744238 0.790328 0.210686
H37   H     H_    0.694816 0.665804 0.692728 0.223844
H38   H     H_    0.551137 0.766780 0.685242 0.214662
H39   H     H_    0.603090 0.829744 0.786737 0.178056
H40   H     H_    0.433630 0.079219 0.932609 0.260388
H41   H     H_    0.376843 0.959534 0.913039 0.264151
H42   H     H_    0.506290 0.989418 0.947286 0.245702
H43   H     H_    0.486757 0.928909 0.788619 0.211516
H44   H     H_    0.541154 0.048585 0.805896 0.229163
H45   H     H_    0.473169 0.757668 0.051387 0.152219
H46   H     H_    0.370725 0.089638 0.782987 0.211122
H47   H     H_    0.322725 0.968955 0.750130 0.197028
H48   H     H_    0.988342 0.043347 0.426414 0.262577
H49   H     H_    0.950144 0.132685 0.369893 0.264106
H50   H     H_    0.000784 0.160918 0.481777 0.250312
H51   H     H_    0.823174 0.156245 0.484482 0.218833
H52   H     H_    0.854715 0.058080 0.530005 0.227672
H53   H     H_    0.816462 0.961110 0.383206 0.213313
H54   H     H_    0.774100 0.056129 0.338532 0.194340
H55   H     H_    0.320133 0.269634 0.947003 0.138423
H56   H     H_    0.482679 0.546099 0.213751 0.166105
H57   H     H_    0.440160 0.463436 0.781030 0.169824
H58   H     H_    0.537067 0.790310 0.912483 0.136654
N1    N     N_R   0.445040 0.272490 0.551770 -0.111391
N2    N     N_R   0.554960 0.727510 0.448230 -0.111543
O1    O     O_R   0.527700 0.614770 0.606110 -0.610538
O2    O     O_R   0.472300 0.385230 0.393890 -0.617695
O3    O     O_R   0.492440 0.468680 0.639380 -0.610799
O4    O     O_R   0.507560 0.531320 0.360620 -0.617978
O5    O     O_R   0.379820 0.583550 0.480950 -0.604025
O6    O     O_R   0.620180 0.416450 0.519050 -0.609481
O7    O     O_R   0.344560 0.437460 0.514220 -0.619471
O8    O     O_R   0.655440 0.562540 0.485780 -0.605514
Zn1   Zn    Zn3+2 0.523550 0.597550 0.477790 0.929630
Zn2   Zn    Zn3+2 0.476450 0.402450 0.522210 0.925286

loop_
_geom_bond_atom_site_label_1
_geom_bond_atom_site_label_2
_ccdc_geom_bond_type
C11   C18   A    
C34   C56   A    
C23   C45   A    
C26   C29   T    
C18   C21   A    
C33   C45   A    
C47   H30   S    
C49   H25   S    
C19   C20   A    
O3    Zn2   S    
C44   H21   S    
C59   H48   S    
C7    H8    S    
C57   H53   S    
C53   C54   S    
C55   H40   S    
C8    H7    S    
C28   C29   S    
C35   C37   A    
C1    O3    A    
C44   H20   S    
C46   H17   S    
C11   C14   A    
C2    C60   A    
C12   O4    A    
C55   H41   S    
C52   H35   S    
C1    C31   S    
C33   C36   A    
O2    Zn2   S    
C52   H33   S    
C18   C19   A    
C41   C42   S    
C32   C39   A    
C6    C15   A    
C24   C57   S    
C48   H29   S    
C58   H51   S    
C9    N1    A    
C52   H32   S    
C35   H2    S    
C37   C47   S    
C27   H12   S    
C54   H43   S    
O7    Zn2   S    
C51   H36   S    
C35   C56   A    
C48   H28   S    
C12   C32   S    
C27   C30   S    
C51   H37   S    
C43   H22   S    
C49   H26   S    
C7    N1    A    
O6    Zn2   S    
C44   C46   S    
C59   H50   S    
C22   C53   S    
C16   C26   S    
C23   C60   A    
C13   C19   A    
C34   C39   A    
C5    C7    A    
C54   H44   S    
C6    C8    A    
C3    H45   S    
C58   C59   S    
C10   H5    S    
C55   H42   S    
C3    C45   A    
C34   C61   A    
C51   C52   S    
C60   C61   A    
C2    C4    A    
C43   C44   S    
C1    O1    A    
C41   H13   S    
C46   H19   S    
C59   H49   S    
C47   C48   S    
C12   O2    A    
C20   H23   S    
C42   H10   S    
C50   C51   S    
C47   H31   S    
C32   C37   A    
C16   O7    A    
C9    C11   A    
C5    C14   A    
C50   H39   S    
C38   H57   S    
C15   C24   A    
C20   C22   A    
C6    C43   S    
C13   C15   A    
C57   H54   S    
C40   H16   S    
C4    H55   S    
C5    C40   S    
N1    Zn2   S    
C23   C38   A    
N2    Zn1   S    
C36   C50   S    
C3    C62   A    
C53   H47   S    
C25   C30   T    
C54   C55   S    
C48   C49   S    
C42   H11   S    
C62   H3    S    
O1    Zn1   S    
C17   O8    A    
C31   C36   A    
C43   H24   S    
C49   H27   S    
C10   N2    A    
C10   C13   A    
C17   O6    A    
C2    H4    S    
C21   H34   S    
C39   H56   S    
C50   H38   S    
C31   C38   A    
C17   C25   S    
C14   C22   A    
O8    Zn1   S    
C9    H6    S    
C41   H14   S    
C46   H18   S    
C53   H46   S    
C8    N2    A    
C57   C58   S    
O4    Zn1   S    
C42   H9    S    
C61   C62   A    
C16   O5    A    
O5    Zn1   S    
C28   H1    S    
C33   H58   S    
C21   C24   A    
C27   C28   D    
C58   H52   S    
C40   H15   S    
C40   C41   S    
C4    C56   A    
