data_mof_unit_27598.cif
_audit_creation_date              2012-12-11T15:33:35-0500
_audit_creation_method            fapswitch 2.2
_symmetry_space_group_name_H-M    P1
_symmetry_Int_Tables_number       1
_space_group_crystal_system       triclinic
_cell_length_a                    27.433132
_cell_length_b                    7.186169
_cell_length_c                    22.537297
_cell_angle_alpha                 88.705517
_cell_angle_beta                  100.913482
_cell_angle_gamma                 88.912675
_cell_volume                      4360.29081622

loop_
_atom_site_label
_atom_site_type_symbol
_atom_type_description
_atom_site_fract_x
_atom_site_fract_y
_atom_site_fract_z
_atom_type_partial_charge
O1    O     O_R   0.207310 0.594030 0.676830 -0.545070
O2    O     O_R   0.792690 0.405970 0.323170 -0.551409
O3    O     O_R   0.292690 0.094030 0.823170 -0.538277
O4    O     O_R   0.707310 0.905970 0.176830 -0.530081
O5    O     O_R   0.197320 0.262370 0.795700 -0.519627
O6    O     O_R   0.802680 0.737630 0.204300 -0.514169
O7    O     O_R   0.302680 0.762370 0.704300 -0.521143
O8    O     O_R   0.697320 0.237630 0.295700 -0.532929
C1    C     C_R   0.183836 0.432700 0.811214 0.701494
C2    C     C_R   0.815137 0.567620 0.187869 0.735555
C3    C     C_R   0.315525 0.932624 0.687907 0.723265
C4    C     C_R   0.685003 0.067736 0.312127 0.770214
O9    O     O_R   0.201410 0.264250 0.675590 -0.523247
O10   O     O_R   0.798590 0.735750 0.324410 -0.515486
O11   O     O_R   0.298590 0.764250 0.824410 -0.543122
O12   O     O_R   0.701410 0.235750 0.175590 -0.543509
O13   O     O_R   0.296810 0.094940 0.702210 -0.504793
O14   O     O_R   0.703190 0.905060 0.297790 -0.528146
O15   O     O_R   0.203190 0.594940 0.797790 -0.508396
O16   O     O_R   0.796810 0.405060 0.202210 -0.514540
C5    C     C_R   0.189615 0.436374 0.653457 0.714194
C6    C     C_R   0.810307 0.563434 0.346593 0.694261
C7    C     C_R   0.311072 0.929402 0.846313 0.719001
C8    C     C_R   0.689848 0.070710 0.153038 0.741795
O17   O     O_3   0.281300 0.427390 0.758870 -0.365415
O18   O     O_3   0.718700 0.572610 0.241130 -0.384833
O19   O     O_3   0.218700 0.927390 0.741130 -0.362908
O20   O     O_3   0.781300 0.072610 0.258870 -0.362147
V1    V     V_3+5 0.244190 0.152150 0.748350 1.521697
V2    V     V_3+5 0.755810 0.847850 0.251650 1.506723
V3    V     V_3+5 0.255810 0.652150 0.751650 1.503334
V4    V     V_3+5 0.744190 0.347850 0.248350 1.456125
C9    C     C_R   0.653621 0.079603 0.094972 -0.045809
C10   C     C_R   0.348500 0.919976 0.903626 -0.038531
C11   C     C_R   0.845194 0.537049 0.405161 -0.020938
C12   C     C_R   0.154036 0.461112 0.595307 -0.029369
C13   C     C_R   0.626412 0.265354 0.003465 -0.176685
C14   C     C_R   0.378059 0.730220 0.993710 -0.145285
C15   C     C_R   0.859735 0.402938 0.506466 -0.173107
C16   C     C_R   0.138748 0.585109 0.492805 -0.137478
C17   C     C_R   0.663799 0.202440 0.050248 -0.215217
C18   C     C_R   0.340051 0.791665 0.947747 -0.257419
C19   C     C_R   0.828740 0.436587 0.450993 -0.217904
C20   C     C_R   0.170385 0.553192 0.547875 -0.267708
C21   C     C_R   0.605923 0.002024 0.088862 0.142939
C22   C     C_R   0.395722 0.002106 0.909221 0.142721
C23   C     C_R   0.895440 0.588515 0.413252 0.147619
C24   C     C_R   0.103507 0.414059 0.588960 0.145138
C25   C     C_R   0.568443 0.048120 0.035849 0.021358
C26   C     C_R   0.434407 0.954454 0.961119 0.009252
C27   C     C_R   0.930227 0.520239 0.465947 0.022361
C28   C     C_R   0.068285 0.477907 0.535855 0.000694
C29   C     C_R   0.578095 0.197630 0.997508 0.053566
C30   C     C_R   0.425717 0.802151 0.999095 0.120636
C31   C     C_R   0.910258 0.446485 0.515144 0.060323
C32   C     C_R   0.088065 0.546008 0.485688 0.122306
C33   C     C_R   0.521107 0.960234 0.020676 0.025093
C34   C     C_R   0.481981 0.042219 0.975721 -0.000640
C35   C     C_R   0.983491 0.519576 0.472173 0.031814
C36   C     C_R   0.014905 0.478594 0.529704 -0.003305
C37   C     C_R   0.491096 0.213583 0.949297 -0.171298
C38   C     C_R   0.512631 0.787688 0.046633 -0.245149
C39   C     C_R   0.991720 0.450618 0.579557 -0.167255
C40   C     C_R   0.006302 0.546152 0.422010 -0.254208
C41   C     C_R   0.538600 0.284100 0.956191 0.175691
C42   C     C_R   0.465316 0.715349 0.039570 0.189220
C43   C     C_R   0.941061 0.421058 0.572494 0.182038
C44   C     C_R   0.057223 0.571060 0.428638 0.183035
H1    H     H_    0.304809 0.724141 0.943277 0.128993
H2    H     H_    0.700065 0.263871 0.054722 0.127459
H3    H     H_    0.208489 0.595786 0.552931 0.129919
H4    H     H_    0.790917 0.389040 0.444470 0.125985
H5    H     H_    0.635546 0.372594 0.973211 0.129105
H6    H     H_    0.370195 0.619686 0.023748 0.165810
H7    H     H_    0.843911 0.337174 0.541856 0.129889
H8    H     H_    0.154087 0.645877 0.456139 0.165756
H9    H     H_    0.461576 0.297876 0.923213 0.159854
H10   H     H_    0.542555 0.704433 0.072512 0.139812
H11   H     H_    0.012173 0.451059 0.625138 0.154547
H12   H     H_    0.985270 0.547297 0.376591 0.131046
C45   C     C_R   0.656498 0.950421 0.405453 0.404210
C46   C     C_R   0.357634 0.106512 0.612685 0.397961
C47   C     C_R   0.885210 0.397556 0.151654 0.361642
C48   C     C_R   0.134069 0.607037 0.878368 0.382785
C49   C     C_R   0.620431 0.945463 0.442754 -0.231345
C50   C     C_R   0.394678 0.118674 0.577258 -0.235237
C51   C     C_R   0.918257 0.380308 0.111297 -0.239925
C52   C     C_R   0.094137 0.618972 0.909178 -0.244666
H13   H     H_    0.628730 0.876425 0.486644 0.144858
H14   H     H_    0.397597 0.246536 0.552027 0.156805
H15   H     H_    0.941206 0.255017 0.113659 0.157121
H16   H     H_    0.087475 0.748490 0.930358 0.156865
C53   C     C_R   0.574039 0.036075 0.425315 -0.066900
C54   C     C_R   0.427868 0.970482 0.574437 -0.067762
C55   C     C_R   0.922742 0.524103 0.069682 -0.058503
C56   C     C_R   0.064796 0.465879 0.915548 -0.061904
C57   C     C_R   0.564767 0.142441 0.371139 -0.171550
C58   C     C_R   0.424698 0.809059 0.609585 -0.186161
C59   C     C_R   0.892982 0.685755 0.068536 -0.191959
C60   C     C_R   0.073357 0.301907 0.886288 -0.182025
H17   H     H_    0.529271 0.214573 0.357289 0.146349
H18   H     H_    0.450375 0.693562 0.608235 0.149198
H19   H     H_    0.895713 0.798604 0.036715 0.155965
H20   H     H_    0.050091 0.183573 0.889820 0.149634
C61   C     C_R   0.600720 0.155202 0.334071 0.142575
C62   C     C_R   0.388986 0.794562 0.647058 0.150251
C63   C     C_R   0.858233 0.702600 0.106833 0.147761
C64   C     C_R   0.110388 0.290639 0.850496 0.142911
C65   C     C_R   0.646757 0.058006 0.351018 -0.139665
C66   C     C_R   0.354651 0.944278 0.649078 -0.161556
C67   C     C_R   0.853513 0.557080 0.148711 -0.139470
C68   C     C_R   0.142416 0.443218 0.846992 -0.166646
N1    N     N_R   0.496160 0.139727 0.457068 -0.287504
N2    N     N_R   0.505350 0.865519 0.542065 -0.286619
N3    N     N_R   0.974555 0.661417 0.002084 -0.280811
N4    N     N_R   0.009918 0.324181 0.979150 -0.280081
N5    N     N_R   0.462138 0.124045 0.491981 -0.293451
N6    N     N_R   0.539516 0.881830 0.507386 -0.289206
N7    N     N_R   0.007615 0.647598 0.965925 -0.285655
N8    N     N_R   0.977092 0.338133 0.015755 -0.285137
C69   C     C_R   0.465913 0.986613 0.535276 0.554594
C70   C     C_R   0.535757 0.019312 0.464120 0.555668
C71   C     C_R   0.026061 0.478864 0.953620 0.545733
C72   C     C_R   0.958763 0.507201 0.028129 0.544544
N9    N     N_3   0.544868 0.451488 0.922818 -0.668744
H21   H     H_    0.569932 0.423987 0.894314 0.231728
H22   H     H_    0.559240 0.553429 0.953245 0.235199
N10   N     N_3   0.458165 0.546439 0.071708 -0.687541
H23   H     H_    0.469304 0.568374 0.117959 0.232470
H24   H     H_    0.481427 0.442533 0.059733 0.240849
N11   N     N_3   0.921724 0.371044 0.625362 -0.669247
H25   H     H_    0.906305 0.239248 0.619675 0.232080
H26   H     H_    0.894000 0.468193 0.630273 0.234533
N12   N     N_3   0.077786 0.617029 0.376339 -0.687260
H27   H     H_    0.060750 0.741179 0.357012 0.231845
H28   H     H_    0.068740 0.512169 0.344981 0.231293
N13   N     N_3   0.405706 0.096373 0.856078 -0.694202
H29   H     H_    0.397004 0.238199 0.857320 0.235629
H30   H     H_    0.442160 0.071141 0.850434 0.244993
N14   N     N_3   0.594129 0.914955 0.142276 -0.709881
H31   H     H_    0.557071 0.939624 0.145460 0.237569
H32   H     H_    0.603309 0.772996 0.143528 0.236030
N15   N     N_3   0.091418 0.283192 0.632746 -0.682686
H33   H     H_    0.084555 0.353547 0.670503 0.205817
H34   H     H_    0.062034 0.199521 0.613949 0.246960
N16   N     N_3   0.907604 0.729179 0.372512 -0.681438
H35   H     H_    0.937923 0.806190 0.392741 0.243907
H36   H     H_    0.913777 0.667994 0.332928 0.197573
O21   O     O_3   0.703895 0.872095 0.424114 -0.563934
C73   C     C_3   0.703368 0.685380 0.445599 0.059992
H37   H     H_    0.684222 0.668463 0.484378 0.119063
H38   H     H_    0.742398 0.642397 0.463764 0.144917
C74   C     C_3   0.682727 0.553075 0.395304 -0.679381
H39   H     H_    0.687573 0.407187 0.413059 0.176445
H40   H     H_    0.642542 0.582125 0.378429 0.217838
H41   H     H_    0.702974 0.568863 0.357431 0.241218
O22   O     O_3   0.326685 0.259602 0.615551 -0.534663
C75   C     C_3   0.297996 0.308629 0.558022 0.100974
H42   H     H_    0.258217 0.297242 0.560878 0.126632
H43   H     H_    0.304156 0.217448 0.520528 0.099513
C76   C     C_3   0.307716 0.509699 0.541782 -0.705766
H44   H     H_    0.347098 0.525180 0.537605 0.223551
H45   H     H_    0.283593 0.551685 0.498039 0.172147
H46   H     H_    0.299531 0.603169 0.577400 0.229851
O23   O     O_3   0.883380 0.254966 0.193327 -0.543103
C77   C     C_3   0.921099 0.281379 0.244308 0.082357
H47   H     H_    0.918624 0.423652 0.262355 0.080547
H48   H     H_    0.958409 0.259019 0.232636 0.119632
C78   C     C_3   0.915438 0.141453 0.294011 -0.639011
H49   H     H_    0.945644 0.158308 0.333828 0.159858
H50   H     H_    0.879175 0.164502 0.308060 0.237820
H51   H     H_    0.917454 0.997658 0.277449 0.220285
O24   O     O_3   0.163206 0.761363 0.876823 -0.531719
C79   C     C_3   0.193185 0.782870 0.934523 0.114782
H52   H     H_    0.224054 0.677926 0.941353 0.093025
H53   H     H_    0.172591 0.765664 0.972351 0.106537
C80   C     C_3   0.214007 0.977760 0.938412 -0.673905
H54   H     H_    0.183728 0.081749 0.939285 0.221446
H55   H     H_    0.242401 0.988821 0.980335 0.162400
H56   H     H_    0.231173 0.009154 0.898790 0.227119
N17   N     N_3   0.590418 0.264360 0.278688 -0.650793
H57   H     H_    0.587392 0.172294 0.242985 0.230955
H58   H     H_    0.556092 0.334353 0.274099 0.226569
N18   N     N_3   0.388348 0.629027 0.683902 -0.594889
H59   H     H_    0.412192 0.525887 0.672697 0.239379
H60   H     H_    0.402241 0.663413 0.728661 0.224563
N19   N     N_3   0.826777 0.865965 0.101483 -0.637523
H61   H     H_    0.806804 0.876694 0.057121 0.216908
H62   H     H_    0.849397 0.981830 0.108911 0.261958
N20   N     N_3   0.114594 0.125358 0.816886 -0.579011
H63   H     H_    0.090889 0.022992 0.827688 0.244715
H64   H     H_    0.102261 0.160393 0.771166 0.224444

loop_
_geom_bond_atom_site_label_1
_geom_bond_atom_site_label_2
_ccdc_geom_bond_type
C55   C72   S    
O17   V3    S    
C75   H43   S    
C52   C56   A    
O1    C5    A    
O22   C75   S    
N4    C71   A    
C51   H15   S    
O19   V1    S    
C9    C21   A    
C78   H49   S    
O3    C7    A    
C10   C18   A    
C60   H20   S    
C11   C23   A    
N10   H23   S    
C76   H44   S    
C25   C33   A    
C33   C38   A    
C5    C12   S    
C39   H11   S    
O24   C79   S    
O7    C3    A    
C6    C11   S    
N13   H30   S    
C35   C40   A    
C48   C68   A    
C36   C39   A    
C46   C66   A    
O9    V1    S    
N14   H32   S    
C14   C18   A    
C62   C66   A    
O4    C8    A    
C25   C29   A    
C54   C58   A    
C55   C59   A    
N15   H33   S    
C63   N19   S    
O1    V3    S    
O13   V1    S    
N18   H59   S    
C20   H3    S    
O2    V4    S    
N6    C70   A    
O3    V1    S    
N5    C69   A    
C79   H52   S    
C13   H5    S    
C50   C54   A    
C75   C76   S    
C40   H12   S    
N2    C69   A    
C49   C53   A    
C1    O15   A    
C15   C31   A    
N1    C70   A    
C52   H16   S    
C37   H9    S    
C80   H55   S    
C73   C74   S    
C51   C55   A    
O2    C6    A    
C10   C22   A    
C15   H7    S    
C74   H40   S    
C11   C19   A    
C16   C20   A    
O5    V1    S    
C45   C49   A    
C13   C29   A    
C80   H56   S    
C34   C37   A    
O11   C7    A    
C23   N16   S    
O15   V3    S    
C35   C36   A    
O12   C8    A    
C3    C66   S    
C77   H48   S    
C78   H50   S    
C64   N20   S    
C77   H47   S    
O10   V2    S    
C4    C65   S    
C76   H45   S    
N16   H36   S    
N17   H58   S    
C39   C43   A    
C60   C64   A    
O7    V3    S    
C38   C42   A    
O8    V4    S    
C48   O24   S    
C53   C70   S    
C59   H19   S    
C50   H14   S    
C2    O16   A    
C46   O22   S    
C49   H13   S    
O18   V4    S    
C15   C19   A    
C14   H6    S    
C16   C32   A    
C32   C44   A    
C21   N14   S    
O4    V2    S    
N4    N8    A    
C24   N15   S    
C26   C34   A    
N17   H57   S    
N20   H63   S    
O5    C1    A    
C73   H38   S    
C23   C27   A    
C47   O23   S    
C53   C57   A    
C31   C43   A    
C14   C30   A    
C21   C25   A    
O8    C4    A    
C7    C10   S    
O9    C5    A    
C2    C67   S    
C26   C30   A    
N14   H31   S    
C74   H41   S    
C79   C80   S    
C62   N18   S    
N2    N6    A    
C22   N13   S    
N1    N5    A    
O6    V2    S    
C45   C65   A    
N3    N7    A    
N9    H21   S    
C78   H51   S    
C47   C67   A    
C12   C20   A    
C27   C35   A    
N11   H25   S    
C40   C44   A    
C76   H46   S    
C29   C41   A    
N16   H35   S    
O16   V4    S    
C64   C68   A    
N15   H34   S    
C19   H4    S    
C61   C65   A    
C3    O13   A    
N20   H64   S    
N3    C72   A    
C56   C71   S    
C63   C67   A    
C38   H10   S    
C43   N11   S    
C48   C52   A    
N11   H26   S    
N10   H24   S    
C47   C51   A    
O6    C2    A    
N12   H28   S    
O11   V3    S    
N12   H27   S    
C30   C42   A    
N7    C71   A    
O12   V4    S    
C59   C63   A    
N13   H29   S    
C22   C26   A    
C8    C9    S    
C58   C62   A    
C9    C17   A    
O10   C6    A    
O20   V2    S    
C57   C61   A    
N19   H61   S    
C58   H18   S    
O21   C73   S    
C46   C50   A    
C33   C34   A    
C75   H42   S    
C28   C32   A    
C1    C68   S    
C45   O21   S    
C56   C60   A    
C44   N12   S    
N18   H60   S    
C12   C24   A    
C27   C31   A    
C18   H1    S    
C13   C17   A    
C79   H53   S    
N19   H62   S    
O14   V2    S    
C54   C69   S    
C37   C41   A    
O23   C77   S    
C24   C28   A    
C77   C78   S    
C28   C36   A    
C80   H54   S    
C16   H8    S    
C4    O14   A    
N9    H22   S    
C73   H37   S    
C61   N17   S    
C74   H39   S    
C42   N10   S    
C57   H17   S    
N8    C72   A    
C41   N9    S    
C17   H2    S    
