data_mof_unit_30454.cif
_audit_creation_date              2012-12-11T15:32:09-0500
_audit_creation_method            fapswitch 2.2
_symmetry_space_group_name_H-M    P1
_symmetry_Int_Tables_number       1
_space_group_crystal_system       triclinic
_cell_length_a                    13.572779
_cell_length_b                    13.576496
_cell_length_c                    27.691098
_cell_angle_alpha                 90.412824
_cell_angle_beta                  90.210335
_cell_angle_gamma                 119.913375
_cell_volume                      4422.61553116

loop_
_atom_site_label
_atom_site_type_symbol
_atom_type_description
_atom_site_fract_x
_atom_site_fract_y
_atom_site_fract_z
_atom_type_partial_charge
C1    C     C_R   0.619412 0.898417 0.431247 0.545369
C2    C     C_R   0.076638 0.813911 0.270910 -0.112707
C3    C     C_R   0.057667 0.805320 0.220947 -0.111767
C4    C     C_R   0.599498 0.218186 0.431202 0.544644
C5    C     C_R   0.256682 0.867964 0.207362 -0.106638
C6    C     C_R   0.275660 0.876615 0.257305 -0.105813
C7    C     C_R   0.185579 0.848795 0.289213 0.037682
C8    C     C_R   0.147475 0.831693 0.189050 0.037883
C9    C     C_1   0.124845 0.815161 0.137867 -0.058098
C10   C     C_1   0.206445 0.855053 0.340512 -0.059523
C11   C     C_1   0.097105 0.794911 0.095917 -0.012946
C12   C     C_R   0.618593 0.233267 0.208215 -0.103365
C13   C     C_1   0.634408 0.866928 0.383441 -0.013729
C14   C     C_R   0.573218 0.739144 0.266072 -0.124485
C15   C     C_R   0.578363 0.727514 0.216063 -0.114263
C16   C     C_R   0.279532 0.878888 0.430506 0.544903
C17   C     C_R   0.743611 0.915888 0.212805 -0.113281
C18   C     C_R   0.738969 0.929098 0.262962 0.002616
C19   C     C_R   0.653285 0.839051 0.289865 0.024017
C20   C     C_R   0.663428 0.815914 0.189343 0.018170
C21   C     C_1   0.675105 0.801263 0.138511 -0.059402
C22   C     C_1   0.643731 0.850034 0.341328 -0.059620
C23   C     C_R   0.607246 0.215760 0.258086 -0.105279
C24   C     C_1   0.692312 0.788513 0.096853 -0.013278
C25   C     C_R   0.638777 0.276315 0.615897 0.023314
C26   C     C_R   0.719617 0.260808 0.641325 -0.126465
C27   C     C_R   0.730769 0.277401 0.690731 -0.124599
C28   C     C_R   0.620454 0.900825 0.569032 0.542698
C29   C     C_R   0.664495 0.313945 0.715184 0.037260
C30   C     C_R   0.592147 0.340732 0.689111 -0.123079
C31   C     C_R   0.578558 0.321032 0.639617 -0.132996
C32   C     C_R   0.572889 0.295288 0.794775 -0.122010
C33   C     C_R   0.582371 0.319474 0.843931 -0.130877
C34   C     C_R   0.665333 0.307528 0.290322 0.034696
C35   C     C_R   0.784712 0.385940 0.840360 -0.127481
C36   C     C_R   0.775775 0.364687 0.791249 -0.124765
C37   C     C_R   0.670702 0.323440 0.767810 0.037387
C38   C     C_R   0.689448 0.370092 0.866379 0.023983
C39   C     C_R   0.231462 0.867923 0.616107 0.026247
C40   C     C_R   0.601539 0.222614 0.568607 0.540426
C41   C     C_R   0.269251 0.964689 0.645678 -0.125118
C42   C     C_R   0.247469 0.953227 0.694676 -0.123853
C43   C     C_R   0.184391 0.844891 0.714689 0.035204
C44   C     C_R   0.140189 0.748133 0.684528 -0.117376
C45   C     C_R   0.688407 0.342690 0.190344 0.038095
C46   C     C_R   0.164948 0.759566 0.635500 -0.128797
C47   C     C_R   0.165783 0.743678 0.791484 -0.128595
C48   C     C_R   0.135447 0.725500 0.839681 -0.140255
C49   C     C_R   0.117718 0.895780 0.841239 -0.005652
C50   C     C_R   0.145363 0.910818 0.792362 -0.096199
C51   C     C_R   0.165445 0.833147 0.766955 0.023358
C52   C     C_R   0.280419 0.881989 0.568281 0.540902
C53   C     C_R   0.104993 0.796969 0.864488 0.034501
C54   C     C_R   0.638606 0.862574 0.615820 0.022624
C55   C     C_R   0.546243 0.771378 0.638705 -0.124850
C56   C     C_1   0.694679 0.363773 0.139229 -0.057141
C57   C     C_R   0.552606 0.751711 0.687387 -0.121163
C58   C     C_R   0.652120 0.821466 0.713767 0.036667
C59   C     C_R   0.747723 0.906557 0.689984 -0.120497
C60   C     C_R   0.740858 0.927418 0.641327 -0.129274
C61   C     C_R   0.712356 0.903292 0.796542 -0.118389
C62   C     C_R   0.724915 0.889949 0.845487 -0.129714
C63   C     C_R   0.613680 0.685190 0.835182 -0.126773
C64   C     C_1   0.630362 0.263200 0.383464 -0.024865
C65   C     C_R   0.602829 0.698474 0.786137 -0.122113
C66   C     C_R   0.655158 0.807524 0.766195 0.036205
C67   C     C_1   0.649284 0.288285 0.341482 -0.073892
C68   C     C_R   0.678900 0.780715 0.864730 0.024043
C69   C     C_R   0.049253 0.761151 0.048279 0.545665
C70   C     C_R   0.714416 0.435837 0.049751 0.545002
C71   C     C_R   0.723609 0.770861 0.049499 0.546725
C72   C     C_R   0.045097 0.756775 0.910677 0.543236
C73   C     C_R   0.707787 0.428084 0.912695 0.541039
C74   C     C_R   0.717253 0.765108 0.911884 0.541618
C75   C     C_R   0.736566 0.416638 0.272476 -0.105376
C76   C     C_R   0.747966 0.434153 0.222596 -0.101789
C77   C     C_R   0.825009 0.037073 0.286141 0.028656
C78   C     C_1   0.701756 0.390125 0.097345 -0.012465
C79   C     C_R   0.791691 0.104381 0.312503 -0.072463
C80   C     C_R   0.873575 0.206401 0.333977 -0.091837
C81   C     C_R   0.989038 0.242449 0.328983 -0.100577
C82   C     C_R   0.022902 0.176577 0.302477 -0.107094
C83   C     C_R   0.941352 0.074375 0.281021 -0.098646
C84   C     C_3   0.099175 0.984429 0.866183 -0.377729
C85   C     C_1   0.232942 0.863187 0.382605 -0.014540
Cr1   Cr    Cr6+3 0.417720 0.831920 0.499820 1.019814
Cr2   Cr    Cr6+3 0.668190 0.085770 0.500360 1.016915
Cr3   Cr    Cr6+3 0.414060 0.082260 0.499840 1.022576
Cr4   Cr    Cr6+3 0.908000 0.821090 0.979770 1.011564
Cr5   Cr    Cr6+3 0.912420 0.571130 0.979880 1.021092
Cr6   Cr    Cr6+3 0.657970 0.566940 0.980940 1.022433
H1    H     H_    0.782004 0.488119 0.297001 0.109120
H2    H     H_    0.543412 0.373249 0.707162 0.100176
H3    H     H_    0.801790 0.519319 0.209162 0.110515
H4    H     H_    0.516540 0.334496 0.620514 0.124172
H5    H     H_    0.322941 0.049334 0.631710 0.137424
H6    H     H_    0.186018 0.685468 0.773026 0.104790
H7    H     H_    0.130087 0.651428 0.856716 0.129673
H8    H     H_    0.284310 0.029190 0.717074 0.100160
H9    H     H_    0.146158 0.980920 0.773582 0.099522
H10   H     H_    0.088621 0.663700 0.698983 0.104596
H11   H     H_    0.135596 0.684130 0.613127 0.120350
H12   H     H_    0.516854 0.649135 0.198334 0.119219
H13   H     H_    0.466129 0.719786 0.619965 0.132427
H14   H     H_    0.571701 0.162056 0.183711 0.108876
H15   H     H_    0.750244 0.988400 0.782191 0.104256
H16   H     H_    0.775188 0.964684 0.867785 0.121032
H17   H     H_    0.477634 0.685684 0.704834 0.100917
H18   H     H_    0.558637 0.623229 0.763516 0.101097
H19   H     H_    0.578536 0.599884 0.849091 0.133539
H20   H     H_    0.826711 0.959104 0.709332 0.102441
H21   H     H_    0.813505 0.997669 0.624413 0.124861
H22   H     H_    0.552047 0.130892 0.271524 0.102341
H23   H     H_    0.809985 0.983762 0.191989 0.116106
H24   H     H_    0.006409 0.792295 0.295149 0.109294
H25   H     H_    0.972646 0.776569 0.207186 0.108775
H26   H     H_    0.326595 0.887992 0.183151 0.109117
H27   H     H_    0.360362 0.903801 0.271069 0.106165
H28   H     H_    0.506702 0.670022 0.286245 0.116999
H29   H     H_    0.702561 0.078188 0.316236 0.108949
H30   H     H_    0.847657 0.257689 0.354446 0.121149
H31   H     H_    0.052272 0.321508 0.345594 0.111822
H32   H     H_    0.112376 0.204662 0.298583 0.114446
H33   H     H_    0.968786 0.023926 0.260731 0.108574
H34   H     H_    0.767341 0.226225 0.623954 0.133530
H35   H     H_    0.130790 0.062484 0.844222 0.098127
H36   H     H_    0.007111 0.950969 0.872045 0.174931
H37   H     H_    0.146413 0.010257 0.901058 0.139773
H38   H     H_    0.490132 0.259173 0.777550 0.099093
H39   H     H_    0.507624 0.305214 0.863613 0.123516
H40   H     H_    0.786860 0.255709 0.709946 0.098845
H41   H     H_    0.852617 0.387464 0.771343 0.098666
H42   H     H_    0.868485 0.424655 0.856832 0.131694
O1    O     O_R   0.302900 0.805360 0.446400 -0.507965
O2    O     O_R   0.638120 0.455970 0.034270 -0.506260
O3    O     O_R   0.667540 0.672320 0.030160 -0.493149
O4    O     O_R   0.522090 0.841370 0.450730 -0.495360
O5    O     O_R   0.814460 0.840990 0.926980 -0.527687
O6    O     O_R   0.001710 0.811400 0.930110 -0.505474
O7    O     O_R   0.023410 0.659800 0.926210 -0.524353
O8    O     O_R   0.806940 0.473170 0.931090 -0.506053
O9    O     O_R   0.633420 0.451310 0.927930 -0.522268
O10   O     O_R   0.663190 0.668000 0.931580 -0.502366
O11   O     O_3   0.826130 0.653050 0.980200 -0.243346
O12   O     O_R   0.657980 0.180990 0.549630 -0.505877
O13   O     O_R   0.693280 0.995650 0.447220 -0.504673
O14   O     O_R   0.657260 0.178740 0.451050 -0.499485
O15   O     O_R   0.502640 0.195380 0.446850 -0.502977
O16   O     O_R   0.319630 0.976590 0.450330 -0.492752
O17   O     O_R   0.303680 0.807790 0.552740 -0.518301
O18   O     O_R   0.522820 0.843620 0.549310 -0.504220
O19   O     O_R   0.694060 0.998080 0.553560 -0.521290
O20   O     O_R   0.503420 0.197810 0.553190 -0.522900
O21   O     O_R   0.320350 0.978840 0.548910 -0.505186
O22   O     O_3   0.499990 0.999990 0.500010 -0.244910
O23   O     O_R   0.819150 0.845650 0.033320 -0.506891
O24   O     O_R   0.006060 0.815720 0.028680 -0.495106
O25   O     O_R   0.028100 0.664460 0.032550 -0.504437
O26   O     O_R   0.811290 0.477490 0.029660 -0.493515

loop_
_geom_bond_atom_site_label_1
_geom_bond_atom_site_label_2
_ccdc_geom_bond_type
C33   H39   S    
C25   C31   A    
C7    C10   S    
C74   O10   A    
C63   C65   A    
C10   C85   T    
C84   H37   S    
Cr2   O13   S    
C70   C78   S    
C27   H40   S    
Cr3   O16   S    
C2    C7    A    
C12   H14   S    
C75   C76   A    
C16   O1    A    
C35   H42   S    
C81   C82   A    
C39   C41   A    
C54   C60   A    
C46   H11   S    
C12   C23   A    
C58   C66   S    
C26   C27   A    
Cr2   O14   S    
C40   O12   A    
C45   C76   A    
C73   O8    A    
C49   C84   S    
C36   C37   A    
C16   C85   S    
C18   C19   A    
C30   H2    S    
C3    H25   S    
Cr1   O17   S    
C25   C40   S    
C30   C31   A    
C31   H4    S    
C41   H5    S    
C27   C29   A    
C77   C83   A    
C52   O21   A    
C4    O15   A    
C17   C20   A    
C56   C78   T    
C70   O26   A    
C41   C42   A    
Cr5   O26   S    
C49   C50   A    
Cr1   O4    S    
C76   H3    S    
C63   C68   A    
C61   C66   A    
Cr1   O1    S    
C72   O6    A    
Cr6   O3    S    
C35   C36   A    
C45   C56   S    
C8    C9    S    
Cr4   O6    S    
C69   O24   A    
C16   O16   A    
C83   H33   S    
C34   C75   A    
C73   O9    A    
Cr6   O9    S    
C84   H36   S    
C39   C52   S    
C59   C60   A    
C1    O13   A    
C15   C20   A    
C32   H38   S    
C44   C46   A    
C17   H23   S    
C50   C51   A    
Cr6   O10   S    
C80   H30   S    
C77   C79   A    
C84   H35   S    
C48   C53   A    
Cr4   O5    S    
Cr3   O22   S    
C19   C22   S    
C3    C8    A    
C71   O3    A    
C28   C54   S    
C12   C45   A    
Cr4   O23   S    
C47   C51   A    
C62   H16   S    
C25   C26   A    
C4    O14   A    
C55   H13   S    
C82   C83   A    
C5    H26   S    
C26   H34   S    
Cr3   O21   S    
Cr5   O25   S    
Cr1   O22   S    
C64   C67   T    
C29   C30   A    
C60   H21   S    
C23   H22   S    
C74   O5    A    
C2    H24   S    
C59   H20   S    
C47   C48   A    
C23   C34   A    
C79   H29   S    
C35   C38   A    
C17   C18   A    
Cr3   O15   S    
C32   C37   A    
C61   H15   S    
C9    C11   T    
C65   H18   S    
C75   H1    S    
C39   C46   A    
C28   O19   A    
Cr2   O19   S    
C55   C57   A    
C43   C44   A    
C70   O2    A    
Cr2   O22   S    
C40   O20   A    
C1    C13   S    
C42   C43   A    
C82   H32   S    
C1    O4    A    
Cr6   O11   S    
C54   C55   A    
Cr2   O12   S    
C14   C19   A    
C80   C81   A    
C34   C67   S    
C5    C8    A    
Cr5   O7    S    
C44   H10   S    
C11   C69   S    
Cr4   O24   S    
C6    C7    A    
Cr4   O11   S    
C48   H7    S    
C4    C64   S    
C50   H9    S    
C33   C38   A    
C47   H6    S    
C62   C68   A    
C81   H31   S    
C32   C33   A    
C63   H19   S    
C36   H41   S    
C2    C3    A    
C58   C59   A    
C42   H8    S    
Cr3   O20   S    
C43   C51   S    
C57   C58   A    
C5    C6    A    
C18   C77   S    
C49   C53   A    
C71   O23   A    
C69   O25   A    
C13   C22   T    
C65   C66   A    
C61   C62   A    
Cr5   O8    S    
C79   C80   A    
C72   O7    A    
C57   H17   S    
Cr6   O2    S    
C20   C21   S    
C28   O18   A    
C52   O17   A    
C14   H28   S    
C21   C24   T    
C29   C37   S    
C14   C15   A    
C15   H12   S    
Cr1   O18   S    
C53   C72   S    
C68   C74   S    
C6    H27   S    
Cr5   O11   S    
C24   C71   S    
C38   C73   S    
