data_mof_unit_46082.cif
_audit_creation_date              2013-03-05T16:03:16-0500
_audit_creation_method            fapswitch 2.2
_symmetry_space_group_name_H-M    P1
_symmetry_Int_Tables_number       1
_space_group_crystal_system       triclinic
_cell_length_a                    15.739075
_cell_length_b                    15.008202
_cell_length_c                    14.013815
_cell_angle_alpha                 90.421721
_cell_angle_beta                  89.696521
_cell_angle_gamma                 90.045313
_cell_volume                      3310.13931229

loop_
_atom_site_label
_atom_site_type_symbol
_atom_site_description
_atom_site_fract_x
_atom_site_fract_y
_atom_site_fract_z
_atom_type_partial_charge
O1    O     O_R   0.500020 0.367860 0.580280 -0.617284
O2    O     O_R   0.499980 0.632140 0.419720 -0.616231
O3    O     O_R   0.500020 0.367840 0.419730 -0.600490
O4    O     O_R   0.499980 0.632160 0.580270 -0.603350
C1    C     C_R   0.499775 0.326984 0.499764 0.983620
C2    C     C_R   0.500899 0.672904 0.500410 0.978100
O5    O     O_R   0.376770 0.500000 0.580260 -0.639839
O6    O     O_R   0.623230 0.500000 0.419740 -0.636542
O7    O     O_R   0.376780 0.499980 0.419710 -0.575005
O8    O     O_R   0.623220 0.500020 0.580290 -0.580005
C3    C     C_R   0.337854 0.499869 0.500202 0.933163
C4    C     C_R   0.662151 0.500147 0.499810 0.918147
Zn1   Zn    Zn3+2 0.499990 0.500020 0.607200 1.002967
Zn2   Zn    Zn3+2 0.500010 0.499980 0.392800 1.008765
C5    C     C_3   0.972609 0.463988 0.579777 0.397686
C6    C     C_3   0.027424 0.534897 0.420244 0.395549
C7    C     C_3   0.028520 0.414511 0.506438 -0.261739
C8    C     C_3   0.971522 0.584366 0.493579 -0.254179
H1    H     H_    0.052851 0.345452 0.513297 0.183709
H2    H     H_    0.947214 0.653429 0.486705 0.194350
H3    H     H_    0.947516 0.412607 0.362421 0.182633
H4    H     H_    0.052516 0.586279 0.637589 0.183183
C9    C     C_1   0.249125 0.499540 0.500605 -0.113169
C10   C     C_1   0.750885 0.499999 0.499434 -0.109611
C11   C     C_3   0.028336 0.548002 0.575305 -0.277249
C12   C     C_3   0.971692 0.450881 0.424708 -0.276619
C13   C     C_3   0.083264 0.499431 0.499960 0.036063
C14   C     C_3   0.916764 0.499455 0.500060 0.034270
C15   C     C_1   0.173964 0.499399 0.500472 0.058562
C16   C     C_1   0.826052 0.499750 0.499570 0.067117
C17   C     C_R   0.435416 0.812293 0.453175 0.123508
C18   C     C_R   0.558536 0.187378 0.556379 0.124319
C19   C     C_R   0.499696 0.768185 0.502178 -0.232213
C20   C     C_R   0.499042 0.231498 0.500072 -0.236649
C21   C     C_R   0.562428 0.813463 0.553679 0.217352
C22   C     C_R   0.437508 0.185871 0.446932 0.209149
C23   C     C_R   0.560328 0.906923 0.558675 -0.030504
C24   C     C_R   0.432473 0.092633 0.453210 -0.031341
C25   C     C_R   0.496470 0.952933 0.506845 -0.018608
C26   C     C_R   0.495620 0.046677 0.506026 -0.017969
C27   C     C_R   0.433720 0.905397 0.455068 0.054584
C28   C     C_R   0.558292 0.094290 0.557696 0.054551
C29   C     C_R   0.620238 0.956053 0.612764 0.222725
C30   C     C_R   0.366144 0.043764 0.409279 0.229334
C31   C     C_R   0.619576 0.048272 0.609720 -0.278725
C32   C     C_R   0.368786 0.951486 0.408921 -0.281631
H5    H     H_    0.667902 0.082984 0.650018 0.154467
H6    H     H_    0.317220 0.916690 0.374148 0.154463
C33   C     C_R   0.456743 0.564653 0.798953 0.008170
C34   C     C_R   0.543267 0.435351 0.201041 0.015332
N1    N     N_R   0.500040 0.500070 0.750030 -0.110823
N2    N     N_R   0.499960 0.499930 0.249970 -0.114145
C35   C     C_R   0.543592 0.435451 0.797038 -0.026538
C36   C     C_R   0.456374 0.564528 0.202957 -0.026253
C37   C     C_R   0.545721 0.433887 0.897952 -0.006771
C38   C     C_R   0.454240 0.566075 0.102037 -0.005246
C39   C     C_R   0.500399 0.499971 0.949389 0.041045
C40   C     C_R   0.499611 0.500025 0.050602 0.039373
C41   C     C_R   0.455724 0.566039 0.899504 0.001231
C42   C     C_R   0.544283 0.433954 0.100486 0.002295
C43   C     C_R   0.590897 0.367982 0.948634 0.209172
C44   C     C_R   0.408969 0.631901 0.051341 0.209875
C45   C     C_R   0.589104 0.368257 0.049249 -0.243685
C46   C     C_R   0.410831 0.631677 0.950732 -0.255170
H7    H     H_    0.422704 0.614859 0.759377 0.131330
H8    H     H_    0.577304 0.385144 0.240616 0.134472
H9    H     H_    0.576451 0.385248 0.755244 0.171860
H10   H     H_    0.423503 0.614743 0.244750 0.171920
H11   H     H_    0.623684 0.317385 0.087419 0.147943
H12   H     H_    0.376189 0.682499 0.912555 0.144968
N3    N     N_2   0.637312 0.300444 0.899163 -0.349207
H13   H     H_    0.638014 0.240102 0.933957 0.229220
C47   C     C_3   0.721532 0.327338 0.869062 -0.697147
H14   H     H_    0.762111 0.340451 0.932310 0.252175
H15   H     H_    0.718719 0.388257 0.824675 0.272915
H16   H     H_    0.750822 0.273250 0.825576 0.247074
N4    N     N_2   0.362235 0.699210 0.100783 -0.347011
H17   H     H_    0.361316 0.759547 0.065989 0.229318
C48   C     C_3   0.278078 0.671902 0.130691 -0.689311
H18   H     H_    0.237742 0.658332 0.067348 0.250764
H19   H     H_    0.248362 0.725944 0.173867 0.247262
H20   H     H_    0.281114 0.611145 0.175311 0.272478
N5    N     N_R   0.943085 0.424544 0.668718 0.212969
O9    O     O_R   0.998043 0.396222 0.730429 -0.373987
O10   O     O_R   0.862335 0.417937 0.687433 -0.421166
N6    N     N_R   0.056952 0.574367 0.331314 0.213240
O11   O     O_R   0.001992 0.602568 0.269541 -0.370219
O12   O     O_R   0.137707 0.581236 0.312730 -0.419298
N7    N     N_2   0.374030 0.761404 0.401311 -0.298681
H21   H     H_    0.361680 0.782869 0.333071 0.234561
C49   C     C_3   0.299103 0.736994 0.455342 -0.763685
H22   H     H_    0.261844 0.797243 0.475064 0.238252
H23   H     H_    0.317215 0.701113 0.521223 0.226534
H24   H     H_    0.258657 0.692195 0.411505 0.269410
N8    N     N_2   0.618486 0.238280 0.610374 -0.300364
H25   H     H_    0.626413 0.219266 0.680292 0.232571
C50   C     C_3   0.696694 0.259170 0.560686 -0.754820
H26   H     H_    0.733496 0.197456 0.545848 0.239922
H27   H     H_    0.735687 0.304506 0.605556 0.269779
H28   H     H_    0.683013 0.293282 0.492385 0.226115
N9    N     N_R   0.632327 0.763861 0.591828 0.223733
O13   O     O_R   0.701197 0.753369 0.541281 -0.394727
O14   O     O_R   0.624838 0.723559 0.673336 -0.368670
N10   N     N_R   0.382289 0.234953 0.385202 0.237332
O15   O     O_R   0.392348 0.229514 0.293127 -0.368063
O16   O     O_R   0.327540 0.291140 0.420828 -0.407903
N11   N     N_2   0.680308 0.914217 0.673273 -0.250619
H29   H     H_    0.740797 0.940178 0.667015 0.232855
C51   C     C_3   0.653159 0.908783 0.771875 -0.672471
H30   H     H_    0.699957 0.869238 0.812723 0.254923
H31   H     H_    0.590271 0.875382 0.777121 0.254312
H32   H     H_    0.648798 0.976543 0.804095 0.204472
N12   N     N_2   0.293652 0.085944 0.369471 -0.251583
H33   H     H_    0.271733 0.055541 0.308061 0.232638
C52   C     C_3   0.225983 0.102233 0.437657 -0.676623
H34   H     H_    0.174734 0.141049 0.403154 0.250104
H35   H     H_    0.249867 0.141230 0.499682 0.255822
H36   H     H_    0.199152 0.038057 0.463087 0.211064

loop_
_geom_bond_atom_site_label_1
_geom_bond_atom_site_label_2
_geom_bond_distance
_ccdc_geom_bond_type
H3    C12   1.110167 S    
N9    O13   1.300770 A    
C13   C15   1.427591 S    
N11   C51   1.447033 S    
C47   H14   1.111526 S    
C44   N4    1.423754 S    
N8    H25   1.030785 S    
C21   N9    1.436556 S    
C33   N1    1.363911 A    
N10   O16   1.301256 A    
C50   H26   1.110559 S    
C5    C14   1.524386 S    
C25   C27   1.417650 A    
N4    H17   1.031773 S    
O5    C3    1.281060 A    
C41   C46   1.403695 A    
C27   C32   1.398527 A    
C33   H7    1.082731 S    
C42   C45   1.403817 A    
O1    C1    1.280369 A    
C7    C12   1.559035 S    
C9    C15   1.182981 T    
C21   C23   1.404305 A    
C51   H31   1.111486 S    
N6    O12   1.300223 A    
C39   C41   1.408133 A    
C36   H10   1.081468 S    
C40   C42   1.408125 A    
C52   H34   1.110309 S    
O4    Zn1   2.021500 S    
C43   C45   1.410102 A    
C44   C46   1.410049 A    
C7    H1    1.110227 S    
Zn1   N1    2.001591 S    
Zn2   N2    2.001594 S    
C45   H11   1.083990 S    
N2    C36   1.363750 A    
C14   C16   1.427782 S    
C17   N7    1.429392 S    
H4    C11   1.110173 S    
C34   N2    1.363982 A    
N11   H29   1.031948 S    
C17   C19   1.395878 A    
C46   H12   1.083999 S    
N7    C49   1.446440 S    
C20   C22   1.400205 A    
C43   N3    1.423806 S    
C6    C13   1.524338 S    
C31   H5    1.080929 S    
N9    O14   1.301190 A    
C6    N6    1.457513 S    
C47   H15   1.110645 S    
O2    C2    1.281847 A    
C8    C11   1.558832 S    
O2    Zn2   2.016311 S    
N10   O15   1.301130 A    
C50   H27   1.110008 S    
C30   C32   1.385561 A    
C32   H6    1.081043 S    
N4    C48   1.447022 S    
C6    C12   1.536915 S    
C36   C38   1.415214 A    
C7    C13   1.540827 S    
C8    C14   1.540830 S    
O4    C2    1.279263 A    
C51   H32   1.111661 S    
C49   H22   1.110559 S    
N3    C47   1.446954 S    
N6    O11   1.300255 A    
C5    N5    1.457464 S    
C52   H35   1.111317 S    
N1    C35   1.363677 A    
C28   C31   1.398149 A    
C18   C20   1.397998 A    
C23   C29   1.416182 A    
O7    Zn2   1.973886 S    
C24   C30   1.416239 A    
C49   H23   1.110855 S    
C29   C31   1.385062 A    
N5    O9    1.300266 A    
O6    C4    1.281246 A    
C52   H36   1.111668 S    
C1    C20   1.433146 S    
C29   N11   1.422824 S    
C34   H8    1.082719 S    
O3    Zn2   2.021498 S    
O8    C4    1.280690 A    
N5    O10   1.300197 A    
C30   N12   1.423665 S    
O7    C3    1.280795 A    
C47   H16   1.110478 S    
C38   C44   1.416061 A    
O1    Zn1   2.016312 S    
C35   C37   1.415138 A    
C22   C24   1.404899 A    
C25   C26   1.407129 A    
C50   H28   1.110945 S    
C48   H19   1.110434 S    
N12   H33   1.031959 S    
C5    C7    1.536975 S    
O6    Zn2   1.977735 S    
C17   C27   1.397648 A    
C26   C28   1.416603 A    
O3    C1    1.282196 A    
O8    Zn1   1.973887 S    
C48   H20   1.110654 S    
N8    C50   1.446315 S    
C11   C13   1.540658 S    
C4    C10   1.396567 S    
C12   C14   1.540750 S    
C33   C41   1.409106 A    
C2    C19   1.430163 S    
C22   N10   1.436896 S    
C34   C42   1.409174 A    
C37   C39   1.413232 A    
N3    H13   1.031784 S    
C23   C25   1.425053 A    
C51   H30   1.110237 S    
C49   H24   1.109987 S    
C24   C26   1.423983 A    
C39   C40   1.418373 A    
C37   C43   1.416043 A    
C3    C9    1.396491 S    
C19   C21   1.398842 A    
C38   C40   1.413253 A    
C8    H2    1.110180 S    
C35   H9    1.081254 S    
C10   C16   1.183091 T    
C5    C11   1.536860 S    
C48   H18   1.111563 S    
O5    Zn1   1.977735 S    
C18   N8    1.429829 S    
C6    C8    1.536798 S    
C18   C28   1.397336 A    
N7    H21   1.030869 S    
N12   C52   1.446846 S    
