data_mof_unit_35960.cif
_audit_creation_date              2012-12-10T18:31:53-0500
_audit_creation_method            fapswitch 2.2
_symmetry_space_group_name_H-M    P1
_symmetry_Int_Tables_number       1
_space_group_crystal_system       triclinic
_cell_length_a                    10.694547
_cell_length_b                    14.974077
_cell_length_c                    15.498518
_cell_angle_alpha                 81.487659
_cell_angle_beta                  90.755647
_cell_angle_gamma                 104.69873
_cell_volume                      2373.50500608

loop_
_atom_site_label
_atom_site_type_symbol
_atom_type_description
_atom_site_fract_x
_atom_site_fract_y
_atom_site_fract_z
_atom_type_partial_charge
C1    C     C_R   0.480640 0.440654 0.662641 0.863055
C2    C     C_3   0.118726 0.493637 0.504421 0.000324
C3    C     C_3   0.084025 0.539919 0.412780 0.352957
C4    C     C_3   0.093007 0.555915 0.573052 -0.104141
C5    C     C_R   0.483622 0.403704 0.756366 -0.128203
C6    C     C_R   0.551242 0.599181 0.245240 -0.092083
C7    C     C_R   0.542665 0.294774 0.873564 0.194471
C8    C     C_R   0.494227 0.312294 0.788711 0.191986
C9    C     C_R   0.493908 0.468401 0.813206 -0.339828
C10   C     C_R   0.537144 0.452834 0.897884 0.046300
C11   C     C_R   0.560328 0.364513 0.928985 0.106616
C12   C     C_R   0.740965 0.498916 0.504440 0.897005
C13   C     C_R   0.557747 0.523617 0.952228 0.098476
C14   C     C_R   0.582741 0.500571 0.041451 0.085154
C15   C     C_R   0.608841 0.413571 0.070629 -0.245926
C16   C     C_R   0.599107 0.347523 0.015408 -0.218635
C17   C     C_R   0.555297 0.616965 0.920488 -0.236244
C18   C     C_R   0.571095 0.683667 0.975607 -0.236833
C19   C     C_R   0.578167 0.657892 0.065022 0.122230
C20   C     C_R   0.579498 0.565274 0.098888 0.097340
C21   C     C_R   0.577756 0.722809 0.121073 -0.214041
C22   C     C_R   0.564397 0.694919 0.211460 0.200430
C23   C     C_R   0.523440 0.559479 0.337826 0.846481
C24   C     C_R   0.565546 0.537622 0.189006 -0.340291
C25   C     C_R   0.705994 0.844331 0.630887 -0.396680
C26   C     C_R   0.672860 0.754667 0.608056 0.626372
C27   C     C_R   0.501872 0.790983 0.521798 -0.142934
C28   C     C_R   0.528659 0.881549 0.545148 -0.060059
C29   C     C_R   0.634590 0.908129 0.599858 -0.001554
C30   C     C_R   0.458080 0.947254 0.512605 0.103697
C31   C     C_R   0.500598 0.041283 0.529801 0.021892
C32   C     C_R   0.604622 0.064259 0.586351 -0.351744
C33   C     C_R   0.671012 0.998897 0.620905 0.499655
C34   C     C_R   0.257182 0.497394 0.502636 0.883660
C35   C     C_R   0.347475 0.922150 0.462069 -0.211416
C36   C     C_R   0.289961 0.988834 0.420475 -0.218721
C37   C     C_R   0.338514 0.082165 0.429443 0.128504
C38   C     C_R   0.440213 0.109642 0.486995 0.030201
C39   C     C_R   0.287833 0.148485 0.378879 -0.310004
C40   C     C_R   0.336424 0.242409 0.385469 0.328538
C41   C     C_R   0.478802 0.205237 0.496482 -0.111764
C42   C     C_3   0.887625 0.393961 0.535726 0.036430
C43   C     C_3   0.030750 0.390437 0.530958 0.036610
C44   C     C_3   0.936971 0.534898 0.411816 -0.106778
C45   C     C_3   0.950540 0.559941 0.570504 -0.463210
C46   C     C_3   0.876509 0.496730 0.506010 0.015246
H1    H     H_    0.831511 0.349679 0.489673 0.196849
H2    H     H_    0.151471 0.629034 0.552878 0.180240
H3    H     H_    0.927465 0.607896 0.394848 0.123235
H4    H     H_    0.134377 0.615977 0.406076 0.006258
H5    H     H_    0.618916 0.281938 0.042720 0.162761
H6    H     H_    0.557514 0.465973 0.216330 0.168359
H7    H     H_    0.569868 0.754487 0.948557 0.152728
H8    H     H_    0.467094 0.531826 0.788876 0.173401
H9    H     H_    0.641071 0.395686 0.135706 0.148803
H10   H     H_    0.543378 0.641827 0.853091 0.135321
H11   H     H_    0.581531 0.794512 0.093886 0.142624
H12   H     H_    0.550158 0.231966 0.541967 0.140311
H13   H     H_    0.208515 0.967336 0.379157 0.140920
H14   H     H_    0.788682 0.864306 0.671135 0.188160
H15   H     H_    0.427286 0.765962 0.477583 0.143444
H16   H     H_    0.060590 0.363570 0.596649 0.173663
H17   H     H_    0.638498 0.132811 0.604529 0.152221
H18   H     H_    0.303185 0.851372 0.452492 0.126449
H19   H     H_    0.214018 0.127302 0.332009 0.147783
H20   H     H_    0.946869 0.633548 0.548872 0.192785
H21   H     H_    0.902877 0.539388 0.636287 0.221388
N1    N     N_R   0.573860 0.731700 0.552730 -0.130069
N2    N     N_R   0.426060 0.268290 0.447230 -0.102309
O1    O     O_R   0.462770 0.383110 0.605620 -0.618209
O2    O     O_R   0.510160 0.531900 0.639510 -0.601810
O3    O     O_R   0.661510 0.425600 0.483070 -0.636460
O4    O     O_R   0.708900 0.574390 0.516960 -0.569615
O5    O     O_R   0.489840 0.468100 0.360490 -0.620917
O6    O     O_R   0.537230 0.616890 0.394380 -0.608732
O7    O     O_R   0.291100 0.425610 0.483040 -0.608416
O8    O     O_R   0.338490 0.574400 0.516930 -0.650526
Zn1   Zn    Zn3+2 0.468350 0.400660 0.477370 0.917072
Zn2   Zn    Zn3+2 0.531650 0.599340 0.522630 0.955533
C47   C     C_3   0.560523 0.768123 0.268085 -0.888597
H22   H     H_    0.642351 0.775082 0.313549 0.258997
H23   H     H_    0.569622 0.837921 0.228822 0.223453
H24   H     H_    0.467304 0.749470 0.305300 0.234022
C48   C     C_3   0.580809 0.204309 0.903959 -0.937424
H25   H     H_    0.583976 0.162494 0.851160 0.263573
H26   H     H_    0.680615 0.220080 0.928906 0.237034
H27   H     H_    0.512616 0.160919 0.956359 0.239836
C49   C     C_3   0.445580 0.232738 0.736892 -0.879333
H28   H     H_    0.363305 0.243354 0.696027 0.254733
H29   H     H_    0.525359 0.224630 0.696305 0.237737
H30   H     H_    0.403958 0.166203 0.780486 0.237752
C50   C     C_3   0.824284 0.348285 0.626284 -0.990767
H31   H     H_    0.829860 0.274597 0.639881 0.245101
H32   H     H_    0.872060 0.384165 0.679829 0.256700
H33   H     H_    0.720586 0.347729 0.628538 0.260204
O9    O     O_3   0.771382 0.023711 0.677099 -0.647780
C51   C     C_3   0.886857 0.066083 0.627614 0.048830
H34   H     H_    0.892264 0.141151 0.607756 0.148788
H35   H     H_    0.893251 0.033396 0.568028 0.134924
C52   C     C_3   0.002498 0.056673 0.683983 -0.314879
H36   H     H_    0.000926 0.091279 0.742506 0.230394
H37   H     H_    0.995592 0.981478 0.706166 0.215575
C53   C     C_3   0.130296 0.100515 0.633508 -0.961074
H38   H     H_    0.132442 0.069349 0.572988 0.273062
H39   H     H_    0.211502 0.087514 0.674564 0.268358
H40   H     H_    0.143901 0.177048 0.616298 0.263435
C54   C     C_3   0.293206 0.312559 0.320278 -0.837954
H41   H     H_    0.261235 0.364167 0.351821 0.294738
H42   H     H_    0.373333 0.347986 0.272929 0.233234
H43   H     H_    0.210431 0.278823 0.282226 0.203369
O10   O     O_3   0.747257 0.692006 0.632833 -0.627822
C55   C     C_3   0.765615 0.678896 0.724135 0.056572
H44   H     H_    0.731627 0.602939 0.748230 0.182240
H45   H     H_    0.709961 0.714494 0.761653 0.119122
C56   C     C_3   0.909308 0.711306 0.743678 -0.376029
H46   H     H_    0.965588 0.675477 0.707432 0.229129
H47   H     H_    0.945233 0.787565 0.721931 0.213176
C57   C     C_3   0.932460 0.690074 0.841096 -0.932742
H48   H     H_    0.879038 0.726874 0.878759 0.271915
H49   H     H_    0.037292 0.714103 0.853421 0.262553
H50   H     H_    0.899911 0.613736 0.863949 0.267221
C58   C     C_3   0.042131 0.315392 0.474102 -0.905131
H51   H     H_    0.037797 0.339132 0.403561 0.295095
H52   H     H_    0.129353 0.289481 0.488360 0.268002
H53   H     H_    0.960990 0.252205 0.489726 0.204100
C59   C     C_3   0.864431 0.482507 0.339292 -0.798871
H54   H     H_    0.869559 0.408814 0.347295 0.252282
H55   H     H_    0.761836 0.484917 0.337068 0.228584
H56   H     H_    0.905570 0.517114 0.274295 0.240445
O11   O     O_3   0.121300 0.497231 0.344321 -0.646129
C60   C     C_3   0.213109 0.560627 0.284704 0.099548
H57   H     H_    0.266520 0.519135 0.252946 0.168755
H58   H     H_    0.286707 0.610238 0.317648 0.116785
C61   C     C_3   0.146315 0.612844 0.213404 -0.382309
H59   H     H_    0.079518 0.561435 0.178267 0.230790
H60   H     H_    0.089932 0.653836 0.243297 0.214006
C62   C     C_3   0.243440 0.679051 0.147126 -0.935981
H61   H     H_    0.308786 0.733800 0.179325 0.270566
H62   H     H_    0.191154 0.713594 0.095507 0.263580
H63   H     H_    0.300930 0.639729 0.116015 0.277253
C63   C     C_3   0.134314 0.528108 0.667219 -0.897812
H64   H     H_    0.077510 0.458368 0.697437 0.240889
H65   H     H_    0.238036 0.528374 0.669219 0.251539
H66   H     H_    0.120658 0.579488 0.708696 0.246853

loop_
_geom_bond_atom_site_label_1
_geom_bond_atom_site_label_2
_ccdc_geom_bond_type
C44   H3    S    
C24   H6    S    
C59   H54   S    
O1    Zn1   S    
C3    O11   S    
C54   H42   S    
C19   C20   A    
C48   H27   S    
C36   H13   S    
C61   C62   S    
C55   H45   S    
C51   H34   S    
C7    C8    A    
C45   C46   S    
C7    C11   A    
C62   H62   S    
C44   C59   S    
C1    O2    A    
C30   C35   A    
C1    C5    S    
C36   C37   A    
C19   C21   A    
O7    Zn1   S    
C41   H12   S    
C63   H65   S    
C34   O8    A    
C30   C31   A    
C56   H46   S    
C6    C22   A    
C29   C33   A    
C18   C19   A    
C42   C46   S    
C57   H48   S    
C52   H36   S    
O3    Zn1   S    
C27   N1    A    
C27   H15   S    
C18   H7    S    
C45   H20   S    
C20   C24   A    
C56   H47   S    
C12   O4    A    
C45   H21   S    
C54   H41   S    
C16   H5    S    
C35   H18   S    
C25   H14   S    
C9    C10   A    
C2    C34   S    
N1    Zn2   S    
C7    C48   S    
C12   O3    A    
C62   H61   S    
C21   C22   A    
C39   H19   S    
N2    Zn1   S    
C60   C61   S    
C47   H24   S    
O2    Zn2   S    
C55   H44   S    
C51   H35   S    
C3    H4    S    
C44   C46   S    
C4    C45   S    
O8    Zn2   S    
C25   C29   A    
C62   H63   S    
C3    C44   S    
C40   N2    A    
C14   C20   A    
C48   H25   S    
C38   C41   A    
C47   H23   S    
C63   H66   S    
C4    C63   S    
C61   H60   S    
C59   H56   S    
C25   C26   A    
C52   C53   S    
C8    C49   S    
C57   H50   S    
C15   H9    S    
C2    C4    S    
C5    C9    A    
C37   C38   A    
C11   C16   A    
C31   C32   A    
C17   H10   S    
C49   H30   S    
C2    C43   S    
C56   C57   S    
C6    C24   A    
O9    C51   S    
C52   H37   S    
C17   C18   A    
O4    Zn2   S    
C53   H39   S    
C43   C58   S    
C40   C54   S    
C12   C46   S    
C49   H29   S    
C54   H43   S    
C42   C43   S    
C23   O5    A    
C58   H52   S    
C60   H57   S    
C33   O9    S    
C39   C40   A    
C51   C52   S    
C41   N2    A    
C4    H2    S    
C28   C29   A    
C59   H55   S    
O10   C55   S    
C32   H17   S    
C23   O6    A    
C47   H22   S    
C60   H58   S    
C10   C13   A    
C5    C8    A    
C61   H59   S    
C9    H8    S    
C21   H11   S    
C1    O1    A    
C31   C38   A    
C13   C17   A    
C26   N1    A    
C32   C33   A    
C58   H53   S    
C28   C30   A    
O11   C60   S    
C22   C47   S    
C37   C39   A    
C63   H64   S    
C50   H32   S    
C6    C23   S    
C50   H31   S    
C2    C3    S    
C53   H40   S    
C42   C50   S    
C42   H1    S    
C50   H33   S    
C57   H49   S    
C10   C11   A    
C49   H28   S    
O5    Zn1   S    
C53   H38   S    
C14   C15   A    
C48   H26   S    
C35   C36   A    
C58   H51   S    
C13   C14   A    
O6    Zn2   S    
C26   O10   S    
C55   C56   S    
C15   C16   A    
C43   H16   S    
C34   O7    A    
C27   C28   A    
