data_mof_unit_19552.cif
_audit_creation_date              2012-10-26T21:20:00-0400
_audit_creation_method            fapswitch 2.2
_symmetry_space_group_name_H-M    P1
_symmetry_Int_Tables_number       1
_space_group_crystal_system       triclinic
_cell_length_a                    13.049127
_cell_length_b                    10.790631
_cell_length_c                    9.528774
_cell_angle_alpha                 90.157971
_cell_angle_beta                  95.616292
_cell_angle_gamma                 90.573331
_cell_volume                      1335.21351496

loop_
_atom_site_label
_atom_site_type_symbol
_atom_type_description
_atom_site_fract_x
_atom_site_fract_y
_atom_site_fract_z
_atom_type_partial_charge
C1    C     C_R   0.501781 0.262408 0.500375 0.556048
C2    C     C_R   0.699298 0.498366 0.525210 0.576060
C3    C     C_R   0.811896 0.498782 0.536796 0.021296
C4    C     C_R   0.186846 0.492741 0.458014 0.012506
C5    C     C_R   0.025322 0.492777 0.304587 0.026203
C6    C     C_R   0.974002 0.556503 0.669767 0.007357
C7    C     C_R   0.132943 0.507229 0.323471 0.374711
C8    C     C_R   0.866336 0.555142 0.655079 0.364520
C9    C     C_R   0.130271 0.477439 0.575927 -0.065752
C10   C     C_R   0.865532 0.453292 0.424794 -0.036980
C11   C     C_R   0.025629 0.505967 0.559411 -0.034327
C12   C     C_R   0.497893 0.737503 0.499822 0.586852
C13   C     C_R   0.971122 0.482706 0.426850 -0.029916
C14   C     C_R   0.430767 0.065840 0.407772 0.355321
C15   C     C_R   0.568404 0.933812 0.593664 0.368038
C16   C     C_R   0.425516 0.936785 0.406860 -0.062093
C17   C     C_R   0.572404 0.062868 0.596788 -0.058192
C18   C     C_3   0.817800 0.355454 0.321087 -0.269391
C19   C     C_3   0.779138 0.241203 0.395088 -0.431964
C20   C     C_3   0.169309 0.399772 0.702853 -0.235356
C21   C     C_3   0.198879 0.269415 0.658373 -0.344560
C22   C     C_3   0.971850 0.513668 0.157544 -0.230792
C23   C     C_R   0.496208 0.871290 0.499893 -0.025031
C24   C     C_3   0.995885 0.412139 0.053038 -0.413079
C25   C     C_3   0.031076 0.632367 0.788474 -0.245806
C26   C     C_3   0.075011 0.752004 0.732169 -0.413708
C27   C     C_3   0.340757 0.872858 0.311584 -0.230175
C28   C     C_3   0.367908 0.867022 0.159428 -0.358955
C29   C     C_3   0.653330 0.125850 0.699397 -0.238458
C30   C     C_3   0.622341 0.122338 0.849802 -0.362857
C31   C     C_R   0.503187 0.128524 0.501305 -0.027878
C32   C     C_R   0.441184 0.416728 0.066262 0.473660
C33   C     C_R   0.559447 0.582805 0.933969 0.466025
C34   C     C_R   0.442791 0.415299 0.918079 0.399998
C35   C     C_R   0.560028 0.582160 0.082694 0.409199
C36   C     C_R   0.300252 0.496969 0.474063 0.547565
Cu1   Cu    Cu3+1 0.500000 0.500020 0.640660 1.111581
Cu2   Cu    Cu3+1 0.500000 0.499980 0.359340 1.136763
F1    F     F_    0.814498 0.609930 0.755215 -0.564459
F2    F     F_    0.184551 0.534130 0.209922 -0.635504
F3    F     F_    0.361746 0.131093 0.321680 -0.583474
F4    F     F_    0.637634 0.868372 0.679257 -0.550498
F5    F     F_    0.381161 0.333635 0.127388 -0.509732
F6    F     F_    0.619757 0.665546 0.872892 -0.477292
F7    F     F_    0.389028 0.326305 0.841928 -0.631293
F8    F     F_    0.621292 0.663887 0.160803 -0.577772
H1    H     H_    0.839054 0.207510 0.476560 0.149979
H2    H     H_    0.107539 0.384986 0.773507 0.127299
H3    H     H_    0.076302 0.421076 0.025962 0.217020
H4    H     H_    0.986057 0.318048 0.096272 0.149212
H5    H     H_    0.943678 0.421003 0.954434 0.147097
H6    H     H_    0.887411 0.522467 0.157764 0.169405
H7    H     H_    0.998100 0.604285 0.118232 0.179528
H8    H     H_    0.133542 0.731382 0.658503 0.148581
H9    H     H_    0.012412 0.807506 0.676467 0.181881
H10   H     H_    0.112492 0.807797 0.821325 0.145344
H11   H     H_    0.979003 0.658285 0.868827 0.214540
H12   H     H_    0.708353 0.262311 0.444491 0.137387
H13   H     H_    0.094287 0.580197 0.845903 0.135976
H14   H     H_    0.441236 0.816960 0.153403 0.199877
H15   H     H_    0.305858 0.817080 0.093233 0.142624
H16   H     H_    0.375835 0.961837 0.116495 0.212935
H17   H     H_    0.324521 0.777798 0.348224 0.145350
H18   H     H_    0.267409 0.923811 0.314941 0.187892
H19   H     H_    0.681144 0.172254 0.921554 0.122774
H20   H     H_    0.546972 0.167969 0.854930 0.208871
H21   H     H_    0.616628 0.025260 0.886805 0.224433
H22   H     H_    0.728445 0.078779 0.696044 0.189795
H23   H     H_    0.760162 0.165970 0.316766 0.158193
H24   H     H_    0.667705 0.223495 0.671248 0.128415
H25   H     H_    0.755581 0.394432 0.247090 0.184489
H26   H     H_    0.876208 0.319265 0.256201 0.150926
H27   H     H_    0.267473 0.271683 0.598284 0.212592
H28   H     H_    0.216695 0.211256 0.753417 0.195291
H29   H     H_    0.133706 0.225248 0.592044 0.131117
H30   H     H_    0.233035 0.447327 0.767419 0.223569
N1    N     N_R   0.500030 0.500030 0.852080 -0.309600
N2    N     N_R   0.499970 0.499970 0.147920 -0.310614
O1    O     O_R   0.499990 0.319660 0.618740 -0.488283
O2    O     O_R   0.500010 0.680340 0.381260 -0.478163
O3    O     O_R   0.499990 0.319630 0.381170 -0.429372
O4    O     O_R   0.500010 0.680370 0.618830 -0.420086
O5    O     O_R   0.349000 0.499990 0.599490 -0.524935
O6    O     O_R   0.651000 0.500010 0.400510 -0.494605
O7    O     O_R   0.348990 0.499960 0.361920 -0.396904
O8    O     O_R   0.651010 0.500040 0.638080 -0.418242

loop_
_geom_bond_atom_site_label_1
_geom_bond_atom_site_label_2
_ccdc_geom_bond_type
C4    C36   S    
C17   C29   S    
C2    O6    A    
C14   C31   A    
C26   H9    S    
Cu1   O1    S    
C12   C23   S    
Cu1   Cu2   S    
C24   H3    S    
C10   C18   S    
C34   N1    A    
C19   H1    S    
C6    C25   S    
C36   O5    A    
C1    O3    A    
C21   H27   S    
C1    C31   S    
C20   H30   S    
C18   C19   S    
C5    C22   S    
C7    F2    S    
C8    F1    S    
C5    C13   A    
C30   H21   S    
C28   H15   S    
C16   C27   S    
C15   C23   A    
C24   H4    S    
C25   H11   S    
C4    C7    A    
C26   H8    S    
C22   H7    S    
C28   H14   S    
C19   H12   S    
C18   H26   S    
Cu2   O7    S    
Cu1   O8    S    
C3    C8    A    
C6    C11   A    
C5    C7    A    
C6    C8    A    
Cu2   N2    S    
C25   C26   S    
Cu1   N1    S    
C21   H28   S    
C32   C34   A    
C29   C30   S    
C29   H22   S    
C9    C20   S    
C12   O4    A    
C34   F7    S    
C20   H2    S    
C9    C11   A    
C30   H20   S    
C27   H17   S    
C14   F3    S    
C16   C23   A    
Cu2   O3    S    
C17   C31   A    
C14   C16   A    
Cu1   O4    S    
C19   H23   S    
C22   H6    S    
C29   H24   S    
C18   H25   S    
C15   C17   A    
Cu2   O6    S    
C33   F6    S    
C15   F4    S    
C10   C13   A    
C26   H10   S    
C36   O7    A    
C21   H29   S    
C35   N2    A    
C2    C3    S    
C3    C10   A    
C11   C13   A    
C33   N1    A    
Cu2   O2    S    
C24   H5    S    
C1    O1    A    
C12   O2    A    
C33   C35   A    
C32   F5    S    
C2    O8    A    
C22   C24   S    
C30   H19   S    
C27   H18   S    
C32   N2    A    
C20   C21   S    
C27   C28   S    
Cu1   O5    S    
C25   H13   S    
C4    C9    A    
C35   F8    S    
C28   H16   S    
