data_mof_unit_6374.cif
_audit_creation_date              2013-03-05T15:49:31-0500
_audit_creation_method            fapswitch 2.2
_symmetry_space_group_name_H-M    P1
_symmetry_Int_Tables_number       1
_space_group_crystal_system       triclinic
_cell_length_a                    19.346415
_cell_length_b                    12.987563
_cell_length_c                    11.724841
_cell_angle_alpha                 99.202238
_cell_angle_beta                  92.844931
_cell_angle_gamma                 91.494128
_cell_volume                      2902.78800702

loop_
_atom_site_label
_atom_site_type_symbol
_atom_site_description
_atom_site_fract_x
_atom_site_fract_y
_atom_site_fract_z
_atom_type_partial_charge
O1    O     O_R   0.503640 0.354460 0.582000 -0.521291
O2    O     O_R   0.496360 0.645540 0.418000 -0.521309
O3    O     O_R   0.494980 0.341410 0.386200 -0.592391
O4    O     O_R   0.505020 0.658590 0.613800 -0.592347
C1    C     C_R   0.499438 0.299740 0.479250 0.869660
C2    C     C_R   0.500560 0.700260 0.520750 0.869812
O5    O     O_R   0.404470 0.506520 0.597930 -0.520808
O6    O     O_R   0.595530 0.493480 0.402070 -0.520803
O7    O     O_R   0.395820 0.493460 0.402130 -0.598351
O8    O     O_R   0.604180 0.506540 0.597870 -0.598405
C3    C     C_R   0.367619 0.502724 0.501327 0.857562
C4    C     C_R   0.632382 0.497245 0.498668 0.857458
Cu1   Cu    Cu3+1 0.505120 0.507730 0.615930 1.075531
Cu2   Cu    Cu3+1 0.494880 0.492270 0.384070 1.075550
C5    C     C_R   0.257380 0.555913 0.599312 0.370088
C6    C     C_R   0.742604 0.444266 0.400503 0.370070
C7    C     C_R   0.184917 0.552294 0.595685 -0.216708
C8    C     C_R   0.815063 0.447957 0.404057 -0.216648
H1    H     H_    0.158701 0.588168 0.670751 0.191213
H2    H     H_    0.841265 0.412324 0.328867 0.191192
C9    C     C_R   0.145974 0.505554 0.495876 -0.046584
C10   C     C_R   0.854026 0.494443 0.503944 -0.046577
C11   C     C_R   0.180334 0.462145 0.396779 0.026619
C12   C     C_R   0.819702 0.537459 0.603239 0.026750
C13   C     C_R   0.252547 0.460996 0.402299 -0.247839
C14   C     C_R   0.747482 0.538591 0.597783 -0.247642
H3    H     H_    0.278447 0.426072 0.326372 0.165735
H4    H     H_    0.721593 0.573229 0.673840 0.165838
C15   C     C_R   0.291658 0.506717 0.502455 -0.121646
C16   C     C_R   0.708346 0.493193 0.497516 -0.121808
N1    N     N_R   0.031853 0.419158 0.440882 -0.213801
N2    N     N_R   0.968131 0.580923 0.558823 -0.213705
N3    N     N_R   0.963163 0.416729 0.442504 -0.224576
N4    N     N_R   0.036823 0.583352 0.557197 -0.224560
C17   C     C_R   0.930068 0.497425 0.501894 0.410633
C18   C     C_R   0.069921 0.502650 0.497813 0.410916
C19   C     C_R   0.504121 0.812987 0.531434 -0.104000
C20   C     C_R   0.495873 0.187013 0.468568 -0.104024
C21   C     C_R   0.436773 0.025215 0.383590 -0.105866
C22   C     C_R   0.563217 0.974787 0.616417 -0.105852
C23   C     C_R   0.447645 0.131439 0.387703 -0.243498
C24   C     C_R   0.552348 0.868562 0.612300 -0.243482
C25   C     C_R   0.535621 0.136029 0.544813 0.327788
C26   C     C_R   0.464370 0.863971 0.455192 0.327839
C27   C     C_R   0.524917 0.028027 0.540886 0.008495
C28   C     C_R   0.475074 0.971974 0.459119 0.008502
H5    H     H_    0.583667 0.828818 0.669804 0.162129
H6    H     H_    0.416327 0.171184 0.330199 0.162121
H7    H     H_    0.397440 0.985988 0.321905 0.201724
H8    H     H_    0.602549 0.014016 0.678103 0.201735
N5    N     N_R   0.512830 0.519350 0.790130 -0.234017
N6    N     N_R   0.487170 0.480650 0.209870 -0.234025
C29   C     C_R   0.433983 0.401791 0.026162 -0.207697
C30   C     C_R   0.566020 0.598205 0.973837 -0.207670
C31   C     C_R   0.440511 0.411243 0.147014 0.032050
C32   C     C_R   0.559497 0.588746 0.852985 0.031970
C33   C     C_R   0.528974 0.542935 0.155116 0.562420
C34   C     C_R   0.471016 0.457079 0.844886 0.562372
C35   C     C_R   0.524083 0.535786 0.032620 -0.062298
C36   C     C_R   0.475915 0.464217 0.967380 -0.062350
H9    H     H_    0.592034 0.637194 0.809199 0.133745
H10   H     H_    0.407979 0.362786 0.190798 0.133773
H11   H     H_    0.396119 0.345624 0.979722 0.204601
H12   H     H_    0.603886 0.654369 0.020276 0.204570
N7    N     N_R   0.294621 0.614394 0.698958 0.148602
O9    O     O_R   0.342353 0.683343 0.685790 -0.320180
O10   O     O_R   0.272339 0.613368 0.801702 -0.313725
N8    N     N_R   0.705353 0.385961 0.300761 0.148684
O11   O     O_R   0.657671 0.316883 0.313777 -0.320174
O12   O     O_R   0.727605 0.387235 0.198042 -0.313676
C37   C     C_R   0.142924 0.425455 0.283722 0.123425
C38   C     C_R   0.101031 0.493914 0.232156 -0.095585
C39   C     C_R   0.066428 0.460360 0.124804 -0.112829
C40   C     C_R   0.073671 0.358538 0.067590 -0.088085
C41   C     C_R   0.115811 0.290201 0.117768 -0.101819
C42   C     C_R   0.150595 0.323512 0.225338 -0.138272
H13   H     H_    0.095373 0.573327 0.274999 0.137577
H14   H     H_    0.034252 0.513735 0.086227 0.123664
H15   H     H_    0.046827 0.332708 0.984312 0.132644
H16   H     H_    0.121564 0.211448 0.073275 0.146022
H17   H     H_    0.183068 0.269881 0.263408 0.135480
C43   C     C_R   0.857153 0.573726 0.716384 0.123563
C44   C     C_R   0.849061 0.675204 0.775712 -0.138460
C45   C     C_R   0.883833 0.708070 0.883382 -0.101626
C46   C     C_R   0.926411 0.639765 0.932712 -0.088157
C47   C     C_R   0.934084 0.538400 0.874570 -0.112896
C48   C     C_R   0.899460 0.505266 0.767149 -0.095362
H18   H     H_    0.816255 0.728826 0.738317 0.135226
H19   H     H_    0.877732 0.786456 0.928610 0.146047
H20   H     H_    0.953255 0.665260 0.016057 0.132557
H21   H     H_    0.966604 0.485044 0.912483 0.123720
H22   H     H_    0.905434 0.426170 0.723630 0.137475
N9    N     N_R   0.412615 0.806308 0.376216 0.113303
O13   O     O_R   0.362994 0.754588 0.415433 -0.345765
O14   O     O_R   0.419099 0.796533 0.265111 -0.311922
N10   N     N_R   0.587371 0.193691 0.623798 0.113300
O15   O     O_R   0.637000 0.245402 0.584589 -0.345850
O16   O     O_R   0.580872 0.203483 0.734900 -0.311913
N11   N     N_R   0.421896 0.384478 0.778358 0.111711
O17   O     O_R   0.436609 0.286318 0.757986 -0.338262
O18   O     O_R   0.357292 0.409299 0.771959 -0.344929
N12   N     N_R   0.578059 0.615592 0.221649 0.111713
O19   O     O_R   0.563309 0.713738 0.241966 -0.338247
O20   O     O_R   0.642673 0.590834 0.228098 -0.344861

loop_
_geom_bond_atom_site_label_1
_geom_bond_atom_site_label_2
_geom_bond_distance
_ccdc_geom_bond_type
N9    O13   1.301223 A    
C39   C40   1.397758 A    
C41   C42   1.398861 A    
C21   C23   1.382903 A    
C9    C18   1.472256 S    
C27   C28   1.423841 A    
O5    C3    1.301443 A    
C10   C17   1.472128 S    
O1    C1    1.294783 A    
C12   C14   1.396057 A    
C47   H21   1.080334 S    
N1    C18   1.357144 A    
C37   C42   1.404999 A    
C33   C35   1.422587 A    
C34   C36   1.422586 A    
C43   C48   1.404858 A    
C5    N7    1.437034 S    
C31   H10   1.081883 S    
C19   C24   1.395944 A    
N5    C32   1.360005 A    
O4    Cu1   1.963501 S    
C12   C43   1.481093 S    
C26   N9    1.438022 S    
C7    H1    1.083712 S    
Cu1   N5    2.021556 S    
Cu2   N6    2.021557 S    
N11   O17   1.300618 A    
N8    O11   1.301436 A    
N7    O10   1.301368 A    
N10   O16   1.301154 A    
C39   H14   1.080489 S    
N1    N3    1.329617 A    
C6    N8    1.437040 S    
C41   H16   1.082462 S    
N4    C18   1.356171 A    
N6    C31   1.360005 A    
C22   C24   1.382900 A    
C44   H18   1.083122 S    
C35   C36   1.405049 A    
N9    O14   1.301156 A    
Cu1   Cu2   2.690689 S    
O2    C2    1.294786 A    
C29   C36   1.410810 A    
C26   C28   1.405629 A    
C5    C15   1.415075 A    
C30   C35   1.410810 A    
C29   C31   1.401639 A    
C13   C15   1.403386 A    
C22   C27   1.403155 A    
C30   C32   1.401637 A    
C40   C41   1.398435 A    
N2    C17   1.357148 A    
C11   C37   1.480798 S    
C45   C46   1.398194 A    
C20   C23   1.395946 A    
O4    C2    1.293264 A    
C47   C48   1.395726 A    
C46   C47   1.397532 A    
C43   C44   1.404896 A    
C7    C9    1.402497 A    
N2    N4    1.329655 A    
O7    Cu2   1.938725 S    
C38   H13   1.083379 S    
C33   N12   1.430051 S    
O7    C3    1.298658 A    
C44   C45   1.398861 A    
O6    C4    1.301459 A    
N10   O15   1.301223 A    
C25   N10   1.438017 S    
C2    C19   1.448829 S    
N5    C34   1.379905 A    
N12   O20   1.300421 A    
C25   C27   1.405622 A    
O3    Cu2   1.963501 S    
O8    C4    1.298705 A    
C21   C28   1.403159 A    
N8    O12   1.301369 A    
N11   O18   1.300438 A    
C14   C16   1.403434 A    
C40   H15   1.082340 S    
C9    C11   1.412955 A    
C10   C12   1.412996 A    
O1    Cu1   1.965758 S    
C45   H19   1.082301 S    
C48   H22   1.083234 S    
C5    C7    1.399763 A    
O6    Cu2   1.947560 S    
C4    C16   1.472604 S    
C8    C10   1.402432 A    
C34   N11   1.430046 S    
C38   C39   1.395733 A    
O3    C1    1.293266 A    
O8    Cu1   1.938729 S    
C42   H17   1.083273 S    
C46   H20   1.082341 S    
C21   H7    1.081199 S    
C13   H3    1.084575 S    
C14   H4    1.084543 S    
C19   C26   1.405919 A    
C20   C25   1.405914 A    
C29   H11   1.082001 S    
C30   H12   1.082002 S    
C22   H8    1.081201 S    
N3    C17   1.356123 A    
C23   H6    1.084075 S    
C8    H2    1.083717 S    
C24   H5    1.084075 S    
C11   C13   1.395930 A    
N12   O19   1.300608 A    
O2    Cu2   1.965757 S    
N6    C33   1.379909 A    
O5    Cu1   1.947560 S    
C37   C38   1.404924 A    
C3    C15   1.472490 S    
C6    C8    1.399704 A    
N7    O9    1.301435 A    
C32   H9    1.081883 S    
C1    C20   1.448828 S    
C6    C16   1.415093 A    
