data_mof_unit_20758.cif
_audit_creation_date              2012-12-10T18:45:00-0500
_audit_creation_method            fapswitch 2.2
_symmetry_space_group_name_H-M    P1
_symmetry_Int_Tables_number       1
_space_group_crystal_system       triclinic
_cell_length_a                    19.461484
_cell_length_b                    18.167561
_cell_length_c                    10.785703
_cell_angle_alpha                 89.759666
_cell_angle_beta                  89.885354
_cell_angle_gamma                 90.002459
_cell_volume                      3813.43499017

loop_
_atom_site_label
_atom_site_type_symbol
_atom_type_description
_atom_site_fract_x
_atom_site_fract_y
_atom_site_fract_z
_atom_type_partial_charge
C1    C     C_R   0.367775 0.500002 0.501618 0.835867
C2    C     C_R   0.632387 0.500116 0.499628 0.801237
C3    C     C_R   0.852028 0.496431 0.512192 0.061837
C4    C     C_R   0.148480 0.495309 0.517161 0.049840
C5    C     C_R   0.818314 0.553041 0.447584 -0.287045
C6    C     C_R   0.185167 0.547204 0.586904 -0.265886
C7    C     C_R   0.745909 0.557479 0.445533 0.446001
C8    C     C_R   0.256889 0.551412 0.578987 0.433555
C9    C     C_R   0.707851 0.500225 0.502165 -0.102112
C10   C     C_R   0.292641 0.499672 0.506622 -0.118303
C11   C     C_R   0.964647 0.561523 0.527864 -0.182373
C12   C     C_R   0.036080 0.561352 0.527421 -0.181932
C13   C     C_R   0.072516 0.494796 0.519901 0.129445
C14   C     C_R   0.927904 0.495297 0.517896 0.128648
C15   C     C_R   0.035822 0.428316 0.513058 -0.178933
C16   C     C_R   0.964188 0.428600 0.511180 -0.180704
C17   C     C_R   0.454232 0.721508 0.428658 0.069547
C18   C     C_R   0.545226 0.720401 0.573553 0.068978
C19   C     C_R   0.452902 0.798797 0.429549 -0.256351
C20   C     C_R   0.546520 0.797667 0.575249 -0.272446
C21   C     C_R   0.499913 0.838294 0.502648 0.152591
C22   C     C_R   0.501933 0.500135 0.262310 0.781508
C23   C     C_R   0.501645 0.499872 0.737564 0.800568
C24   C     C_R   0.501331 0.961549 0.614926 0.220053
C25   C     C_R   0.500917 0.961469 0.388886 0.219446
C26   C     C_R   0.502313 0.039175 0.612940 -0.257194
C27   C     C_R   0.499802 0.039121 0.389616 -0.257549
C28   C     C_R   0.500861 0.078907 0.500985 0.052867
C29   C     C_R   0.500692 0.921331 0.502235 0.039335
C30   C     C_R   0.460209 0.201659 0.415604 -0.286655
C31   C     C_R   0.540746 0.201799 0.584989 -0.287190
C32   C     C_R   0.460458 0.278980 0.417235 0.088826
C33   C     C_R   0.539858 0.279087 0.582907 0.086568
C34   C     C_R   0.500629 0.161654 0.500453 0.147370
C35   C     C_R   0.614031 0.572240 0.127392 -0.158650
C36   C     C_R   0.614249 0.571246 0.868751 -0.184619
C37   C     C_R   0.667209 0.606157 0.061750 -0.127094
C38   C     C_R   0.667222 0.605814 0.932837 -0.156492
C39   C     C_R   0.559584 0.536850 0.933404 0.098082
C40   C     C_R   0.559496 0.537310 0.064460 0.077652
C41   C     C_R   0.506120 0.500260 0.128545 -0.092213
C42   C     C_R   0.506176 0.499581 0.871002 -0.095279
C43   C     C_R   0.455908 0.461080 0.064427 -0.207033
C44   C     C_R   0.455905 0.460785 0.936466 -0.187371
C45   C     C_R   0.741807 0.442737 0.563920 -0.262006
C46   C     C_R   0.256266 0.446563 0.439584 -0.264370
C47   C     C_R   0.813117 0.441418 0.570550 -0.171060
C48   C     C_R   0.184774 0.445096 0.443188 -0.165784
Cu1   Cu    Cu3+1 0.500000 0.573360 0.500000 0.962003
Cu2   Cu    Cu3+1 0.500000 0.426640 0.500000 0.938325
H1    H     H_    0.415687 0.431815 0.113863 0.138571
H2    H     H_    0.415613 0.431438 0.888083 0.152216
H3    H     H_    0.418133 0.691765 0.371534 0.118440
H4    H     H_    0.581207 0.689797 0.630061 0.126102
H5    H     H_    0.415171 0.827471 0.373763 0.147486
H6    H     H_    0.584384 0.825384 0.631700 0.153109
H7    H     H_    0.501993 0.068558 0.700117 0.139560
H8    H     H_    0.500376 0.068502 0.302024 0.139345
H9    H     H_    0.427784 0.173459 0.349624 0.127465
H10   H     H_    0.573423 0.173744 0.651132 0.128273
H11   H     H_    0.428807 0.309129 0.352186 0.113907
H12   H     H_    0.571323 0.309328 0.647704 0.117874
H13   H     H_    0.616834 0.572326 0.227276 0.193667
H14   H     H_    0.617581 0.570447 0.768725 0.133071
H15   H     H_    0.709109 0.631962 0.110929 0.156230
H16   H     H_    0.708931 0.631586 0.882240 0.132224
H17   H     H_    0.712925 0.399388 0.609571 0.160150
H18   H     H_    0.283242 0.407006 0.382450 0.153540
H19   H     H_    0.837726 0.397595 0.622294 0.136417
H20   H     H_    0.158003 0.405190 0.386816 0.135755
H21   H     H_    0.848957 0.592690 0.397053 0.116635
H22   H     H_    0.158372 0.584141 0.648920 0.137248
H23   H     H_    0.938196 0.613738 0.535673 0.120873
H24   H     H_    0.062676 0.613637 0.530926 0.119982
H25   H     H_    0.062380 0.376022 0.509172 0.126521
H26   H     H_    0.937336 0.376707 0.502318 0.127171
N1    N     N_R   0.500000 0.683620 0.500000 -0.168719
N2    N     N_R   0.500000 0.316380 0.500000 -0.170376
O1    O     O_R   0.400190 0.561980 0.499980 -0.561946
O2    O     O_R   0.599810 0.561980 0.500020 -0.556538
O3    O     O_R   0.400190 0.438070 0.500040 -0.591717
O4    O     O_R   0.599810 0.438070 0.499960 -0.592671
O5    O     O_R   0.500000 0.561970 0.319650 -0.585998
O6    O     O_R   0.500000 0.561970 0.680350 -0.579364
O7    O     O_R   0.500010 0.438060 0.319710 -0.584769
O8    O     O_R   0.499990 0.438060 0.680290 -0.590544
N3    N     N_2   0.500102 0.924464 0.731428 -0.436906
H27   H     H_    0.525919 0.951921 0.800736 0.245849
C49   C     C_3   0.432464 0.901081 0.770769 -0.692394
H28   H     H_    0.436673 0.868679 0.857939 0.229802
H29   H     H_    0.408513 0.865746 0.699336 0.239831
H30   H     H_    0.399179 0.949741 0.787716 0.219269
N4    N     N_2   0.503488 0.924242 0.273044 -0.436655
H31   H     H_    0.479544 0.952184 0.201729 0.245489
C50   C     C_3   0.571258 0.898916 0.238117 -0.689560
H32   H     H_    0.567910 0.867037 0.150727 0.228282
H33   H     H_    0.593019 0.862472 0.310920 0.243561
H34   H     H_    0.606116 0.946614 0.223190 0.219133
O9    O     O_3   0.710321 0.612197 0.380937 -0.594239
C51   C     C_3   0.745340 0.680374 0.377513 0.047264
H35   H     H_    0.785415 0.679546 0.303942 0.139401
H36   H     H_    0.768779 0.693879 0.468893 0.137282
C52   C     C_3   0.694749 0.741217 0.345133 -0.804932
H37   H     H_    0.655169 0.745484 0.418547 0.253114
H38   H     H_    0.722191 0.794647 0.337758 0.193525
H39   H     H_    0.669190 0.729524 0.255445 0.249910
O10   O     O_3   0.292544 0.600955 0.651717 -0.572832
C53   C     C_3   0.283010 0.672565 0.603316 0.082525
H40   H     H_    0.228404 0.690139 0.611568 0.123646
H41   H     H_    0.299135 0.675536 0.504157 0.132647
C54   C     C_3   0.326699 0.726390 0.676353 -0.767006
H42   H     H_    0.381742 0.710646 0.670627 0.267211
H43   H     H_    0.320101 0.782564 0.637345 0.180521
H44   H     H_    0.310513 0.726505 0.775145 0.243566

loop_
_geom_bond_atom_site_label_1
_geom_bond_atom_site_label_2
_ccdc_geom_bond_type
C15   H25   S    
N3    H27   S    
C25   N4    S    
N4    H31   S    
C12   H24   S    
C50   H32   S    
C20   H6    S    
C50   H34   S    
C9    C45   A    
C23   C42   S    
C7    O9    S    
Cu1   O6    S    
C35   C37   A    
C24   C26   A    
C32   H11   S    
C11   C14   A    
C33   N2    A    
C22   C41   S    
C1    O3    A    
C15   C16   A    
C53   H40   S    
C22   O7    A    
C4    C13   S    
C24   C29   A    
C47   H19   S    
Cu2   O7    S    
C52   H38   S    
C38   H16   S    
C53   H41   S    
C33   H12   S    
C23   O8    A    
C37   H15   S    
C45   H17   S    
O10   C53   S    
C31   C33   A    
C49   H29   S    
C44   H2    S    
C28   C34   S    
N4    C50   S    
C41   C43   A    
C54   H44   S    
C42   C44   A    
Cu2   N2    S    
C51   H36   S    
C26   H7    S    
C39   C42   A    
C45   C47   A    
C25   C29   A    
C46   C48   A    
C23   O6    A    
C30   C34   A    
C4    C6    A    
C11   H23   S    
C39   C40   A    
C5    C7    A    
Cu2   O8    S    
C6    C8    A    
C21   C29   S    
C51   C52   S    
Cu1   O1    S    
C31   H10   S    
C6    H22   S    
C43   C44   A    
C46   H18   S    
C37   C38   A    
O9    C51   S    
C30   H9    S    
C17   N1    A    
C31   C34   A    
C54   H43   S    
C53   C54   S    
C20   C21   A    
C49   H30   S    
C3    C14   S    
C40   C41   A    
C13   C15   A    
C1    O1    A    
C14   C16   A    
C2    O4    A    
C8    O10   S    
C17   H3    S    
C10   C46   A    
C52   H37   S    
Cu2   O4    S    
C4    C48   A    
C19   H5    S    
C7    C9    A    
C54   H42   S    
C19   C21   A    
C16   H26   S    
C36   C39   A    
C1    C10   S    
C48   H20   S    
C3    C5    A    
C27   H8    S    
C11   C12   A    
C50   H33   S    
C25   C27   A    
C26   C28   A    
Cu1   O2    S    
C22   O5    A    
Cu1   O5    S    
C36   C38   A    
C35   C40   A    
C5    H21   S    
C30   C32   A    
C43   H1    S    
C18   N1    A    
C3    C47   A    
C51   H35   S    
C17   C19   A    
Cu1   N1    S    
C52   H39   S    
C18   C20   A    
C24   N3    S    
C2    O2    A    
C18   H4    S    
C32   N2    A    
C12   C13   A    
C8    C10   A    
Cu1   Cu2   S    
C27   C28   A    
N3    C49   S    
C35   H13   S    
C49   H28   S    
C36   H14   S    
C2    C9    S    
Cu2   O3    S    
