data_mof_unit_31886.cif
_audit_creation_date              2012-10-26T20:32:04-0400
_audit_creation_method            fapswitch 2.2
_symmetry_space_group_name_H-M    P1
_symmetry_Int_Tables_number       1
_space_group_crystal_system       triclinic
_cell_length_a                    10.62698
_cell_length_b                    10.824269
_cell_length_c                    9.563978
_cell_angle_alpha                 90.15969
_cell_angle_beta                  90.014119
_cell_angle_gamma                 90.471295
_cell_volume                      1100.09606974

loop_
_atom_site_label
_atom_site_type_symbol
_atom_type_description
_atom_site_fract_x
_atom_site_fract_y
_atom_site_fract_z
_atom_type_partial_charge
C1    C     C_R   0.496295 0.262551 0.499868 0.560773
C2    C     C_R   0.493379 0.937397 0.622411 0.014730
C3    C     C_3   0.595733 0.930220 0.729204 -0.276729
C4    C     C_R   0.259428 0.499958 0.499746 0.577734
C5    C     C_3   0.600950 0.070360 0.727291 -0.261785
C6    C     C_R   0.608488 0.521490 0.073689 0.144205
C7    C     C_R   0.396995 0.463111 0.074730 0.011220
C8    C     C_R   0.397054 0.461994 0.926507 0.472344
C9    C     C_R   0.608762 0.520756 0.926654 0.105373
C10   C     C_3   0.691931 0.632024 0.921370 -0.278568
C11   C     C_3   0.690708 0.633427 0.080274 -0.264999
C12   C     C_3   0.958446 0.604948 0.440588 -0.162010
C13   C     C_R   0.492250 0.737640 0.499592 0.529310
C14   C     C_R   0.740631 0.499944 0.500162 0.547289
C15   C     C_3   0.040756 0.397447 0.557531 0.420308
C16   C     C_3   0.957204 0.401838 0.426404 -0.107683
C17   C     C_3   0.877487 0.499765 0.500616 -0.013356
C18   C     C_3   0.959341 0.493461 0.632919 -0.074624
C19   C     C_3   0.042667 0.598576 0.572574 -0.172150
C20   C     C_3   0.370410 0.876315 0.250671 -0.255995
C21   C     C_3   0.245396 0.812072 0.283844 -0.403260
C22   C     C_3   0.040626 0.507129 0.366587 -0.172488
C23   C     C_3   0.122711 0.500885 0.498678 0.048778
C24   C     C_R   0.497145 0.064000 0.622753 0.044309
C25   C     C_R   0.479310 0.129980 0.500403 0.007214
C26   C     C_R   0.433938 0.067178 0.382023 -0.133176
C27   C     C_R   0.426643 0.937241 0.379972 -0.014147
C28   C     C_R   0.471683 0.870922 0.499079 0.014292
Cu1   Cu    Cu3+1 0.499990 0.499980 0.640670 1.036746
Cu2   Cu    Cu3+1 0.500010 0.500020 0.359330 0.925809
F1    F     F_    0.292401 0.420371 0.860404 -0.594477
F2    F     F_    0.086651 0.290845 0.617572 -0.597201
H1    H     H_    0.919718 0.320830 0.367861 0.125257
H2    H     H_    0.925056 0.485232 0.742031 0.132194
H3    H     H_    0.080597 0.679082 0.631661 0.127086
H4    H     H_    0.921343 0.690393 0.392271 0.122589
H5    H     H_    0.076391 0.513364 0.257739 0.132428
H6    H     H_    0.406678 0.119240 0.290398 0.136451
H7    H     H_    0.559649 0.894593 0.830401 0.133415
H8    H     H_    0.209035 0.764822 0.188691 0.136382
H9    H     H_    0.256566 0.742424 0.367420 0.168817
H10   H     H_    0.175208 0.881138 0.318651 0.153263
H11   H     H_    0.351100 0.946266 0.168651 0.132849
H12   H     H_    0.682560 0.885965 0.688720 0.136583
H13   H     H_    0.437229 0.811613 0.201192 0.168964
H14   H     H_    0.570363 0.113183 0.827331 0.154796
H15   H     H_    0.689882 0.108232 0.682776 0.145053
H16   H     H_    0.313104 0.434163 0.129858 0.144087
H17   H     H_    0.785987 0.611380 0.877092 0.129032
H18   H     H_    0.644375 0.711847 0.873944 0.138937
H19   H     H_    0.784110 0.613310 0.126986 0.137109
H20   H     H_    0.642070 0.714872 0.125291 0.137486
N1    N     N_R   0.500800 0.500930 0.147930 -0.277776
N2    N     N_R   0.500800 0.500890 0.852020 -0.234485
O1    O     O_R   0.500000 0.319640 0.618810 -0.465537
O2    O     O_R   0.500010 0.319680 0.381230 -0.511073
O3    O     O_R   0.316850 0.499950 0.618770 -0.399323
O4    O     O_R   0.316860 0.499990 0.381190 -0.542996
O5    O     O_R   0.499990 0.680320 0.618770 -0.511106
O6    O     O_R   0.500000 0.680360 0.381190 -0.515404
O7    O     O_R   0.683140 0.500010 0.618810 -0.515203
O8    O     O_R   0.683150 0.500050 0.381230 -0.497663

loop_
_geom_bond_atom_site_label_1
_geom_bond_atom_site_label_2
_ccdc_geom_bond_type
C4    O3    A    
C12   C17   S    
C15   C18   S    
C19   C23   S    
C13   C28   S    
Cu1   Cu2   S    
C13   O5    A    
C20   C27   S    
C16   H1    S    
C12   H4    S    
C18   H2    S    
C9    C10   S    
C11   H20   S    
C20   H13   S    
C6    C11   S    
Cu1   N2    S    
C7    H16   S    
C6    C9    A    
C15   C23   S    
C2    C3    S    
C1    O1    A    
C3    H7    S    
C7    C8    A    
C13   O6    A    
C19   H3    S    
C24   C25   A    
C1    C25   S    
C5    H15   S    
C14   C17   S    
C26   C27   A    
C21   H8    S    
C10   H18   S    
C21   H9    S    
Cu2   O4    S    
C12   C19   S    
C8    F1    S    
C1    O2    A    
Cu1   O3    S    
C17   C18   S    
Cu2   O8    S    
C2    C24   A    
Cu2   N1    S    
Cu1   O7    S    
C3    H12   S    
C11   H19   S    
C10   C11   S    
C7    N1    A    
C6    N1    A    
C4    O4    A    
C21   H10   S    
C14   O8    A    
C12   C22   S    
C15   F2    S    
C20   H11   S    
C22   H5    S    
C20   C21   S    
C18   C19   S    
C5    H14   S    
C8    N2    A    
C27   C28   A    
C4    C23   S    
Cu1   O5    S    
C22   C23   S    
C5    C24   S    
C2    C28   A    
C9    N2    A    
Cu1   O1    S    
C25   C26   A    
C14   O7    A    
C10   H17   S    
Cu2   O2    S    
C26   H6    S    
C15   C16   S    
C16   C22   S    
C16   C17   S    
C3    C5    S    
Cu2   O6    S    
