data_mof_unit_54564.cif
_audit_creation_date              2013-03-05T15:47:55-0500
_audit_creation_method            fapswitch 2.2
_symmetry_space_group_name_H-M    P1
_symmetry_Int_Tables_number       1
_space_group_crystal_system       triclinic
_cell_length_a                    11.712682
_cell_length_b                    12.939378
_cell_length_c                    13.380692
_cell_angle_alpha                 93.362122
_cell_angle_beta                  75.835894
_cell_angle_gamma                 99.585835
_cell_volume                      1938.46344511

loop_
_atom_site_label
_atom_site_type_symbol
_atom_site_description
_atom_site_fract_x
_atom_site_fract_y
_atom_site_fract_z
_atom_type_partial_charge
O1    O     O_R   0.419710 0.645650 0.494620 -0.563934
O2    O     O_R   0.611450 0.658430 0.507430 -0.590341
C1    C     C_R   0.519460 0.700600 0.505929 0.833185
O3    O     O_R   0.357340 0.490460 0.641450 -0.578453
O4    O     O_R   0.549080 0.503250 0.654260 -0.594337
C2    C     C_R   0.435797 0.483181 0.694970 0.785409
Cu1   Cu    Cu3+1 0.386470 0.492430 0.492410 0.975159
Cu2   Cu    Cu3+1 0.613530 0.507570 0.507590 0.938145
O5    O     O_R   0.388550 0.341570 0.492570 -0.594438
O6    O     O_R   0.580290 0.354350 0.505380 -0.595654
O7    O     O_R   0.450920 0.496750 0.345740 -0.526647
O8    O     O_R   0.642660 0.509540 0.358550 -0.578082
C3    C     C_R   0.480418 0.299591 0.495689 0.788148
C4    C     C_R   0.564740 0.510831 0.303749 0.813810
C5    C     C_R   0.746553 0.477612 0.032674 -0.236372
H1    H     H_    0.769539 0.410853 0.838693 0.152085
H2    H     H_    0.837286 0.471448 0.991313 0.139373
C6    C     C_R   0.603733 0.515005 0.189840 -0.215988
C7    C     C_R   0.277034 0.447456 0.856793 -0.185028
C8    C     C_R   0.241177 0.440285 0.963448 -0.167982
C9    C     C_R   0.326040 0.449151 0.021539 -0.106376
C10   C     C_R   0.448680 0.460087 0.973300 0.091477
C11   C     C_R   0.482077 0.447742 0.864767 0.061579
C12   C     C_R   0.538656 0.477070 0.029890 -0.033805
C13   C     C_R   0.655407 0.459299 0.980191 0.096275
C14   C     C_R   0.681675 0.428252 0.876647 -0.193148
C15   C     C_R   0.596574 0.422668 0.819599 -0.163964
C16   C     C_R   0.517553 0.516947 0.132302 0.258643
C17   C     C_R   0.722899 0.507424 0.136898 -0.031902
C18   C     C_R   0.398015 0.457693 0.806165 -0.117925
H3    H     H_    0.209690 0.442121 0.813927 0.147912
H4    H     H_    0.294315 0.440781 0.103672 0.158462
H5    H     H_    0.147232 0.429584 0.001364 0.136563
H6    H     H_    0.620836 0.393744 0.741189 0.185065
C19   C     C_R   0.472992 0.186832 0.487899 -0.054046
C20   C     C_R   0.528820 0.814182 0.516916 -0.130210
C21   C     C_R   0.584749 0.980635 0.601148 0.288882
C22   C     C_R   0.581058 0.871242 0.592723 -0.124616
C23   C     C_R   0.480684 0.865512 0.451957 -0.286744
C24   C     C_R   0.479307 0.972651 0.463151 0.107771
C25   C     C_R   0.532931 0.031003 0.537070 0.018111
C26   C     C_R   0.530065 0.138443 0.547647 -0.212918
C27   C     C_R   0.417110 0.128655 0.416834 -0.186713
C28   C     C_R   0.421477 0.021810 0.403576 -0.170860
H7    H     H_    0.570771 0.185542 0.603147 0.189468
H8    H     H_    0.373489 0.166411 0.369715 0.143141
H9    H     H_    0.379128 0.977567 0.347464 0.148250
H10   H     H_    0.440788 0.820966 0.394396 0.175741
N1    N     N_R   0.215880 0.481050 0.481000 -0.191245
N2    N     N_R   0.784100 0.518950 0.519000 -0.187157
C29   C     C_R   0.944005 0.605648 0.587670 -0.329273
C30   C     C_R   0.825996 0.593480 0.581367 0.083465
C31   C     C_R   0.855004 0.451302 0.463486 0.054752
C32   C     C_R   0.974978 0.456531 0.470444 0.003553
C33   C     C_R   0.021086 0.537929 0.531033 0.011347
C34   C     C_R   0.142382 0.549064 0.535407 0.127701
C35   C     C_R   0.171174 0.400925 0.423830 0.076842
C36   C     C_R   0.050323 0.384666 0.418652 -0.123039
H11   H     H_    0.229122 0.346593 0.384679 0.130606
H12   H     H_    0.972933 0.668048 0.637528 0.155499
H13   H     H_    0.767082 0.643803 0.625486 0.152260
H14   H     H_    0.817650 0.394535 0.412998 0.138355
C37   C     C_R   0.826044 0.543948 0.183522 0.159632
C38   C     C_R   0.836215 0.643023 0.233070 -0.086780
C39   C     C_R   0.935051 0.680181 0.273449 -0.154924
C40   C     C_R   0.026307 0.620362 0.262317 -0.069073
C41   C     C_R   0.018470 0.523095 0.211309 -0.122470
C42   C     C_R   0.918620 0.484413 0.172614 -0.197857
H15   H     H_    0.767470 0.691496 0.240422 0.118950
H16   H     H_    0.941367 0.755815 0.312538 0.130412
H17   H     H_    0.103172 0.649379 0.293094 0.165565
H18   H     H_    0.090001 0.477804 0.201896 0.149246
H19   H     H_    0.913815 0.408480 0.133911 0.135243
N3    N     N_R   0.633709 0.039278 0.679599 0.104257
O9    O     O_R   0.733518 0.103837 0.654349 -0.414313
O10   O     O_R   0.579878 0.026299 0.776421 -0.345733
C43   C     C_R   0.623601 0.818677 0.669387 0.152696
C44   C     C_R   0.742344 0.845140 0.678048 -0.083404
C45   C     C_R   0.778330 0.806372 0.758962 -0.171716
C46   C     C_R   0.696314 0.740765 0.831484 -0.097204
C47   C     C_R   0.578232 0.714404 0.823449 -0.090268
C48   C     C_R   0.542003 0.752500 0.742477 -0.117740
H20   H     H_    0.806375 0.896878 0.623014 0.146281
H21   H     H_    0.869758 0.827073 0.765299 0.142527
H22   H     H_    0.723991 0.710875 0.894215 0.148364
H23   H     H_    0.514129 0.665989 0.881049 0.167302
H24   H     H_    0.449738 0.732960 0.738503 0.131737
C49   C     C_R   0.184797 0.632646 0.604101 0.173535
C50   C     C_R   0.216303 0.736895 0.570874 -0.141379
C51   C     C_R   0.236962 0.818589 0.640726 -0.147712
C52   C     C_R   0.223888 0.797177 0.744377 -0.129057
C53   C     C_R   0.186028 0.694537 0.779024 -0.173796
C54   C     C_R   0.163422 0.613308 0.709518 -0.145440
H25   H     H_    0.223168 0.754666 0.491322 0.132541
H26   H     H_    0.261742 0.898640 0.614814 0.155490
H27   H     H_    0.240177 0.860402 0.798240 0.154912
H28   H     H_    0.170870 0.678351 0.860077 0.153583
H29   H     H_    0.123096 0.536178 0.737793 0.114180
C55   C     C_R   0.004830 0.288589 0.364692 0.077579
C56   C     C_R   0.065087 0.262883 0.264202 -0.165000
C57   C     C_R   0.023010 0.171736 0.214283 -0.127734
C58   C     C_R   0.921700 0.104522 0.264683 -0.116647
C59   C     C_R   0.862749 0.127955 0.365387 -0.110118
C60   C     C_R   0.904457 0.219068 0.415517 -0.129816
H30   H     H_    0.144460 0.313308 0.224351 0.114314
H31   H     H_    0.069300 0.153014 0.136598 0.136820
H32   H     H_    0.889409 0.033885 0.225995 0.131764
H33   H     H_    0.785078 0.075258 0.404787 0.148191
H34   H     H_    0.858688 0.235309 0.494070 0.168315
N4    N     N_R   0.432684 0.588553 0.164112 0.109367
O11   O     O_R   0.335416 0.565087 0.235685 -0.400974
O12   O     O_R   0.447044 0.673650 0.112278 -0.379485

loop_
_geom_bond_atom_site_label_1
_geom_bond_atom_site_label_2
_geom_bond_distance
_ccdc_geom_bond_type
C21   N3    1.436249 S    
C17   C37   1.488682 S    
C57   C58   1.397389 A    
C25   C26   1.394267 A    
C4    C6    1.481683 S    
C7    C8    1.389559 A    
C33   C34   1.419186 A    
C7    H3    1.074503 S    
C47   C48   1.397948 A    
C35   C36   1.414128 A    
Cu1   Cu2   2.690476 S    
C43   C44   1.407349 A    
Cu1   O7    1.923104 S    
C14   C15   1.386853 A    
C21   C22   1.407638 A    
N3    O10   1.301793 A    
O4    C2    1.293363 A    
C43   C48   1.404043 A    
C3    C19   1.446220 S    
C30   H13   1.074167 S    
C60   H34   1.082670 S    
O7    C4    1.300266 A    
C34   C49   1.479609 S    
C39   H16   1.082403 S    
N1    C35   1.362519 A    
C5    H2    1.085007 S    
C41   H18   1.079110 S    
C50   H25   1.083098 S    
C19   C26   1.392010 A    
O5    C3    1.293794 A    
N4    O11   1.300863 A    
C56   C57   1.398255 A    
C52   H27   1.082244 S    
C32   C33   1.408151 A    
C44   H20   1.083165 S    
C40   H17   1.082511 S    
N2    C30   1.347459 A    
C59   H33   1.082287 S    
C11   C15   1.412171 A    
C19   C27   1.398504 A    
C47   H23   1.080268 S    
C28   H9    1.083862 S    
C55   C60   1.407865 A    
C9    C10   1.410420 A    
O3    Cu1   1.940153 S    
C53   H28   1.082421 S    
C5    C17   1.397805 A    
C15   H6    1.079380 S    
H1    C14   1.084285 S    
C9    H4    1.076234 S    
N2    C31   1.368057 A    
N3    O9    1.301212 A    
C41   C42   1.399050 A    
C11   C18   1.425762 A    
C51   H26   1.081714 S    
C6    C16   1.415383 A    
C12   C13   1.416619 A    
Cu1   N1    2.021369 S    
O3    C2    1.313389 A    
C52   C53   1.396744 A    
C44   C45   1.399627 A    
C16   N4    1.442629 S    
C42   H19   1.082994 S    
C31   C32   1.421098 A    
C29   C30   1.387585 A    
O1    C1    1.300269 A    
C26   H7    1.083357 S    
C27   C28   1.391315 A    
C46   H22   1.082696 S    
C31   H14   1.080169 S    
C55   C56   1.406430 A    
Cu2   O8    1.940153 S    
C56   H30   1.081914 S    
C58   H32   1.082407 S    
C6    C17   1.418856 A    
C38   H15   1.083318 S    
C49   C50   1.406304 A    
C8    H5    1.082415 S    
C24   C25   1.414694 A    
C2    C18   1.484942 S    
O8    C4    1.305732 A    
C10   C12   1.423439 A    
C45   C46   1.397831 A    
Cu2   N2    2.021135 S    
C23   C24   1.387974 A    
C32   C36   1.422038 A    
C57   H31   1.082380 S    
Cu1   O5    1.956373 S    
C49   C54   1.400949 A    
O1    Cu1   1.955691 S    
C20   C23   1.395268 A    
O2    Cu2   1.956371 S    
C36   C55   1.487646 S    
C12   C16   1.413841 A    
C46   C47   1.397178 A    
O6    C3    1.294074 A    
O4    Cu2   1.923105 S    
C22   C43   1.485956 S    
N1    C34   1.384214 A    
C37   C42   1.406416 A    
C38   C39   1.397679 A    
C20   C22   1.419100 A    
O2    C1    1.291020 A    
C13   C14   1.393880 A    
C51   C52   1.396706 A    
C45   H21   1.082560 S    
C1    C20   1.456863 S    
C53   C54   1.397482 A    
C40   C41   1.396320 A    
C29   C33   1.417033 A    
C21   C25   1.407198 A    
C58   C59   1.396737 A    
C27   H8    1.083590 S    
N4    O12   1.300985 A    
C35   H11   1.082159 S    
C37   C38   1.409007 A    
C24   C28   1.402166 A    
C8    C9    1.391051 A    
C5    C13   1.397196 A    
Cu2   O6    1.955692 S    
C39   C40   1.395644 A    
C59   C60   1.397965 A    
C10   C11   1.415317 A    
C29   H12   1.080795 S    
C50   C51   1.399694 A    
C7    C18   1.400930 A    
C54   H29   1.078014 S    
C48   H24   1.081739 S    
C23   H10   1.085437 S    
