data_mof_unit_6574.cif
_audit_creation_date              2012-12-11T14:19:14-0500
_audit_creation_method            fapswitch 2.2
_symmetry_space_group_name_H-M    P1
_symmetry_Int_Tables_number       1
_space_group_crystal_system       triclinic
_cell_length_a                    19.48303
_cell_length_b                    7.239708
_cell_length_c                    17.67001
_cell_angle_alpha                 89.998624
_cell_angle_beta                  107.52416
_cell_angle_gamma                 89.997573
_cell_volume                      2376.70928324

loop_
_atom_site_label
_atom_site_type_symbol
_atom_type_description
_atom_site_fract_x
_atom_site_fract_y
_atom_site_fract_z
_atom_type_partial_charge
O1    O     O_R   0.414820 0.494320 0.416790 -0.537600
O2    O     O_R   0.585180 0.994320 0.583210 -0.537610
O3    O     O_R   0.560270 0.819500 0.430140 -0.547870
O4    O     O_R   0.439730 0.319500 0.569860 -0.547869
C1    C     C_R   0.581227 0.655519 0.414802 0.704905
C2    C     C_R   0.418774 0.155521 0.585198 0.704905
O5    O     O_R   0.413840 0.823740 0.407440 -0.541162
O6    O     O_R   0.586160 0.323740 0.592560 -0.541150
O7    O     O_R   0.437710 0.998590 0.560350 -0.531626
O8    O     O_R   0.562290 0.498590 0.439650 -0.531636
C3    C     C_R   0.388159 0.655784 0.384758 0.738746
C4    C     C_R   0.611846 0.155772 0.615233 0.738742
O9    O     O_3   0.508000 0.662290 0.550200 -0.381877
O10   O     O_3   0.492000 0.162290 0.449800 -0.381883
V1    V     V_3+5 0.498520 0.935380 0.490690 1.413885
V2    V     V_3+5 0.501480 0.435380 0.509310 1.413874
C5    C     C_2   0.783772 0.252458 0.788540 -0.168138
C6    C     C_2   0.216224 0.752461 0.211441 -0.168348
C7    C     C_2   0.809693 0.107004 0.836859 -0.022023
C8    C     C_2   0.190303 0.606966 0.163153 -0.022024
H1    H     H_    0.818692 0.369811 0.789123 0.121800
H2    H     H_    0.181310 0.869853 0.210821 0.121805
C9    C     C_2   0.707701 0.270500 0.737810 0.164091
C10   C     C_2   0.292293 0.770520 0.262167 0.164256
C11   C     C_2   0.681733 0.145993 0.678450 -0.359717
C12   C     C_2   0.318270 0.646043 0.321547 -0.359535
H3    H     H_    0.715728 0.029480 0.674464 0.130505
H4    H     H_    0.284271 0.529567 0.325558 0.130443
C13   C     C_R   0.320578 0.293171 0.630554 -0.157611
C14   C     C_R   0.679423 0.793156 0.369450 -0.157610
C15   C     C_R   0.369134 0.148610 0.634369 -0.085989
C16   C     C_R   0.630867 0.648606 0.365632 -0.085973
C17   C     C_R   0.370304 0.999248 0.684930 -0.177811
C18   C     C_R   0.629696 0.499256 0.315068 -0.177806
C19   C     C_R   0.324228 0.993311 0.733236 0.091405
C20   C     C_R   0.675771 0.493321 0.266760 0.091401
C21   C     C_R   0.274589 0.140936 0.728122 -0.005886
C22   C     C_R   0.725409 0.640937 0.271876 -0.005885
C23   C     C_R   0.272376 0.291208 0.676080 0.031140
C24   C     C_R   0.727624 0.791195 0.323922 0.031138
C25   C     C_R   0.326755 0.843724 0.786389 0.149060
C26   C     C_R   0.673243 0.343747 0.213604 0.149057
C27   C     C_R   0.278245 0.843221 0.831496 -0.197656
C28   C     C_R   0.721750 0.343251 0.168493 -0.197691
C29   C     C_R   0.228732 0.986337 0.825717 0.065237
C30   C     C_R   0.771263 0.486355 0.174274 0.065219
C31   C     C_R   0.227033 0.137569 0.774698 0.015880
C32   C     C_R   0.772963 0.637572 0.225298 0.015881
C33   C     C_R   0.177811 0.284533 0.770677 0.031670
C34   C     C_R   0.822185 0.784526 0.229320 0.031669
C35   C     C_R   0.176681 0.437480 0.719618 0.072413
C36   C     C_R   0.823313 0.937465 0.280379 0.072420
C37   C     C_R   0.222657 0.437048 0.670794 0.220865
C38   C     C_R   0.777340 0.937028 0.329207 0.220868
C39   C     C_R   0.180688 0.978635 0.870847 -0.211579
C40   C     C_R   0.819307 0.478654 0.129144 -0.211539
C41   C     C_R   0.131281 0.121097 0.866984 -0.074799
C42   C     C_R   0.868716 0.621102 0.133012 -0.074787
C43   C     C_R   0.130455 0.273097 0.817599 -0.197324
C44   C     C_R   0.869542 0.773090 0.182400 -0.197338
H5    H     H_    0.320900 0.406492 0.590921 0.174693
H6    H     H_    0.679103 0.906467 0.409086 0.174690
H7    H     H_    0.408495 0.889764 0.686747 0.116112
H8    H     H_    0.591504 0.389782 0.313248 0.116108
H9    H     H_    0.278008 0.730772 0.871671 0.137357
H10   H     H_    0.721985 0.230814 0.128314 0.137360
H11   H     H_    0.182258 0.861966 0.909862 0.119778
H12   H     H_    0.817737 0.361994 0.090127 0.119793
H13   H     H_    0.090774 0.378701 0.815118 0.136748
H14   H     H_    0.909225 0.878683 0.184886 0.136747
O11   O     O_R   0.937810 0.773680 0.060480 -0.542401
O12   O     O_R   0.062190 0.273680 0.939520 -0.542403
O13   O     O_R   0.086190 0.439740 0.092580 -0.538403
O14   O     O_R   0.913810 0.939740 0.907420 -0.538408
C45   C     C_R   0.114540 0.607000 0.110994 0.720778
C46   C     C_R   0.885461 0.107011 0.889006 0.720773
O15   O     O_R   0.939760 0.444210 0.069890 -0.539795
O16   O     O_R   0.060240 0.944210 0.930110 -0.539796
O17   O     O_R   0.914790 0.269640 0.916760 -0.543663
O18   O     O_R   0.085210 0.769640 0.083240 -0.543668
C47   C     C_R   0.918864 0.612483 0.084529 0.694849
C48   C     C_R   0.081135 0.112481 0.915470 0.694817
O19   O     O_3   0.992050 0.601530 0.949880 -0.378240
O20   O     O_3   0.007950 0.101530 0.050120 -0.378236
V3    V     V_3+5 0.001480 0.328340 0.009300 1.390479
V4    V     V_3+5 0.998520 0.828340 0.990700 1.390461
C49   C     C_3   0.126999 0.601697 0.716845 -0.321560
C50   C     C_3   0.051880 0.566126 0.660089 -0.668414
H15   H     H_    0.054685 0.545394 0.598814 0.260974
H16   H     H_    0.027393 0.441915 0.678267 0.215016
H17   H     H_    0.016826 0.686972 0.660239 0.215096
H18   H     H_    0.123986 0.636404 0.776866 0.158784
H19   H     H_    0.148393 0.730116 0.698420 0.233628
C51   C     C_3   0.872980 0.101693 0.283138 -0.321574
C52   C     C_3   0.948102 0.066159 0.339898 -0.668410
H20   H     H_    0.945299 0.045471 0.401177 0.260985
H21   H     H_    0.972598 0.941939 0.321739 0.215023
H22   H     H_    0.983146 0.187007 0.339728 0.215089
H23   H     H_    0.875991 0.136384 0.223115 0.158787
H24   H     H_    0.851572 0.230107 0.301552 0.233626
Br1   Br    Br    0.215192 0.633609 0.593851 -0.612688
Br2   Br    Br    0.784804 0.133578 0.406151 -0.612696
C53   C     C_3   0.761941 0.947149 0.846862 -0.332735
C54   C     C_3   0.754783 0.943509 0.930730 -0.765016
H25   H     H_    0.807618 0.917913 0.975540 0.233004
H26   H     H_    0.732887 0.076855 0.944303 0.219605
H27   H     H_    0.717531 0.831167 0.935469 0.214911
H28   H     H_    0.706688 0.953594 0.805427 0.193897
H29   H     H_    0.785407 0.814464 0.834899 0.181851
C55   C     C_3   0.238050 0.447028 0.153206 -0.332655
C56   C     C_3   0.245221 0.443205 0.069346 -0.764947
H30   H     H_    0.192394 0.417518 0.024541 0.233013
H31   H     H_    0.267103 0.576519 0.055721 0.219637
H32   H     H_    0.282489 0.330838 0.064665 0.214892
H33   H     H_    0.293301 0.453493 0.194641 0.193847
H34   H     H_    0.214580 0.314387 0.165210 0.181823
C57   C     C_3   0.664841 0.434407 0.753134 -0.296459
C58   C     C_3   0.673373 0.458938 0.841453 -0.792841
H35   H     H_    0.656563 0.331204 0.865847 0.232138
H36   H     H_    0.729995 0.492115 0.875150 0.233995
H37   H     H_    0.638745 0.574614 0.849403 0.213941
H38   H     H_    0.683408 0.561971 0.730290 0.169346
H39   H     H_    0.606374 0.417940 0.723734 0.187307
C59   C     C_3   0.335124 0.934368 0.246741 -0.296746
C60   C     C_3   0.326890 0.957921 0.158442 -0.792661
H40   H     H_    0.343944 0.829970 0.134436 0.232077
H41   H     H_    0.270290 0.990570 0.124459 0.234042
H42   H     H_    0.361471 0.073611 0.150405 0.213901
H43   H     H_    0.316310 0.062126 0.269186 0.169150
H44   H     H_    0.393568 0.918468 0.276411 0.187507
C61   C     C_3   0.381340 0.687633 0.794150 -0.348540
C62   C     C_3   0.381455 0.535940 0.854554 -0.769383
H45   H     H_    0.394559 0.594826 0.915289 0.224557
H46   H     H_    0.328620 0.464772 0.839081 0.227568
H47   H     H_    0.423062 0.431470 0.854059 0.220960
H48   H     H_    0.371522 0.620323 0.735374 0.201948
H49   H     H_    0.436254 0.748508 0.811439 0.167913
C63   C     C_3   0.618661 0.187661 0.205845 -0.348535
C64   C     C_3   0.618553 0.035967 0.145446 -0.769381
H50   H     H_    0.605445 0.094852 0.084708 0.224554
H51   H     H_    0.671392 0.964803 0.160920 0.227573
H52   H     H_    0.576952 0.931494 0.145946 0.220962
H53   H     H_    0.628481 0.120348 0.264623 0.201952
H54   H     H_    0.563746 0.248540 0.188554 0.167907

loop_
_geom_bond_atom_site_label_1
_geom_bond_atom_site_label_2
_ccdc_geom_bond_type
C22   C24   A    
C49   C50   S    
C26   C63   S    
C25   C27   A    
C20   C26   A    
C56   H30   S    
O1    C3    A    
C46   O17   A    
O2    C4    A    
C2    O7    A    
C54   H26   S    
O12   V3    S    
C52   H22   S    
C31   C33   A    
O5    C3    A    
C5    C9    S    
O14   C46   A    
C6    C10   S    
C7    C46   S    
C19   C21   A    
C10   C12   D    
C32   C34   A    
C63   H53   S    
C64   H52   S    
C41   C43   A    
C42   C44   A    
C41   C48   S    
C10   C59   S    
C58   H35   S    
O18   V4    S    
C17   C19   A    
C55   C56   S    
C7    C53   S    
C52   H20   S    
C28   C30   A    
C62   H45   S    
C33   C35   A    
C60   H42   S    
C34   C36   A    
C15   C17   A    
C36   C51   S    
C53   H28   S    
O15   C47   A    
C21   C31   A    
C45   O18   A    
C22   C32   A    
C27   H9    S    
C1    C16   S    
O16   V4    S    
O5    V1    S    
C2    C15   S    
O15   V3    S    
O6    V2    S    
C49   H18   S    
O13   C45   A    
C26   C28   A    
C54   H25   S    
C36   C38   A    
C30   C32   A    
C29   C31   A    
C13   H5    S    
C17   H7    S    
C59   H44   S    
O20   V3    S    
O4    C2    A    
C61   H48   S    
C42   C47   S    
C35   C49   S    
C25   C61   S    
C3    C12   S    
C40   H12   S    
C5    H1    S    
C8    C45   S    
C35   C37   A    
C58   H37   S    
C16   C18   A    
O4    V2    S    
C57   H38   S    
C61   H49   S    
O11   V4    S    
C51   H24   S    
O16   C48   A    
C50   H17   S    
C44   H14   S    
O6    C4    A    
C13   C23   A    
C18   H8    S    
C14   C24   A    
C56   H31   S    
O1    V2    S    
O14   V4    S    
O2    V1    S    
C27   C29   A    
O13   V3    S    
C28   H10   S    
C43   H13   S    
C8    C55   S    
C62   H46   S    
C50   H16   S    
C24   C38   A    
C14   H6    S    
C60   H40   S    
C61   C62   S    
C55   H34   S    
O17   V3    S    
O3    V1    S    
C6    H2    S    
C12   H4    S    
C38   Br2   S    
O3    C1    A    
C9    C57   S    
C39   H11   S    
C64   H50   S    
C52   H21   S    
C11   H3    S    
C37   Br1   S    
C33   C43   A    
C4    C11   S    
C53   H29   S    
C34   C44   A    
C39   C41   A    
C57   H39   S    
C1    O8    A    
C21   C23   A    
O8    V2    S    
C57   C58   S    
C14   C16   A    
C64   H51   S    
C23   C37   A    
C51   H23   S    
C62   H47   S    
C49   H19   S    
C20   C22   A    
C5    C7    D    
C18   C20   A    
C40   C42   A    
C59   H43   S    
C56   H32   S    
C6    C8    D    
C9    C11   D    
O7    V1    S    
C51   C52   S    
C19   C25   A    
C58   H36   S    
C63   C64   S    
O19   V4    S    
C50   H15   S    
C29   C39   A    
C13   C15   A    
O9    V2    S    
C30   C40   A    
C53   C54   S    
C60   H41   S    
O10   V1    S    
C63   H54   S    
C55   H33   S    
C54   H27   S    
O12   C48   A    
C59   C60   S    
O11   C47   A    
