data_mof_unit_53566.cif
_audit_creation_date              2013-03-05T15:46:13-0500
_audit_creation_method            fapswitch 2.2
_symmetry_space_group_name_H-M    P1
_symmetry_Int_Tables_number       1
_space_group_crystal_system       triclinic
_cell_length_a                    10.756144
_cell_length_b                    10.96706
_cell_length_c                    9.873071
_cell_angle_alpha                 110.878075
_cell_angle_beta                  97.647758
_cell_angle_gamma                 92.350588
_cell_volume                      1073.57972464

loop_
_atom_site_label
_atom_site_type_symbol
_atom_site_description
_atom_site_fract_x
_atom_site_fract_y
_atom_site_fract_z
_atom_type_partial_charge
O1    O     O_R   0.511820 0.332340 0.577400 -0.581003
O2    O     O_R   0.474400 0.295500 0.332650 -0.532238
C1    C     C_R   0.486945 0.253251 0.440885 0.814203
O3    O     O_R   0.336400 0.518400 0.622370 -0.593418
O4    O     O_R   0.298980 0.481560 0.377620 -0.577442
C2    C     C_R   0.260603 0.500332 0.501851 0.756395
Cu1   Cu    Cu3+1 0.522160 0.521810 0.644910 0.985245
Cu2   Cu    Cu3+1 0.477840 0.478190 0.355090 1.035421
O5    O     O_R   0.525600 0.704500 0.667350 -0.578798
O6    O     O_R   0.488180 0.667660 0.422600 -0.476163
O7    O     O_R   0.701020 0.518440 0.622380 -0.555860
O8    O     O_R   0.663600 0.481600 0.377630 -0.568538
C3    C     C_R   0.503413 0.745568 0.558660 0.865647
C4    C     C_R   0.740283 0.501482 0.499763 0.755631
C5    C     C_3   0.095317 0.541035 0.664186 -0.418788
H1    H     H_    0.149560 0.636534 0.734225 0.198479
C6    C     C_3   0.952370 0.548259 0.664888 -0.151843
H2    H     H_    0.921494 0.477955 0.714911 0.159383
C7    C     C_3   0.070703 0.600392 0.439069 -0.337407
C8    C     C_3   0.057750 0.361846 0.412981 -0.410529
C9    C     C_3   0.123764 0.500807 0.504987 0.090679
H3    H     H_    0.099636 0.288642 0.455261 0.163739
C10   C     C_3   0.879407 0.501258 0.501847 -0.039197
C11   C     C_3   0.926666 0.593544 0.427776 -0.353488
C12   C     C_3   0.914647 0.358526 0.420995 -0.189304
H4    H     H_    0.895974 0.300563 0.489928 0.141924
H5    H     H_    0.095549 0.579362 0.327612 0.191453
H6    H     H_    0.886103 0.556293 0.310912 0.248355
H7    H     H_    0.478162 0.142265 0.635801 0.185403
C13   C     C_2   0.468563 0.111668 0.409486 -0.168798
C14   C     C_2   0.461467 0.072110 0.523439 -0.278061
C15   C     C_2   0.507197 0.885276 0.587560 -0.362033
C16   C     C_2   0.431019 0.935473 0.505265 0.079082
N1    N     N_2   0.444530 0.445420 0.137360 -0.309937
C17   C     C_2   0.518481 0.500321 0.075587 0.093468
N2    N     N_2   0.555520 0.554510 0.862630 -0.265277
C18   C     C_2   0.489619 0.486184 0.917147 -0.112779
H8    H     H_    0.360860 0.396588 0.073639 0.198681
C19   C     C_2   0.836830 0.284983 0.271339 0.886121
O9    O     O_2   0.849794 0.316110 0.166459 -0.549539
O10   O     O_R   0.750541 0.179483 0.253605 -0.763893
H9    H     H_    0.703383 0.138052 0.149600 0.345504
C20   C     C_2   0.310745 0.866188 0.409958 0.848973
O11   O     O_2   0.212799 0.917387 0.431934 -0.603207
O12   O     O_R   0.309296 0.749103 0.290642 -0.710994
H10   H     H_    0.221931 0.716118 0.231977 0.322320
H11   H     H_    0.582869 0.948088 0.670582 0.162285
C21   C     C_2   0.457988 0.017540 0.255074 0.895900
O13   O     O_2   0.404625 0.045249 0.154009 -0.580756
O14   O     O_R   0.511754 0.898700 0.224995 -0.693276
H12   H     H_    0.498654 0.843620 0.116231 0.336910
H13   H     H_    0.413973 0.414721 0.845296 0.154020
C22   C     C_2   0.642155 0.569893 0.153231 0.907462
O15   O     O_2   0.736437 0.526788 0.104303 -0.586032
O16   O     O_R   0.651214 0.692153 0.266050 -0.704360
H14   H     H_    0.740799 0.734978 0.299836 0.319051
H15   H     H_    0.623207 0.627227 0.930667 0.239685
H16   H     H_    0.127950 0.467641 0.711812 0.171166
C23   C     C_2   0.925733 0.683103 0.765039 0.883208
O17   O     O_2   0.958830 0.781737 0.743426 -0.594149
O18   O     O_R   0.866031 0.694050 0.885742 -0.735626
H17   H     H_    0.853487 0.788143 0.945108 0.338647
H18   H     H_    0.112682 0.701400 0.509020 0.203843
H19   H     H_    0.896101 0.693263 0.476099 0.195106
H20   H     H_    0.075249 0.333983 0.297623 0.209347

loop_
_geom_bond_atom_site_label_1
_geom_bond_atom_site_label_2
_geom_bond_distance
_ccdc_geom_bond_type
C4    C10   1.493944 S    
C1    C13   1.470244 S    
C10   C11   1.549798 S    
C14   C16   1.461989 S    
C5    C6    1.543648 S    
C5    H16   1.114093 S    
O4    Cu2   1.966187 S    
C7    H5    1.112645 S    
O10   H9    1.013939 S    
C3    C15   1.452871 S    
O18   H17   1.013894 S    
C5    C9    1.550352 S    
Cu2   O8    1.978070 S    
C15   C16   1.346568 D    
O16   H14   1.012924 S    
C21   O14   1.397483 S    
C6    H2    1.114798 S    
O8    C4    1.309583 A    
Cu1   Cu2   2.699324 S    
H7    C14   1.087273 S    
Cu2   N1    2.027897 S    
C22   O15   1.221551 D    
C12   C19   1.516687 S    
Cu1   O7    1.966187 S    
C20   O12   1.397184 S    
C6    C10   1.584915 S    
C6    C23   1.521415 S    
O3    Cu1   1.978070 S    
O4    C2    1.295741 A    
O3    C2    1.296256 A    
N2    C18   1.303504 D    
O7    C4    1.288629 A    
C8    H3    1.113663 S    
O2    C1    1.301730 A    
O1    C1    1.300868 A    
C10   C12   1.571554 S    
C20   O11   1.222621 D    
C13   C14   1.351988 D    
C15   H11   1.087600 S    
C23   O18   1.398218 S    
C17   C22   1.472359 S    
C8    C12   1.551353 S    
C22   O16   1.394240 S    
C5    H1    1.114355 S    
C16   C20   1.490694 S    
O12   H10   1.013557 S    
C8    H20   1.113415 S    
C23   O17   1.222922 D    
C8    C9    1.550724 S    
C19   O10   1.398232 S    
C11   H6    1.097236 S    
Cu2   O6    1.936119 S    
N1    C17   1.311023 D    
Cu1   N2    2.027977 S    
C13   C21   1.491726 S    
C19   O9    1.222573 D    
Cu1   O5    1.933934 S    
C18   H13   1.085036 S    
O5    C3    1.302507 A    
C21   O13   1.222879 D    
N2    H15   1.028426 S    
O14   H12   1.014036 S    
C17   C18   1.503775 S    
C12   H4    1.114403 S    
O1    Cu1   1.936119 S    
C2    C9    1.476473 S    
C7    C11   1.535211 S    
O2    Cu2   1.933934 S    
C11   H19   1.109532 S    
C7    H18   1.112957 S    
C7    C9    1.549512 S    
O6    C3    1.293547 A    
N1    H8    1.030612 S    
