data_mof_unit_10802.cif
_audit_creation_date              2012-12-11T14:34:16-0500
_audit_creation_method            fapswitch 2.2
_symmetry_space_group_name_H-M    P1
_symmetry_Int_Tables_number       1
_space_group_crystal_system       triclinic
_cell_length_a                    13.807564
_cell_length_b                    13.94883
_cell_length_c                    27.365068
_cell_angle_alpha                 90.233915
_cell_angle_beta                  89.538407
_cell_angle_gamma                 119.451447
_cell_volume                      4589.25371989

loop_
_atom_site_label
_atom_site_type_symbol
_atom_type_description
_atom_site_fract_x
_atom_site_fract_y
_atom_site_fract_z
_atom_type_partial_charge
C1    C     C_R   0.233463 0.787320 0.568696 0.536004
C2    C     C_1   0.705790 0.860642 0.860418 -0.078084
C3    C     C_3   0.001910 0.742337 0.404207 -0.256330
C4    C     C_3   0.969553 0.832791 0.409630 -0.313003
C5    C     C_3   0.868925 0.795788 0.443438 -0.445762
C6    C     C_3   0.296576 0.278077 0.407783 -0.253516
C7    C     C_3   0.232111 0.154321 0.419889 -0.317657
C8    C     C_3   0.299254 0.121147 0.452904 -0.443892
C9    C     C_1   0.112576 0.883637 0.852279 -0.078073
C10   C     C_1   0.119135 0.235296 0.852638 -0.077589
C11   C     C_1   0.625340 0.812237 0.659557 -0.077229
C12   C     C_1   0.174934 0.820498 0.655948 -0.077662
C13   C     C_1   0.179870 0.360538 0.656710 -0.077994
C14   C     C_1   0.598727 0.794937 0.617198 -0.020931
C15   C     C_1   0.197564 0.806865 0.614915 -0.022094
C16   C     C_1   0.193137 0.394332 0.615464 -0.021535
C17   C     C_R   0.063615 0.149673 0.095912 0.577679
C18   C     C_R   0.212464 0.446620 0.568869 0.539788
C19   C     C_R   0.776782 0.884655 0.087984 0.547711
C20   C     C_R   0.115548 0.892862 0.087689 0.558153
C21   C     C_R   0.070469 0.161338 0.943050 0.538029
C22   C     C_R   0.779875 0.887147 0.950705 0.541536
C23   C     C_R   0.090557 0.930467 0.943593 0.538592
C24   C     C_R   0.664560 0.910742 0.366114 -0.015655
C25   C     C_R   0.096165 0.774961 0.367164 -0.018289
C26   C     C_R   0.231421 0.308583 0.372340 -0.013416
C27   C     C_R   0.678226 0.923426 0.314536 0.021300
C28   C     C_R   0.078371 0.778848 0.316271 0.025641
C29   C     C_R   0.552145 0.764992 0.569229 0.537152
C30   C     C_R   0.211173 0.265956 0.323617 0.026455
C31   C     C_R   0.703247 0.943152 0.211817 0.012756
C32   C     C_R   0.048249 0.790780 0.215185 0.009017
C33   C     C_R   0.172687 0.190613 0.225317 0.015003
C34   C     C_R   0.233485 0.788015 0.431594 0.528854
C35   C     C_R   0.210841 0.442166 0.432039 0.536347
C36   C     C_R   0.557540 0.767430 0.432047 0.534320
C37   C     C_R   0.715317 0.032082 0.240016 -0.140741
C38   C     C_R   0.956562 0.746470 0.246833 -0.138559
C39   C     C_R   0.252597 0.182217 0.253306 -0.135426
C40   C     C_3   0.680191 0.741725 0.788612 -0.211151
C41   C     C_R   0.703348 0.022736 0.290742 -0.145113
C42   C     C_R   0.971175 0.740546 0.296768 -0.137967
C43   C     C_R   0.271239 0.218668 0.301844 -0.140485
C44   C     C_R   0.725649 0.954894 0.161631 -0.142449
C45   C     C_R   0.034711 0.802775 0.165778 -0.135596
C46   C     C_R   0.158014 0.161336 0.175619 -0.140252
C47   C     C_R   0.719742 0.866381 0.134753 -0.007379
C48   C     C_R   0.128163 0.855680 0.135075 -0.005055
C49   C     C_R   0.078481 0.172782 0.148379 -0.009629
C50   C     C_R   0.618631 0.718685 0.357002 -0.145568
C51   C     C_3   0.239307 0.959817 0.781527 -0.212840
C52   C     C_R   0.294781 0.848919 0.349573 -0.136632
C53   C     C_R   0.096967 0.371889 0.359302 -0.146277
C54   C     C_R   0.636864 0.731500 0.307387 0.002448
C55   C     C_R   0.279048 0.857975 0.300750 -0.003307
C56   C     C_R   0.068746 0.320843 0.314530 -0.000375
C57   C     C_R   0.662557 0.832392 0.285547 0.047949
C58   C     C_R   0.170860 0.821266 0.283560 0.047811
C59   C     C_R   0.129144 0.272430 0.295269 0.047678
C60   C     C_R   0.622358 0.641564 0.279066 -0.136709
C61   C     C_R   0.370717 0.901148 0.268818 -0.133656
C62   C     C_3   0.024970 0.243965 0.777828 -0.215499
C63   C     C_R   0.984421 0.323747 0.287650 -0.135732
C64   C     C_R   0.632906 0.651017 0.228688 -0.139688
C65   C     C_R   0.355908 0.910162 0.219362 -0.132338
C66   C     C_R   0.962488 0.282540 0.240552 -0.129435
C67   C     C_R   0.659695 0.750956 0.206339 0.010932
C68   C     C_R   0.249137 0.874516 0.201457 0.012573
C69   C     C_R   0.025224 0.238897 0.219844 0.018968
C70   C     C_3   0.548476 0.827137 0.739837 -0.212410
C71   C     C_3   0.146737 0.738680 0.738642 -0.214254
C72   C     C_3   0.234637 0.429252 0.741345 -0.214347
C73   C     C_3   0.659907 0.729195 0.732712 -0.212903
C74   C     C_R   0.674282 0.842065 0.234559 0.063196
C75   C     C_R   0.155883 0.828032 0.233388 0.063128
C76   C     C_R   0.108378 0.232788 0.247005 0.063841
C77   C     C_R   0.679159 0.763006 0.156452 -0.135456
C78   C     C_R   0.234514 0.888658 0.152418 -0.141923
C79   C     C_R   0.008722 0.205687 0.171573 -0.124225
C80   C     C_R   0.620803 0.803135 0.385805 -0.006356
C81   C     C_R   0.205414 0.806395 0.382701 0.010263
C82   C     C_R   0.180832 0.371659 0.387873 -0.005903
C83   C     C_3   0.754710 0.934838 0.723741 -0.215918
C84   C     C_3   0.255456 0.944063 0.726669 -0.212809
C85   C     C_3   0.048493 0.842999 0.714660 -0.213842
C86   C     C_3   0.202281 0.241303 0.717630 -0.214145
C87   C     C_3   0.774842 0.947626 0.779665 -0.214388
C88   C     C_3   0.030701 0.858074 0.769598 -0.213020
C89   C     C_3   0.186107 0.208010 0.772311 -0.216779
C90   C     C_1   0.734061 0.872370 0.902604 -0.029292
C91   C     C_1   0.102313 0.903606 0.894208 -0.025312
C92   C     C_1   0.099360 0.202863 0.894207 -0.026653
C93   C     C_3   0.647074 0.825964 0.712480 0.072803
C94   C     C_3   0.156187 0.835996 0.707542 0.072626
C95   C     C_3   0.040996 0.277157 0.723215 -0.212996
C96   C     C_3   0.164917 0.327566 0.708300 0.073246
C97   C     C_3   0.569177 0.839744 0.795835 -0.215503
C98   C     C_3   0.129717 0.755471 0.793547 -0.213006
C99   C     C_3   0.218313 0.395440 0.796096 -0.210980
C100  C     C_3   0.682327 0.847611 0.807618 0.073275
C101  C     C_3   0.127387 0.864509 0.800626 0.072390
C102  C     C_3   0.137220 0.270308 0.801173 0.071942
C103  C     C_3   0.704123 0.010361 0.399704 -0.252702
C104  C     C_3   0.831634 0.081674 0.398188 -0.311620
C105  C     C_3   0.872067 0.177333 0.434213 -0.448855
Cr1   Cr    Cr6+3 0.164410 0.584450 0.499910 1.007039
Cr2   Cr    Cr6+3 0.415550 0.579960 0.499910 1.003955
Cr3   Cr    Cr6+3 0.420040 0.835590 0.499910 0.999986
Cr4   Cr    Cr6+3 0.155170 0.075460 0.019960 1.019314
Cr5   Cr    Cr6+3 0.924540 0.079710 0.019960 1.002718
Cr6   Cr    Cr6+3 0.920290 0.844830 0.019960 1.007957
H1    H     H_    0.568282 0.914903 0.808995 0.111877
H2    H     H_    0.760341 0.744701 0.796863 0.108171
H3    H     H_    0.242377 0.039983 0.787108 0.105363
H4    H     H_    0.965810 0.154601 0.780989 0.103990
H5    H     H_    0.734792 0.109282 0.222804 0.101603
H6    H     H_    0.873432 0.717677 0.233022 0.120991
H7    H     H_    0.302013 0.148920 0.237443 0.116712
H8    H     H_    0.712635 0.093708 0.310714 0.110276
H9    H     H_    0.897304 0.705457 0.319451 0.116535
H10   H     H_    0.335496 0.212164 0.321325 0.112830
H11   H     H_    0.672865 0.694242 0.135264 0.124577
H12   H     H_    0.050410 0.684893 0.806923 0.114352
H13   H     H_    0.305908 0.929584 0.128156 0.116551
H14   H     H_    0.943995 0.210504 0.151353 0.122436
H15   H     H_    0.622291 0.580946 0.207312 0.108492
H16   H     H_    0.427805 0.945514 0.195237 0.114145
H17   H     H_    0.899315 0.288590 0.219709 0.098760
H18   H     H_    0.601640 0.563476 0.295869 0.104965
H19   H     H_    0.454004 0.928785 0.282207 0.121051
H20   H     H_    0.937266 0.360426 0.302634 0.104342
H21   H     H_    0.537485 0.896253 0.726221 0.111444
H22   H     H_    0.075648 0.659838 0.725722 0.112434
H23   H     H_    0.300080 0.416837 0.812407 0.114070
H24   H     H_    0.324381 0.467227 0.731475 0.109580
H25   H     H_    0.592667 0.637918 0.372252 0.136213
H26   H     H_    0.378245 0.872073 0.361622 0.140911
H27   H     H_    0.053936 0.415408 0.371142 0.142548
H28   H     H_    0.827105 0.935665 0.705122 0.107127
H29   H     H_    0.054013 0.913461 0.693443 0.106771
H30   H     H_    0.153133 0.166994 0.694668 0.107553
H31   H     H_    0.748037 0.006015 0.709550 0.110269
H32   H     H_    0.975688 0.766739 0.700731 0.110119
H33   H     H_    0.291354 0.275689 0.707251 0.111890
H34   H     H_    0.469811 0.749457 0.732400 0.107801
H35   H     H_    0.776393 0.024292 0.792301 0.108843
H36   H     H_    0.950596 0.787520 0.782169 0.108028
H37   H     H_    0.267291 0.226043 0.788193 0.109336
H38   H     H_    0.857340 0.955643 0.787758 0.102061
H39   H     H_    0.023822 0.933408 0.774620 0.097628
H40   H     H_    0.128631 0.118258 0.775357 0.104619
H41   H     H_    0.730800 0.726885 0.714171 0.110004
H42   H     H_    0.262969 0.015579 0.705613 0.111582
H43   H     H_    0.988909 0.203416 0.700393 0.109327
H44   H     H_    0.613340 0.668333 0.807656 0.113258
H45   H     H_    0.223435 0.732010 0.734167 0.107105
H46   H     H_    0.309395 0.962878 0.802618 0.114491
H47   H     H_    0.987952 0.288182 0.797660 0.114940
H48   H     H_    0.755811 0.034522 0.144423 0.108351
H49   H     H_    0.952319 0.778476 0.152011 0.131427
H50   H     H_    0.209104 0.131858 0.158076 0.127061
H51   H     H_    0.841716 0.234515 0.423291 0.150266
H52   H     H_    0.842196 0.146530 0.471775 0.149542
H53   H     H_    0.964292 0.222972 0.434557 0.161142
H54   H     H_    0.869786 0.030365 0.407900 0.159406
H55   H     H_    0.861470 0.115555 0.361063 0.179845
H56   H     H_    0.209353 0.492776 0.735415 0.107944
H57   H     H_    0.663488 0.059315 0.389952 0.130314
H58   H     H_    0.682015 0.985431 0.438290 0.166872
H59   H     H_    0.795985 0.721690 0.428288 0.159697
H60   H     H_    0.887658 0.776520 0.480342 0.152792
H61   H     H_    0.847533 0.862494 0.446963 0.141346
H62   H     H_    0.040798 0.907956 0.425114 0.156813
H63   H     H_    0.949460 0.855049 0.373698 0.172695
H64   H     H_    0.929271 0.662667 0.393486 0.131185
H65   H     H_    0.025023 0.728177 0.441011 0.160485
H66   H     H_    0.377786 0.137499 0.434368 0.156216
H67   H     H_    0.500824 0.767978 0.815123 0.111494
H68   H     H_    0.319029 0.167700 0.487817 0.150136
H69   H     H_    0.250080 0.031778 0.461180 0.157436
H70   H     H_    0.152856 0.134830 0.438741 0.156391
H71   H     H_    0.210867 0.103546 0.386215 0.171575
H72   H     H_    0.380075 0.302199 0.392353 0.129080
H73   H     H_    0.311455 0.321686 0.443010 0.169533
H74   H     H_    0.583583 0.649554 0.725014 0.111141
H75   H     H_    0.334483 0.942025 0.721427 0.110896
H76   H     H_    0.012020 0.337724 0.716809 0.113342
H77   H     H_    0.198251 0.757001 0.815290 0.114308
H78   H     H_    0.185037 0.442536 0.816322 0.115909
O1    O     O_R   0.137150 0.468200 0.553200 -0.512799
O2    O     O_R   0.140110 0.470540 0.446010 -0.526598
O3    O     O_R   0.529460 0.669570 0.446010 -0.525152
O4    O     O_R   0.330430 0.859890 0.446010 -0.527874
O5    O     O_R   0.176710 0.690910 0.450560 -0.503714
O6    O     O_R   0.309090 0.485800 0.450560 -0.504935
O7    O     O_R   0.514200 0.823290 0.450560 -0.507271
O8    O     O_3   0.333333 0.666667 0.499990 -0.252660
O9    O     O_R   0.176750 0.985260 0.074180 -0.527040
O10   O     O_R   0.014740 0.191490 0.074180 -0.502097
O11   O     O_R   0.808510 0.823250 0.074180 -0.517178
O12   O     O_R   0.531800 0.668950 0.553200 -0.513129
O13   O     O_R   0.146100 0.172630 0.068980 -0.471477
O14   O     O_R   0.827370 0.973470 0.068980 -0.519383
O15   O     O_R   0.026530 0.853900 0.068980 -0.492582
O16   O     O_3   0.000000 0.000000 0.020040 -0.286543
O17   O     O_R   0.148270 0.170520 0.969620 -0.489991
O18   O     O_R   0.829480 0.977750 0.969620 -0.519759
O19   O     O_R   0.022250 0.851730 0.969620 -0.481234
O20   O     O_R   0.331050 0.862850 0.553200 -0.511569
O21   O     O_R   0.179100 0.982980 0.967000 -0.505515
O22   O     O_R   0.017020 0.196120 0.967000 -0.483621
O23   O     O_R   0.803880 0.820900 0.967000 -0.511485
O24   O     O_R   0.173970 0.688730 0.549930 -0.502255
O25   O     O_R   0.311270 0.485240 0.549930 -0.503865
O26   O     O_R   0.514760 0.826030 0.549930 -0.501091

loop_
_geom_bond_atom_site_label_1
_geom_bond_atom_site_label_2
_ccdc_geom_bond_type
C57   C74   A    
C89   H37   S    
C83   C87   S    
C87   H35   S    
C89   C102  S    
C32   C45   A    
C84   H75   S    
Cr5   O22   S    
C67   C77   A    
C24   C27   A    
C73   C93   S    
C42   H9    S    
C9    C91   T    
C32   C75   A    
C83   H28   S    
C88   C101  S    
C86   H33   S    
C7    C8    S    
Cr1   O5    S    
C71   C94   S    
C54   C60   A    
Cr6   O19   S    
C25   C28   A    
C46   C49   A    
C19   O11   A    
C33   C39   A    
C65   H16   S    
Cr4   O13   S    
Cr2   O12   S    
C23   O19   A    
C11   C14   T    
C19   C47   S    
C85   H32   S    
C45   C48   A    
C66   C69   A    
C83   C93   S    
C40   C73   S    
C69   C76   A    
C85   C94   S    
C48   C78   A    
Cr3   O8    S    
C2    C90   T    
C56   C59   A    
C8    H69   S    
Cr6   O23   S    
C98   H77   S    
C77   H11   S    
C104  H54   S    
C38   H6    S    
C8    H66   S    
C24   C80   A    
C95   C96   S    
C46   H50   S    
C22   O23   A    
Cr2   O3    S    
C5    H59   S    
C62   H47   S    
C40   H44   S    
Cr5   O18   S    
C1    C15   S    
C34   C81   S    
C32   C38   A    
Cr3   O7    S    
C78   H13   S    
Cr6   O16   S    
C44   C47   A    
C35   O6    A    
C34   O5    A    
C79   H14   S    
C63   C66   A    
C10   C92   T    
C103  H57   S    
C26   C82   A    
C4    H63   S    
C62   C95   S    
C72   C99   S    
C25   C81   A    
C33   C46   A    
C12   C94   S    
Cr4   O9    S    
C18   O25   A    
C45   H49   S    
Cr1   O2    S    
Cr2   O6    S    
C104  C105  S    
C35   C82   S    
C58   C75   A    
Cr3   O20   S    
C68   C78   A    
C98   H12   S    
C71   C98   S    
C105  H53   S    
C51   H3    S    
C29   O12   A    
C31   C44   A    
C7    H70   S    
C13   C96   S    
C1    O20   A    
C53   H27   S    
C64   C67   A    
C3    C25   S    
C70   C93   S    
C20   O15   A    
C36   C80   S    
C17   C49   S    
C17   O13   A    
C37   H5    S    
C97   H1    S    
C31   C74   A    
C39   C43   A    
C104  H55   S    
C51   H46   S    
C21   O22   A    
C99   H23   S    
C6    H73   S    
Cr5   O14   S    
C68   C75   A    
C21   O17   A    
C60   H18   S    
C36   O7    A    
C71   H22   S    
C61   C65   A    
Cr6   O11   S    
C84   H42   S    
C27   C41   A    
C33   C76   A    
C40   H2    S    
C12   C15   T    
C10   C102  S    
C21   C92   S    
C65   C68   A    
C30   C59   A    
C70   H21   S    
C52   H26   S    
C22   C90   S    
C56   C63   A    
C67   C74   A    
C84   C94   S    
C41   H8    S    
Cr4   O16   S    
C85   H29   S    
C20   O9    A    
C95   H76   S    
C20   C48   S    
C86   C96   S    
C61   H19   S    
Cr1   O8    S    
C34   O4    A    
C3    H64   S    
C70   C97   S    
C26   C30   A    
C63   H20   S    
C4    H62   S    
C73   H41   S    
C27   C57   A    
C72   H56   S    
C23   C91   S    
C30   C43   A    
C69   C79   A    
C47   C77   A    
C14   C29   S    
C3    C4    S    
C98   C101  S    
C97   C100  S    
C49   C79   A    
C5    H60   S    
Cr1   O1    S    
Cr2   O8    S    
C87   C100  S    
C85   C88   S    
Cr1   O24   S    
C43   H10   S    
C18   O1    A    
C35   O2    A    
C7    H71   S    
C52   C81   A    
Cr5   O10   S    
C36   O3    A    
C88   H39   S    
C70   H34   S    
C16   C18   S    
C51   C84   S    
C4    C5    S    
C72   H24   S    
C86   C89   S    
C50   C80   A    
Cr6   O15   S    
C40   C100  S    
C83   H31   S    
C73   H74   S    
C52   C55   A    
C38   C42   A    
C6    C7    S    
C19   O14   A    
C23   O21   A    
C28   C58   A    
C51   C101  S    
C39   H7    S    
C64   H15   S    
C105  H52   S    
C6    H72   S    
C60   C64   A    
C95   H43   S    
C24   C103  S    
C13   C16   T    
C62   H4    S    
C50   C54   A    
C50   H25   S    
C1    O24   A    
C8    H68   S    
C11   C93   S    
C97   H67   S    
C6    C26   S    
Cr2   O25   S    
C71   H45   S    
C55   C61   A    
C28   C42   A    
C88   H36   S    
C66   H17   S    
C22   O18   A    
C17   O10   A    
Cr5   O16   S    
C37   C41   A    
Cr4   O17   S    
C53   C56   A    
Cr3   O26   S    
C29   O26   A    
C2    C100  S    
C72   C96   S    
C31   C37   A    
C3    H65   S    
C89   H40   S    
C99   C102  S    
C9    C101  S    
C87   H38   S    
C55   C58   A    
C103  C104  S    
C103  H58   S    
C44   H48   S    
C5    H61   S    
C105  H51   S    
C53   C82   A    
Cr3   O4    S    
C59   C76   A    
C99   H78   S    
Cr4   O21   S    
C86   H30   S    
C62   C102  S    
C54   C57   A    
