data_mof_unit_66676.cif
_audit_creation_date              2012-12-10T18:00:19-0500
_audit_creation_method            fapswitch 2.2
_symmetry_space_group_name_H-M    P1
_symmetry_Int_Tables_number       1
_space_group_crystal_system       triclinic
_cell_length_a                    10.93927
_cell_length_b                    9.831894
_cell_length_c                    11.148478
_cell_angle_alpha                 86.369944
_cell_angle_beta                  105.954982
_cell_angle_gamma                 90.763562
_cell_volume                      1150.54684668

loop_
_atom_site_label
_atom_site_type_symbol
_atom_type_description
_atom_site_fract_x
_atom_site_fract_y
_atom_site_fract_z
_atom_type_partial_charge
C1    C     C_R   0.866862 0.497513 0.477310 -0.286360
C2    C     C_R   0.132295 0.503544 0.520282 -0.320818
C3    C     C_R   0.264832 0.500055 0.508667 0.729524
C4    C     C_R   0.734769 0.500196 0.490241 0.747311
C5    C     C_R   0.492414 0.503150 0.257676 0.900619
C6    C     C_R   0.506048 0.496775 0.742132 0.887092
C7    C     C_3   0.442854 0.616929 0.009279 0.340811
C8    C     C_3   0.551194 0.382760 0.989092 0.399477
C9    C     C_3   0.567796 0.602582 0.973743 0.276543
C10   C     C_3   0.426047 0.396323 0.025125 0.363894
C11   C     C_3   0.383100 0.507060 0.917899 -0.278305
C12   C     C_3   0.611437 0.491513 0.080755 -0.268481
C13   C     C_3   0.508175 0.493137 0.880413 -0.364204
C14   C     C_3   0.486471 0.506469 0.118705 -0.336496
C15   C     C_R   0.399940 0.078270 0.421090 0.358515
C16   C     C_R   0.600278 0.921575 0.578796 0.361569
C17   C     C_R   0.597633 0.070234 0.580632 0.260647
C18   C     C_R   0.402591 0.929639 0.419311 0.277732
C19   C     C_R   0.071923 0.382434 0.545597 -0.004863
C20   C     C_R   0.927562 0.619430 0.453554 -0.005830
C21   C     C_R   0.938620 0.374561 0.502072 -0.011031
C22   C     C_R   0.061018 0.626803 0.497062 -0.023009
Cu1   Cu    Cu3+1 0.500000 0.640660 0.500000 1.132164
Cu2   Cu    Cu3+1 0.500000 0.359340 0.500000 1.136727
N1    N     N_R   0.500000 0.852070 0.500000 -0.311354
N2    N     N_R   0.500000 0.147930 0.500000 -0.309582
O1    O     O_R   0.319640 0.618740 0.499990 -0.566594
O2    O     O_R   0.680360 0.381260 0.500010 -0.564300
O3    O     O_R   0.680360 0.618740 0.500010 -0.527402
O4    O     O_R   0.319640 0.381260 0.499990 -0.523443
O5    O     O_R   0.499970 0.618770 0.316850 -0.516797
O6    O     O_R   0.500030 0.381230 0.683150 -0.513620
O7    O     O_R   0.500030 0.618770 0.683150 -0.511812
O8    O     O_R   0.499970 0.381230 0.316850 -0.510109
S1    S     S_3+6 0.251708 0.169608 0.341273 0.168713
O9    O     O_2   0.161587 0.111499 0.230097 -0.096455
O10   O     O_2   0.180062 0.169842 0.437079 -0.281267
O11   O     O_3   0.270880 0.329489 0.288031 -0.472248
H1    H     H_    0.185326 0.372057 0.267272 0.365706
S2    S     S_3+6 0.748276 0.829663 0.659959 0.177304
O12   O     O_2   0.821588 0.830428 0.565699 -0.283052
O13   O     O_2   0.837300 0.886782 0.772328 -0.081059
O14   O     O_3   0.728940 0.669400 0.712138 -0.454976
H2    H     H_    0.814576 0.626975 0.733263 0.365131
S3    S     S_3+6 0.723840 0.148680 0.695023 0.143201
O15   O     O_2   0.731046 0.076420 0.818501 -0.121213
O16   O     O_2   0.846291 0.123134 0.664900 -0.230084
O17   O     O_3   0.720412 0.314446 0.719623 -0.486212
H3    H     H_    0.809688 0.339414 0.759914 0.376091
S4    S     S_3+6 0.276860 0.850820 0.304938 0.150314
O18   O     O_2   0.154305 0.875699 0.335164 -0.227439
O19   O     O_2   0.270142 0.923406 0.181712 -0.122031
O20   O     O_3   0.280267 0.685137 0.280144 -0.483470
H4    H     H_    0.190709 0.659505 0.241958 0.369297
C23   C     C_2   0.254168 0.525832 0.827749 0.519401
H5    H     H_    0.244743 0.593300 0.746327 0.011130
O21   O     O_2   0.160014 0.472253 0.847682 -0.469251
C24   C     C_2   0.745771 0.484826 0.161926 0.447367
H6    H     H_    0.802328 0.575870 0.176533 0.107000
O22   O     O_2   0.794207 0.376563 0.208437 -0.524449
S5    S     S_3+6 0.359539 0.772207 0.994373 0.086424
O23   O     O_2   0.332588 0.832321 0.862296 -0.335880
O24   O     O_2   0.234707 0.743449 0.022143 -0.170268
O25   O     O_3   0.451200 0.878085 0.093540 -0.437258
H7    H     H_    0.463992 0.958455 0.040589 0.419971
S6    S     S_3+6 0.626860 0.225884 0.993753 0.136825
O26   O     O_2   0.756927 0.254177 0.977736 -0.182508
O27   O     O_2   0.545895 0.148660 0.889404 -0.252447
O28   O     O_3   0.640856 0.139106 0.131830 -0.474668
H8    H     H_    0.719005 0.083410 0.147113 0.422096
S7    S     S_3+6 0.667928 0.743721 0.962690 0.105775
O29   O     O_2   0.689921 0.823990 0.076835 -0.279200
O30   O     O_2   0.794447 0.694425 0.954408 -0.196700
O31   O     O_3   0.595114 0.841647 0.835693 -0.448638
H9    H     H_    0.546337 0.908879 0.865539 0.402265
S8    S     S_3+6 0.328968 0.252167 0.037725 0.138400
O32   O     O_2   0.202134 0.297661 0.048227 -0.169488
O33   O     O_2   0.396191 0.164048 0.150501 -0.214720
O34   O     O_3   0.305051 0.162495 0.910200 -0.490149
H10   H     H_    0.247812 0.087398 0.922988 0.432905
C25   C     C_2   0.145725 0.278575 0.640383 0.631991
H11   H     H_    0.247781 0.287866 0.677336 0.072818
O35   O     O_2   0.093430 0.184779 0.683259 -0.401586
C26   C     C_2   0.853811 0.726727 0.362389 0.549215
H12   H     H_    0.751249 0.720796 0.328221 0.073319
O36   O     O_2   0.906472 0.819599 0.318668 -0.396466
C27   C     C_2   0.879446 0.244518 0.450954 0.652233
H13   H     H_    0.779535 0.238463 0.402488 0.105776
O37   O     O_2   0.942713 0.142290 0.454894 -0.379556
C28   C     C_2   0.120683 0.755977 0.550260 0.601542
H14   H     H_    0.220824 0.762334 0.597342 0.077101
O38   O     O_2   0.057663 0.857867 0.548316 -0.364787

loop_
_geom_bond_atom_site_label_1
_geom_bond_atom_site_label_2
_ccdc_geom_bond_type
C15   C18   A    
S6    O27   D    
C23   H5    S    
C21   C27   S    
C1    C21   A    
C8    C13   S    
C3    O4    A    
C6    O6    A    
S1    O9    D    
S8    O34   S    
C27   H13   S    
C25   H11   S    
O20   H4    S    
C7    C11   S    
C17   N2    A    
Cu1   O3    S    
C19   C21   A    
Cu2   N2    S    
O11   H1    S    
S6    O28   S    
C24   O22   D    
S5    O24   D    
C9    C13   S    
C7    S5    S    
C4    O2    A    
C10   S8    S    
C7    C14   S    
C16   C17   A    
Cu1   O7    S    
C2    C22   A    
S4    O19   D    
Cu1   Cu2   S    
C8    S6    S    
Cu1   O1    S    
C4    O3    A    
C12   C24   S    
S2    O13   D    
S6    O26   D    
O28   H8    S    
C18   N1    A    
C15   S1    S    
C25   O35   D    
S3    O16   D    
S4    O20   S    
O31   H9    S    
S8    O33   D    
Cu2   O2    S    
S1    O11   S    
S8    O32   D    
C10   C14   S    
S7    O30   D    
C15   N2    A    
C24   H6    S    
S3    O15   D    
Cu2   O8    S    
Cu1   O5    S    
S5    O25   S    
O14   H2    S    
Cu2   O6    S    
C28   O38   D    
C8    C12   S    
C5    O8    A    
S2    O14   S    
S4    O18   D    
C22   C28   S    
C26   H12   S    
C5    C14   S    
C16   S2    S    
O17   H3    S    
C20   C22   A    
C20   C26   S    
C11   C23   S    
C18   S4    S    
S3    O17   S    
C16   N1    A    
C7    C9    S    
S2    O12   D    
C1    C20   A    
S1    O10   D    
C2    C19   A    
C9    S7    S    
C17   S3    S    
S7    O31   S    
C6    O7    A    
C1    C4    S    
O25   H7    S    
C23   O21   D    
C2    C3    S    
C12   C14   S    
S7    O29   D    
C6    C13   S    
C11   C13   S    
C28   H14   S    
C3    O1    A    
Cu1   N1    S    
S5    O23   D    
C9    C12   S    
Cu2   O4    S    
C10   C11   S    
O34   H10   S    
C8    C10   S    
C27   O37   D    
C26   O36   D    
C19   C25   S    
C5    O5    A    
