data_mof_unit_20926.cif
_audit_creation_date              2012-10-26T21:23:28-0400
_audit_creation_method            fapswitch 2.2
_symmetry_space_group_name_H-M    P1
_symmetry_Int_Tables_number       1
_space_group_crystal_system       triclinic
_cell_length_a                    27.60828
_cell_length_b                    10.922452
_cell_length_c                    9.71526
_cell_angle_alpha                 90.344523
_cell_angle_beta                  89.448317
_cell_angle_gamma                 90.228052
_cell_volume                      2929.42644898

loop_
_atom_site_label
_atom_site_type_symbol
_atom_type_description
_atom_site_fract_x
_atom_site_fract_y
_atom_site_fract_z
_atom_type_partial_charge
C1    C     C_R   0.499694 0.265199 0.499229 0.599231
C2    C     C_R   0.975223 0.400662 0.578078 -0.009174
C3    C     C_R   0.977487 0.620566 0.529533 0.042987
C4    C     C_R   0.407571 0.498118 0.500680 0.600451
C5    C     C_R   0.951231 0.509452 0.540418 0.010990
C6    C     C_R   0.950696 0.288685 0.560399 -0.137696
C7    C     C_R   0.901002 0.283568 0.534095 0.261905
C8    C     C_R   0.875261 0.393563 0.516154 0.060803
C9    C     C_R   0.900834 0.506219 0.511070 -0.083825
C10   C     C_R   0.876067 0.615215 0.476493 0.032988
C11   C     C_R   0.824894 0.610339 0.466379 0.453484
C12   C     C_R   0.281982 0.375134 0.572469 0.240863
C13   C     C_R   0.824572 0.394444 0.501801 0.485087
C14   C     C_R   0.722255 0.507608 0.364675 0.249091
C15   C     C_R   0.671444 0.508795 0.371251 -0.199099
C16   C     C_R   0.498951 0.734583 0.500563 0.545205
C17   C     C_R   0.673517 0.490130 0.620905 0.209179
C18   C     C_R   0.724840 0.496533 0.614916 0.242360
C19   C     C_R   0.748647 0.501499 0.486794 0.290700
C20   C     C_R   0.024444 0.404715 0.619303 0.016531
C21   C     C_R   0.051567 0.512793 0.594765 -0.031267
C22   C     C_R   0.027831 0.623673 0.561966 0.037143
C23   C     C_R   0.253465 0.479617 0.541760 0.238337
C24   C     C_R   0.047406 0.306386 0.689077 -0.025218
C25   C     C_R   0.106208 0.730932 0.570690 0.261545
C26   C     C_R   0.953615 0.722229 0.473394 -0.069719
C27   C     C_R   0.903587 0.723221 0.451687 -0.019918
C28   C     C_R   0.592858 0.499716 0.499570 0.572922
C29   C     C_R   0.054890 0.734412 0.572283 0.211597
C30   C     C_2   0.495077 0.931221 0.387031 -0.154601
C31   C     C_2   0.494551 0.866399 0.503468 -0.134122
C32   C     C_2   0.489677 0.065390 0.385882 0.223981
C33   C     C_2   0.501674 0.132605 0.497515 -0.019765
C34   C     C_R   0.102496 0.511094 0.609069 -0.140005
C35   C     C_2   0.467585 0.441813 0.922019 0.371598
C36   C     C_2   0.473041 0.428276 0.076457 0.112440
C37   C     C_R   0.177103 0.405067 0.657035 0.479702
C38   C     C_R   0.181222 0.608592 0.587406 0.489478
C39   C     C_R   0.275188 0.564651 0.448793 0.254797
C40   C     C_R   0.325926 0.568775 0.433917 -0.200875
C41   C     C_R   0.333162 0.385951 0.570553 0.204847
C42   C     C_3   0.881870 0.839882 0.396710 -0.322742
C43   C     C_3   0.019173 0.221931 0.784292 -0.400066
C44   C     C_R   0.126090 0.403768 0.651063 0.050625
C45   C     C_R   0.098550 0.301323 0.693010 0.278145
C46   C     C_R   0.130105 0.618193 0.587804 0.029541
C47   C     C_R   0.354757 0.485747 0.503821 -0.003212
C48   C     C_R   0.646674 0.500226 0.498029 -0.014435
Cu1   Cu    Cu3+1 0.500010 0.500020 0.638630 1.096700
Cu2   Cu    Cu3+1 0.499990 0.499980 0.361370 1.019807
H1    H     H_    0.973859 0.801331 0.439861 0.185524
H2    H     H_    0.343630 0.250633 0.695243 0.346616
H3    H     H_    0.267118 0.688594 0.307154 0.341349
H4    H     H_    0.113432 0.897153 0.502194 0.338435
H5    H     H_    0.670126 0.424018 0.806093 0.338138
H6    H     H_    0.857061 0.880886 0.474671 0.211135
H7    H     H_    0.909842 0.910207 0.372880 0.113832
H8    H     H_    0.862332 0.820573 0.299558 0.190414
H9    H     H_    0.733876 0.536694 0.808050 0.341448
H10   H     H_    0.052911 0.900455 0.647651 0.336219
H11   H     H_    0.465415 0.058819 0.198562 0.327015
H12   H     H_    0.498357 0.884775 0.288160 0.157501
H13   H     H_    0.284803 0.196692 0.557564 0.347727
H14   H     H_    0.407502 0.349714 0.928510 0.302131
H15   H     H_    0.537483 0.639917 0.164394 0.370737
H16   H     H_    0.100504 0.126160 0.732413 0.328140
H17   H     H_    0.723375 0.517027 0.164817 0.330829
H18   H     H_    0.900643 0.104778 0.541776 0.315540
H19   H     H_    0.038005 0.214575 0.884448 0.169702
H20   H     H_    0.982638 0.258107 0.809513 0.156330
H21   H     H_    0.016019 0.128856 0.738632 0.128883
H22   H     H_    0.488685 0.908681 0.603392 0.115307
H23   H     H_    0.515210 0.091000 0.590389 0.055823
H24   H     H_    0.532655 0.517080 0.889397 0.252507
H25   H     H_    0.452458 0.356255 0.126830 0.117946
H26   H     H_    0.651265 0.515350 0.276538 0.144734
H27   H     H_    0.970291 0.203484 0.563836 0.117897
H28   H     H_    0.342928 0.638149 0.370205 0.129169
N1    N     N_R   0.203078 0.495604 0.591471 -0.398508
N2    N     N_R   0.800721 0.501929 0.482256 -0.351725
N3    N     N_2   0.499480 0.498660 0.846910 -0.272808
N4    N     N_2   0.499460 0.498630 0.153040 -0.098033
O1    O     O_R   0.500010 0.321960 0.617040 -0.478200
O2    O     O_R   0.569740 0.500000 0.617090 -0.445187
O3    O     O_R   0.569730 0.499960 0.382940 -0.530915
O4    O     O_2   0.199354 0.325974 0.740859 -0.333973
O5    O     O_3   0.362609 0.297284 0.625948 -0.659089
O6    O     O_3   0.246321 0.636668 0.366944 -0.624052
O7    O     O_3   0.133192 0.836544 0.552077 -0.614278
O8    O     O_3   0.649181 0.471539 0.743971 -0.680625
O9    O     O_3   0.752970 0.499870 0.731697 -0.669415
O10   O     O_3   0.030983 0.843187 0.598786 -0.741870
O11   O     O_3   0.473257 0.122298 0.268325 -0.673926
O12   O     O_2   0.798815 0.289461 0.510469 -0.382016
O13   O     O_3   0.260388 0.260898 0.577024 -0.616080
O14   O     O_3   0.428599 0.387900 0.857547 -0.620837
O15   O     O_3   0.516039 0.602077 0.095181 -0.647465
O16   O     O_3   0.122277 0.198129 0.738969 -0.608515
O17   O     O_3   0.747058 0.513104 0.240755 -0.643458
O18   O     O_3   0.877482 0.171860 0.523849 -0.628606
O19   O     O_2   0.208637 0.710981 0.591436 -0.349642
O20   O     O_2   0.798961 0.712585 0.444858 -0.471992
O21   O     O_R   0.499990 0.321920 0.382900 -0.451540
O22   O     O_R   0.430270 0.500040 0.617060 -0.406302
O23   O     O_R   0.430260 0.500000 0.382910 -0.513299
O24   O     O_R   0.500010 0.678080 0.617100 -0.495055
O25   O     O_R   0.499990 0.678040 0.382960 -0.512931

loop_
_geom_bond_atom_site_label_1
_geom_bond_atom_site_label_2
_ccdc_geom_bond_type
C10   C27   A    
C40   C47   A    
C8    C13   A    
C22   C29   A    
C28   O2    A    
C35   C36   S    
C17   C48   A    
C42   H8    S    
Cu1   O22   S    
C35   N3    D    
C1    C33   S    
C7    C8    A    
C35   O14   S    
C16   C31   S    
C37   N1    A    
C12   C23   A    
C26   C27   A    
C24   C45   A    
C15   C48   A    
Cu1   O2    S    
H5    O8    S    
C45   O16   S    
C30   C31   D    
H11   O11   S    
C38   N1    A    
H2    O5    S    
H13   O13   S    
C18   C19   A    
Cu1   N3    S    
C16   O25   A    
C42   H6    S    
C20   C24   A    
C36   N4    D    
C8    C9    A    
Cu2   O23   S    
C12   O13   S    
C34   C46   A    
H3    O6    S    
C9    C10   A    
C1    O21   A    
Cu2   O3    S    
H17   O17   S    
C32   O11   S    
C13   N2    A    
Cu2   O21   S    
C43   H19   S    
C21   C22   A    
C2    C6    A    
C39   O6    S    
C42   H7    S    
H10   O10   S    
C25   C29   A    
C41   O5    S    
C7    O18   S    
C2    C20   A    
C37   O4    S    
C14   O17   S    
C34   C44   A    
H14   O14   S    
H4    O7    S    
C11   N2    A    
C39   C40   A    
C6    H27   S    
C21   C34   A    
H18   O18   S    
C5    C9    A    
C12   C41   A    
C36   H25   S    
C17   C18   A    
C41   C47   A    
H9    O9    S    
C6    C7    A    
C33   H23   S    
C31   H22   S    
C43   H20   S    
C30   H12   S    
Cu2   O25   S    
N4    O15   S    
C40   H28   S    
C2    C5    A    
C1    O1    A    
C18   O9    S    
H24   N3    S    
C44   C45   A    
Cu2   N4    S    
C28   C48   S    
C43   H21   S    
C14   C19   A    
C3    C26   A    
C17   O8    S    
C3    C5    A    
Cu1   O24   S    
C16   O24   A    
C38   O19   S    
C4    O23   A    
C25   O7    S    
C13   O12   S    
C32   C33   D    
Cu1   O1    S    
C37   C44   A    
H15   O15   S    
C26   H1    S    
C30   C32   S    
C27   C42   S    
H16   O16   S    
C23   C39   A    
C4    O22   A    
C15   H26   S    
C11   O20   S    
C19   N2    S    
C38   C46   A    
C10   C11   A    
C20   C21   A    
Cu1   Cu2   S    
C28   O3    A    
C24   C43   S    
C14   C15   A    
C3    C22   A    
C23   N1    S    
C25   C46   A    
C29   O10   S    
C4    C47   S    
