data_mof_unit_54655.cif
_audit_creation_date              2012-12-10T19:27:33-0500
_audit_creation_method            fapswitch 2.2
_symmetry_space_group_name_H-M    P1
_symmetry_Int_Tables_number       1
_space_group_crystal_system       triclinic
_cell_length_a                    23.220528
_cell_length_b                    10.537109
_cell_length_c                    9.754224
_cell_angle_alpha                 89.669763
_cell_angle_beta                  88.843711
_cell_angle_gamma                 91.121712
_cell_volume                      2385.64801221

loop_
_atom_site_label
_atom_site_type_symbol
_atom_type_description
_atom_site_fract_x
_atom_site_fract_y
_atom_site_fract_z
_atom_type_partial_charge
C1    C     C_R   0.499713 0.257928 0.500643 0.894393
C2    C     C_R   0.710880 0.477935 0.389617 -0.028645
C3    C     C_R   0.229588 0.496612 0.424787 0.531249
C4    C     C_R   0.770794 0.483553 0.404484 0.544860
C5    C     C_R   0.207987 0.441382 0.547532 0.168183
C6    C     C_R   0.793948 0.513280 0.532963 0.149403
C7    C     C_3   0.498792 0.037532 0.629191 0.156678
C8    C     C_3   0.501134 0.962483 0.370739 0.156344
C9    C     C_3   0.547839 0.958732 0.565939 -0.333761
C10   C     C_3   0.452093 0.041298 0.433989 -0.337466
C11   C     C_3   0.500718 0.876295 0.497810 -0.055329
C12   C     C_R   0.500253 0.742077 0.499348 0.896283
C13   C     C_3   0.499212 0.123721 0.502131 -0.052575
C14   C     C_3   0.452837 0.954907 0.562460 0.106180
C15   C     C_3   0.547091 0.045118 0.437455 0.111308
C16   C     C_R   0.389134 0.496239 0.501525 0.877718
C17   C     C_R   0.611090 0.501772 0.499058 0.877283
C18   C     C_3   0.486493 0.391141 0.047914 0.211861
C19   C     C_3   0.513366 0.608861 0.952024 0.218553
C20   C     C_3   0.536875 0.419683 0.949523 -0.103573
C21   C     C_3   0.463059 0.580335 0.050464 -0.104820
C22   C     C_3   0.449238 0.468769 0.953556 -0.152943
C23   C     C_R   0.245131 0.396131 0.645645 -0.186726
C24   C     C_3   0.550627 0.531356 0.046210 -0.152598
C25   C     C_R   0.886347 0.602683 0.593145 0.519951
C26   C     C_R   0.115204 0.335691 0.570278 0.528209
C27   C     C_R   0.876605 0.380152 0.550239 0.565160
C28   C     C_R   0.124624 0.557905 0.614789 0.580674
C29   C     C_R   0.935063 0.362265 0.577025 -0.160743
C30   C     C_R   0.064845 0.568017 0.632519 -0.156111
C31   C     C_R   0.969906 0.470425 0.602460 -0.079943
C32   C     C_R   0.030024 0.459562 0.608325 -0.083768
C33   C     C_R   0.945037 0.590434 0.616901 -0.062325
C34   C     C_R   0.758062 0.548317 0.641726 -0.189659
C35   C     C_R   0.055313 0.341138 0.584692 -0.070479
C36   C     C_R   0.960316 0.240822 0.576270 0.506900
C37   C     C_R   0.038554 0.683606 0.668492 0.511218
C38   C     C_R   0.020255 0.232115 0.573214 -0.236200
C39   C     C_R   0.979261 0.695220 0.653975 -0.248106
C40   C     C_3   0.900835 0.105234 0.701804 0.173369
C41   C     C_3   0.943706 0.063351 0.809983 -0.462082
C42   C     C_3   0.912290 0.015406 0.939827 -0.917839
C43   C     C_3   0.085413 0.768984 0.851709 0.150848
C44   C     C_3   0.042730 0.834823 0.947798 -0.447101
C45   C     C_R   0.303962 0.412062 0.626318 -0.239887
C46   C     C_3   0.055001 0.807564 0.098027 -0.897695
C47   C     C_3   0.181745 0.448330 0.230784 0.071313
C48   C     C_3   0.135854 0.494044 0.132890 -0.313884
C49   C     C_3   0.124829 0.398315 0.019003 -0.967592
C50   C     C_3   0.826645 0.556791 0.225916 0.067357
C51   C     C_3   0.867709 0.517089 0.109997 -0.298085
C52   C     C_3   0.890607 0.631541 0.027398 -0.980096
C53   C     C_R   0.699126 0.548687 0.625967 -0.247951
C54   C     C_R   0.326652 0.475016 0.509081 -0.142633
C55   C     C_R   0.674401 0.510368 0.501988 -0.152257
C56   C     C_R   0.289141 0.516068 0.405908 -0.027662
H1    H     H_    0.567006 0.351283 0.902212 0.127624
H2    H     H_    0.672775 0.575934 0.713468 0.175699
H3    H     H_    0.586339 0.923305 0.618676 0.152864
H4    H     H_    0.413589 0.076725 0.381267 0.153716
H5    H     H_    0.868543 0.027442 0.687626 0.206536
H6    H     H_    0.876615 0.188230 0.740634 0.130625
H7    H     H_    0.970857 0.987235 0.767253 0.249327
H8    H     H_    0.972277 0.144758 0.837388 0.220268
H9    H     H_    0.883094 0.089157 0.980491 0.274566
H10   H     H_    0.943953 0.993276 0.019774 0.275911
H11   H     H_    0.886779 0.927903 0.917631 0.272692
H12   H     H_    0.432970 0.648786 0.097856 0.122595
H13   H     H_    0.128799 0.812717 0.865760 0.192227
H14   H     H_    0.089023 0.667040 0.881643 0.114490
H15   H     H_    0.045852 0.938919 0.929610 0.244722
H16   H     H_    0.998227 0.801241 0.926153 0.236155
H17   H     H_    0.047955 0.705057 0.120762 0.260580
H18   H     H_    0.025218 0.862368 0.164417 0.276800
H19   H     H_    0.100034 0.835589 0.122001 0.277309
H20   H     H_    0.463687 0.205825 0.024768 0.161529
H21   H     H_    0.431767 0.276561 0.158808 0.183796
H22   H     H_    0.536163 0.794204 0.975134 0.161629
H23   H     H_    0.407181 0.440424 0.909755 0.127880
H24   H     H_    0.568152 0.723418 0.841212 0.181072
H25   H     H_    0.334747 0.521168 0.226366 0.190706
H26   H     H_    0.335089 0.660360 0.314816 0.194146
H27   H     H_    0.667137 0.510760 0.217073 0.185721
H28   H     H_    0.660500 0.358842 0.278727 0.215799
H29   H     H_    0.165827 0.358190 0.280152 0.156033
H30   H     H_    0.222024 0.429872 0.170750 0.147325
H31   H     H_    0.095041 0.508665 0.191671 0.225991
H32   H     H_    0.150117 0.586122 0.086078 0.232909
H33   H     H_    0.164707 0.384858 0.956448 0.262967
H34   H     H_    0.592187 0.563537 0.088592 0.118851
H35   H     H_    0.090805 0.433764 0.951011 0.256317
H36   H     H_    0.110165 0.305580 0.063336 0.276855
H37   H     H_    0.850485 0.621899 0.295497 0.154257
H38   H     H_    0.789893 0.607967 0.180760 0.140690
H39   H     H_    0.904644 0.466364 0.154153 0.232459
H40   H     H_    0.844737 0.451157 0.040160 0.227977
H41   H     H_    0.854530 0.681789 0.979070 0.271369
H42   H     H_    0.920567 0.599147 0.945148 0.267188
H43   H     H_    0.914342 0.698334 0.094726 0.277315
H44   H     H_    0.493287 0.999875 0.833383 0.194318
H45   H     H_    0.039076 0.139294 0.562652 0.218172
H46   H     H_    0.534888 0.126402 0.791378 0.181946
H47   H     H_    0.506565 0.000105 0.166535 0.194134
H48   H     H_    0.465018 0.873515 0.208642 0.180237
H49   H     H_    0.376522 0.976927 0.663487 0.197946
H50   H     H_    0.378915 0.848908 0.562161 0.178133
H51   H     H_    0.623387 0.023212 0.336256 0.197401
H52   H     H_    0.621005 0.151183 0.437644 0.174798
H53   H     H_    0.960121 0.786440 0.672302 0.200653
H54   H     H_    0.228227 0.353021 0.739514 0.159921
H55   H     H_    0.775919 0.571712 0.740404 0.170602
H56   H     H_    0.331807 0.377225 0.705406 0.171327
N1    N     N_R   0.853935 0.498925 0.557102 -0.340552
N2    N     N_3   0.504182 0.919356 0.229217 -0.450514
N3    N     N_3   0.402238 0.901204 0.633733 -0.431103
N4    N     N_3   0.597663 0.098885 0.366113 -0.443526
N5    N     N_R   0.147886 0.444286 0.579240 -0.338664
N6    N     N_3   0.499960 0.500030 0.863290 -0.083774
N7    N     N_3   0.500040 0.499970 0.136710 -0.083035
N8    N     N_3   0.471140 0.267411 0.106337 -0.428602
N9    N     N_3   0.528754 0.732574 0.893579 -0.427186
N10   N     N_3   0.309720 0.582506 0.285337 -0.426385
N11   N     N_3   0.688870 0.435760 0.261319 -0.420065
N12   N     N_3   0.495716 0.080634 0.770721 -0.451557
O1    O     O_R   0.500000 0.313960 0.616610 -0.621386
O2    O     O_2   0.140528 0.224131 0.543361 -0.562292
O3    O     O_2   0.842680 0.280591 0.515115 -0.506719
O4    O     O_2   0.159400 0.661058 0.627901 -0.509185
O5    O     O_3   0.927989 0.129066 0.572254 -0.597972
O6    O     O_3   0.070124 0.787790 0.712987 -0.598260
O7    O     O_3   0.191867 0.543095 0.329711 -0.616416
O8    O     O_3   0.806500 0.447072 0.297104 -0.603670
O9    O     O_R   0.500000 0.686040 0.383390 -0.620584
O10   O     O_R   0.500030 0.313950 0.383350 -0.591982
O11   O     O_R   0.499970 0.686050 0.616650 -0.589875
O12   O     O_R   0.416140 0.499970 0.616650 -0.608716
O13   O     O_R   0.583860 0.500030 0.383350 -0.623471
O14   O     O_R   0.416170 0.499960 0.383400 -0.637918
O15   O     O_R   0.583830 0.500040 0.616600 -0.625448
O16   O     O_2   0.861984 0.717658 0.602819 -0.579181
Zn1   Zn    Zn3+2 0.499980 0.500010 0.655740 0.954839
Zn2   Zn    Zn3+2 0.500020 0.499990 0.344260 0.943356

loop_
_geom_bond_atom_site_label_1
_geom_bond_atom_site_label_2
_ccdc_geom_bond_type
C7    C13   S    
O13   Zn2   S    
C40   C41   S    
C23   C45   A    
C27   C29   A    
C41   C42   S    
C10   H4    S    
C26   N5    A    
C7    N12   S    
C40   O5    S    
H21   N8    S    
C20   N6    S    
C45   H56   S    
C4    O8    S    
C2    N11   S    
H28   N11   S    
C29   C36   A    
O9    Zn2   S    
H20   N8    S    
C3    O7    S    
C47   H29   S    
C19   C21   S    
C1    O1    A    
C22   H23   S    
C38   H45   S    
C2    C55   A    
C11   C14   S    
C14   N3    S    
C52   H41   S    
C40   H6    S    
C37   O6    S    
C44   H15   S    
C22   N6    S    
C26   O2    S    
C52   H42   S    
H22   N9    S    
C27   O3    S    
C7    C14   S    
C47   C48   S    
C19   N6    S    
O1    Zn1   S    
C12   O11   A    
C51   H39   S    
C42   H9    S    
C48   H32   S    
C17   C55   S    
C8    N2    S    
C51   H40   S    
N6    Zn1   S    
C43   H13   S    
C21   C22   S    
C34   H55   S    
C49   H35   S    
H46   N12   S    
C46   H19   S    
C44   C46   S    
H24   N9    S    
C53   C55   A    
C54   C56   A    
C51   C52   S    
C32   C35   A    
C20   C24   S    
C25   O16   S    
C4    C6    A    
O14   Zn2   S    
C50   H38   S    
C40   H5    S    
C6    C34   A    
C30   C37   A    
C47   O7    S    
C9    H3    S    
C56   N10   S    
C2    C4    A    
C43   C44   S    
C47   H30   S    
C6    N1    S    
O12   Zn1   S    
C25   N1    A    
O10   Zn2   S    
C3    C56   A    
C31   C32   A    
C5    C23   A    
O11   Zn1   S    
C53   H2    S    
C35   C38   A    
C31   C33   A    
C50   C51   S    
C48   H31   S    
C17   O15   A    
C33   C39   A    
C9    C11   S    
C50   O8    S    
H48   N2    S    
C27   N1    A    
C8    C10   S    
C48   C49   S    
C45   C54   A    
C43   H14   S    
C12   O9    A    
C13   C15   S    
C21   H12   S    
C10   C14   S    
C42   H11   S    
C1    C13   S    
C41   H7    S    
C49   H36   S    
C1    O10   A    
C16   O12   A    
C18   N8    S    
C46   H18   S    
H47   N2    S    
C7    C9    S    
C23   H54   S    
C19   N9    S    
C24   N7    S    
C18   C22   S    
H49   N3    S    
C43   O6    S    
C16   O14   A    
C49   H33   S    
C3    C5    A    
C10   C13   S    
C24   H34   S    
C11   C12   S    
C50   H37   S    
C8    C15   S    
H50   N3    S    
C52   H43   S    
H25   N10   S    
C28   N5    A    
H52   N4    S    
C28   C30   A    
C19   C24   S    
C9    C15   S    
C29   C31   A    
C36   O5    S    
C30   C32   A    
O15   Zn1   S    
C8    C11   S    
C36   C38   A    
C44   H16   S    
C18   C20   S    
C16   C54   S    
H51   N4    S    
C26   C35   A    
C39   H53   S    
C21   N7    S    
C34   C53   A    
C37   C39   A    
C5    N5    S    
C42   H10   S    
N7    Zn2   S    
C15   N4    S    
C17   O13   A    
C41   H8    S    
H27   N11   S    
C20   H1    S    
H44   N12   S    
C18   N7    S    
H26   N10   S    
C46   H17   S    
C28   O4    S    
C25   C33   A    
