data_mof_unit_38101.cif
_audit_creation_date              2012-12-11T17:06:26-0500
_audit_creation_method            fapswitch 2.2
_symmetry_space_group_name_H-M    P1
_symmetry_Int_Tables_number       1
_space_group_crystal_system       triclinic
_cell_length_a                    6.960075
_cell_length_b                    14.56358
_cell_length_c                    15.930722
_cell_angle_alpha                 90.487762
_cell_angle_beta                  89.89907
_cell_angle_gamma                 90.049646
_cell_volume                      1614.7338728

loop_
_atom_site_label
_atom_site_type_symbol
_atom_type_description
_atom_site_fract_x
_atom_site_fract_y
_atom_site_fract_z
_atom_type_partial_charge
O1    O     O_R   0.494400 0.415450 0.412630 -0.540935
O2    O     O_R   0.823940 0.405730 0.586760 -0.518063
O3    O     O_R   0.994240 0.584550 0.587370 -0.523032
C1    C     C_R   0.655099 0.384369 0.615985 0.718866
O4    O     O_R   0.824110 0.404430 0.413240 -0.547883
O5    O     O_R   0.994420 0.583240 0.412620 -0.543897
C2    C     C_R   0.655418 0.382198 0.384256 0.680844
O6    O     O_R   0.494230 0.416760 0.587380 -0.546589
O7    O     O_3   0.660800 0.558670 0.500000 -0.369902
V1    V     V_3+5 0.935650 0.489120 0.500000 1.451444
O8    O     O_R   0.324140 0.594270 0.413240 -0.542230
C3    C     C_R   0.155207 0.616311 0.384435 0.681508
O9    O     O_R   0.323960 0.595570 0.586760 -0.544439
C4    C     C_R   0.155089 0.617634 0.615479 0.760753
V2    V     V_3+5 0.435660 0.510880 0.500000 1.428076
O10   O     O_3   0.160640 0.441330 0.500000 -0.371194
C5    C     C_3   0.959348 0.710109 0.734664 -0.129833
C6    C     C_3   0.075110 0.707781 0.817806 -0.167810
H1    H     H_    0.027467 0.674072 0.876513 0.110572
H2    H     H_    0.815983 0.678370 0.724569 0.125841
C7    C     C_3   0.120650 0.810863 0.808537 -0.075341
C8    C     C_3   0.006696 0.813032 0.725958 0.026065
C9    C     C_3   0.190442 0.789962 0.675674 -0.188399
C10   C     C_3   0.305712 0.787439 0.759024 -0.127444
C11   C     C_3   0.260044 0.683750 0.767726 -0.115372
C12   C     C_3   0.144343 0.687221 0.685439 -0.019869
H3    H     H_    0.237799 0.823692 0.616915 0.131790
H4    H     H_    0.449027 0.819175 0.769107 0.140348
H5    H     H_    0.366625 0.630220 0.784141 0.123345
C13   C     C_R   0.274710 0.750342 0.186895 0.104485
C14   C     C_R   0.118248 0.810075 0.178862 -0.110089
C15   C     C_R   0.965849 0.799840 0.236347 -0.176053
H6    H     H_    0.842606 0.844631 0.232949 0.132453
C16   C     C_R   0.977503 0.736510 0.302671 -0.171528
H7    H     H_    0.861739 0.733586 0.347899 0.136958
C17   C     C_R   0.142561 0.681984 0.313892 -0.105981
C18   C     C_R   0.286653 0.687990 0.252711 0.099435
C19   C     C_3   0.496386 0.704518 0.263336 -0.414863
C20   C     C_3   0.483474 0.772022 0.191379 -0.395877
H8    H     H_    0.583186 0.642577 0.247919 0.172092
H9    H     H_    0.529504 0.737877 0.324631 0.176509
H10   H     H_    0.562156 0.748938 0.134212 0.174810
H11   H     H_    0.509918 0.844441 0.210785 0.167891
C21   C     C_R   0.499225 0.319509 0.745999 0.073043
C22   C     C_R   0.648066 0.318657 0.686412 -0.114140
C23   C     C_R   0.798269 0.255196 0.698582 -0.139640
H12   H     H_    0.918872 0.253106 0.655756 0.127708
C24   C     C_R   0.788360 0.189492 0.762824 -0.190465
H13   H     H_    0.902731 0.139701 0.768082 0.152982
C25   C     C_R   0.626057 0.183996 0.815584 -0.121138
C26   C     C_R   0.487103 0.252413 0.807502 0.116395
C27   C     C_3   0.274371 0.245238 0.800787 -0.455087
C28   C     C_3   0.285865 0.321176 0.735524 -0.185396
H14   H     H_    0.200852 0.264479 0.860434 0.192466
H15   H     H_    0.229921 0.177983 0.773697 0.158566
H16   H     H_    0.239737 0.299265 0.671634 0.117864
C29   C     C_R   0.490999 0.251222 0.309139 0.105198
C30   C     C_R   0.647482 0.311175 0.317164 -0.107680
C31   C     C_R   0.800008 0.300159 0.259758 -0.176472
H17   H     H_    0.923253 0.345113 0.263251 0.130910
C32   C     C_R   0.788421 0.235755 0.193397 -0.175204
H18   H     H_    0.904184 0.232170 0.148161 0.131749
C33   C     C_R   0.623333 0.180974 0.182156 -0.106327
C34   C     C_R   0.479128 0.187786 0.243273 0.101031
C35   C     C_3   0.269426 0.204011 0.232562 -0.413967
C36   C     C_3   0.282269 0.272745 0.304599 -0.397601
H19   H     H_    0.182511 0.142285 0.247862 0.173397
H20   H     H_    0.236487 0.236302 0.171293 0.173303
H21   H     H_    0.203416 0.250606 0.361705 0.174224
H22   H     H_    0.255985 0.344817 0.285267 0.166742
O11   O     O_R   0.771650 0.079500 0.908680 -0.526127
O12   O     O_R   0.441690 0.091800 0.082800 -0.541276
O13   O     O_R   0.271460 0.912980 0.083410 -0.538970
C37   C     C_R   0.610664 0.114265 0.111600 0.686919
O14   O     O_R   0.441930 0.090510 0.909280 -0.542624
O15   O     O_R   0.271690 0.911670 0.908660 -0.542651
C38   C     C_R   0.611326 0.112590 0.880751 0.730351
O16   O     O_R   0.771410 0.080810 0.083440 -0.543265
O17   O     O_3   0.605100 0.937580 0.996050 -0.368866
V3    V     V_3+5 0.330220 0.007110 0.996030 1.412140
O18   O     O_R   0.941980 0.900620 0.909250 -0.521604
C39   C     C_R   0.110649 0.879623 0.879561 0.730324
O19   O     O_R   0.941740 0.901920 0.082770 -0.546314
C40   C     C_R   0.110376 0.880105 0.111776 0.685675
V4    V     V_3+5 0.830220 0.985300 0.996000 1.433671
O20   O     O_3   0.105210 0.054870 0.996020 -0.372944
C41   C     C_2   0.198429 0.409944 0.766045 0.776634
O21   O     O_2   0.075610 0.447592 0.723996 -0.567544
O22   O     O_R   0.254518 0.448014 0.843123 -0.670343
H23   H     H_    0.179947 0.505633 0.858021 0.279495
C42   C     C_2   0.860045 0.881259 0.697601 0.699385
O23   O     O_2   0.784424 0.871309 0.628937 -0.566266
O24   O     O_R   0.808427 0.954880 0.749433 -0.672707
H24   H     H_    0.704216 0.994198 0.723713 0.276986

loop_
_geom_bond_atom_site_label_1
_geom_bond_atom_site_label_2
_ccdc_geom_bond_type
C41   O21   D    
O24   H24   S    
C6    C7    S    
O11   C38   A    
C29   C36   S    
C1    O6    A    
O18   C39   A    
C36   H22   S    
C22   C23   A    
C27   C28   S    
C5    C12   S    
C17   C18   A    
C16   H7    S    
O5    C3    A    
C13   C14   A    
C36   H21   S    
V2    O10   S    
C5    H2    S    
C6    H1    S    
C9    C12   S    
C32   C33   A    
V3    O20   S    
O11   V4    S    
O8    V2    S    
C21   C28   S    
O19   C40   A    
C35   H19   S    
C8    C42   S    
O1    V2    S    
C9    H3    S    
C3    C17   S    
O14   V3    S    
O13   C40   A    
C27   H15   S    
C24   C25   A    
C31   H17   S    
O9    C4    A    
C6    C11   S    
C27   H14   S    
C25   C26   A    
C20   H10   S    
C1    C22   S    
C11   H5    S    
C23   C24   A    
C31   C32   A    
C26   C27   S    
O15   V3    S    
C10   C11   S    
C19   H9    S    
O12   C37   A    
O15   C39   A    
C42   O23   D    
O4    C2    A    
C20   H11   S    
C30   C31   A    
V4    O20   S    
C14   C40   S    
O17   V3    S    
C13   C18   A    
C15   C16   A    
O2    C1    A    
C18   C19   S    
C42   O24   S    
C14   C15   A    
C9    C10   S    
C35   H20   S    
C5    C6    S    
C28   C41   S    
C4    C12   S    
O14   C38   A    
O3    C4    A    
C21   C26   A    
C24   H13   S    
O19   V4    S    
O6    V2    S    
O9    V2    S    
O2    V1    S    
C25   C38   S    
O17   V4    S    
C21   C22   A    
O16   V4    S    
C29   C34   A    
O7    V1    S    
C28   H16   S    
C23   H12   S    
C2    C30   S    
O1    C2    A    
C10   H4    S    
O5    V1    S    
O8    C3    A    
C33   C37   S    
C5    C8    S    
C15   H6    S    
C41   O22   S    
C11   C12   S    
O4    V1    S    
O12   V3    S    
O3    V1    S    
V1    O10   S    
C34   C35   S    
C19   H8    S    
C29   C30   A    
C19   C20   S    
O13   V3    S    
C13   C20   S    
C16   C17   A    
O7    V2    S    
C32   H18   S    
C33   C34   A    
C7    C39   S    
C35   C36   S    
C37   O16   A    
C7    C10   S    
C8    C9    S    
O22   H23   S    
C7    C8    S    
O18   V4    S    
