data_mof_unit_22809.cif
_audit_creation_date              2012-12-10T18:44:29-0500
_audit_creation_method            fapswitch 2.2
_symmetry_space_group_name_H-M    P1
_symmetry_Int_Tables_number       1
_space_group_crystal_system       triclinic
_cell_length_a                    12.786838
_cell_length_b                    10.800653
_cell_length_c                    9.881698
_cell_angle_alpha                 89.462824
_cell_angle_beta                  98.011511
_cell_angle_gamma                 90.512248
_cell_volume                      1351.30462806

loop_
_atom_site_label
_atom_site_type_symbol
_atom_type_description
_atom_site_fract_x
_atom_site_fract_y
_atom_site_fract_z
_atom_type_partial_charge
C1    C     C_R   0.507572 0.260046 0.501929 1.018619
C2    C     C_R   0.701754 0.495569 0.528323 0.906266
C3    C     C_R   0.814928 0.487975 0.549696 -0.189394
C4    C     C_R   0.185072 0.512025 0.450304 -0.189395
C5    C     C_R   0.023713 0.619786 0.369206 0.372626
C6    C     C_R   0.976287 0.380214 0.630794 0.372626
C7    C     C_R   0.132675 0.608882 0.372106 -0.138865
C8    C     C_R   0.867325 0.391118 0.627894 -0.138864
C9    C     C_R   0.128321 0.420279 0.509586 -0.105231
C10   C     C_R   0.871679 0.579721 0.490414 -0.105231
C11   C     C_R   0.026280 0.448616 0.534975 0.020039
C12   C     C_R   0.492428 0.739954 0.498070 1.018618
C13   C     C_R   0.973719 0.551383 0.465024 0.020039
C14   C     C_R   0.519013 0.063627 0.380826 0.327231
C15   C     C_R   0.480986 0.936373 0.619174 0.327231
C16   C     C_R   0.494403 0.939160 0.373875 0.355664
C17   C     C_R   0.505596 0.060839 0.626125 0.355664
C18   C     C_2   0.829441 0.708493 0.479466 0.641602
C19   C     C_2   0.170559 0.291507 0.520534 0.641602
C20   C     C_2   0.810763 0.300605 0.706036 0.573968
C21   C     C_2   0.189237 0.699394 0.293963 0.573969
C22   C     C_R   0.484384 0.873255 0.495534 -0.367127
C23   C     C_R   0.515616 0.126745 0.504466 -0.367127
C24   C     C_R   0.569190 0.573438 0.082904 0.363333
C25   C     C_R   0.430810 0.426562 0.917095 0.363333
C26   C     C_R   0.569294 0.573110 0.939362 0.351497
C27   C     C_R   0.430706 0.426889 0.060638 0.351497
C28   C     C_R   0.298246 0.504431 0.471677 0.906266
Cl1   Cl    Cl    0.950670 0.710419 0.238376 -0.453691
Cl2   Cl    Cl    0.340031 0.332550 0.133461 -0.400169
Cl3   Cl    Cl    0.049330 0.289580 0.761623 -0.453692
Cl4   Cl    Cl    0.564050 0.133397 0.235248 -0.355482
Cl5   Cl    Cl    0.435949 0.866603 0.764752 -0.355482
Cl6   Cl    Cl    0.465782 0.874083 0.208047 -0.327540
Cl7   Cl    Cl    0.534218 0.125917 0.791953 -0.327540
Cl8   Cl    Cl    0.659174 0.670439 0.183125 -0.406953
Cl9   Cl    Cl    0.340825 0.329561 0.816875 -0.406953
Cl10  Cl    Cl    0.659969 0.667450 0.866539 -0.400169
H1    H     H_    0.745104 0.725059 0.466267 0.057802
H2    H     H_    0.254896 0.274941 0.533733 0.057802
H3    H     H_    0.845149 0.270436 0.807366 0.140737
H4    H     H_    0.154851 0.729563 0.192634 0.140737
N1    N     N_R   0.499970 0.499970 0.857200 -0.205126
N2    N     N_R   0.500030 0.500030 0.142800 -0.205127
O1    O     O_R   0.499990 0.316750 0.614620 -0.551403
O2    O     O_2   0.111070 0.202120 0.504680 -0.465519
O3    O     O_2   0.727319 0.254372 0.655510 -0.553177
O4    O     O_2   0.272680 0.745628 0.344490 -0.553177
O5    O     O_R   0.500010 0.683250 0.385380 -0.551403
O6    O     O_R   0.499990 0.316780 0.385290 -0.560361
O7    O     O_R   0.500010 0.683220 0.614710 -0.560361
O8    O     O_R   0.346360 0.499970 0.595710 -0.584705
O9    O     O_R   0.653640 0.500030 0.404290 -0.584705
O10   O     O_R   0.346360 0.499990 0.366380 -0.581061
O11   O     O_R   0.653640 0.500010 0.633620 -0.581061
O12   O     O_2   0.888930 0.797879 0.495320 -0.465519
Zn1   Zn    Zn3+2 0.500000 0.499980 0.653120 1.116421
Zn2   Zn    Zn3+2 0.500000 0.500020 0.346880 1.116420

loop_
_geom_bond_atom_site_label_1
_geom_bond_atom_site_label_2
_ccdc_geom_bond_type
C14   C23   A    
C6    C8    A    
O9    Zn2   S    
C10   C13   A    
C1    C23   S    
O7    Zn1   S    
C25   C27   A    
C28   O8    A    
C1    O6    A    
C5    C13   A    
C18   O12   D    
C18   H1    S    
C21   O4    D    
O1    Zn1   S    
C25   N1    A    
C12   O5    A    
C19   O2    D    
C3    C10   A    
C24   Cl8   S    
C27   Cl2   S    
C9    C11   A    
C1    O1    A    
C17   C23   A    
C8    C20   S    
C4    C7    A    
C20   H3    S    
C4    C28   S    
C10   C18   S    
C26   N1    A    
C2    C3    S    
C25   Cl9   S    
C5    Cl1   S    
C2    O11   A    
O11   Zn1   S    
O10   Zn2   S    
C24   N2    A    
C14   C16   A    
C20   O3    D    
C19   H2    S    
N1    Zn1   S    
C21   H4    S    
C6    Cl3   S    
C12   C22   S    
C11   C13   A    
C12   O7    A    
C14   Cl4   S    
C5    C7    A    
C3    C8    A    
O8    Zn1   S    
N2    Zn2   S    
C6    C11   A    
C15   C17   A    
C28   O10   A    
C26   Cl10  S    
C16   C22   A    
C17   Cl7   S    
C16   Cl6   S    
C4    C9    A    
C7    C21   S    
C27   N2    A    
C9    C19   S    
C15   C22   A    
O5    Zn2   S    
C24   C26   A    
C15   Cl5   S    
C2    O9    A    
O6    Zn2   S    
