data_mof_unit_21656.cif
_audit_creation_date              2012-12-10T16:49:30-0500
_audit_creation_method            fapswitch 2.2
_symmetry_space_group_name_H-M    P1
_symmetry_Int_Tables_number       1
_space_group_crystal_system       triclinic
_cell_length_a                    19.28327
_cell_length_b                    8.740343
_cell_length_c                    7.400338
_cell_angle_alpha                 101.876446
_cell_angle_beta                  93.441431
_cell_angle_gamma                 91.203783
_cell_volume                      1217.65931158

loop_
_atom_site_label
_atom_site_type_symbol
_atom_type_description
_atom_site_fract_x
_atom_site_fract_y
_atom_site_fract_z
_atom_type_partial_charge
C1    C     C_R   0.497370 0.200842 0.456063 0.807425
C2    C     C_R   0.506142 0.799299 0.544469 0.787354
C3    C     C_2   0.485314 0.036217 0.440999 0.182609
C4    C     C_2   0.519281 0.965367 0.563474 0.148464
C5    C     C_R   0.367128 0.498669 0.504086 0.767269
C6    C     C_R   0.632675 0.501068 0.496190 0.772572
C7    C     C_R   0.255188 0.539280 0.675501 0.150438
C8    C     C_R   0.745450 0.438514 0.339274 0.154894
C9    C     C_R   0.182588 0.542157 0.663159 -0.233202
C10   C     C_R   0.817540 0.461456 0.344473 -0.219968
C11   C     C_R   0.143845 0.495665 0.493750 -0.004632
C12   C     C_R   0.854083 0.554755 0.498240 -0.005111
C13   C     C_R   0.178203 0.436715 0.331526 0.171235
C14   C     C_R   0.818124 0.633782 0.648317 0.173568
C15   C     C_R   0.250923 0.443623 0.341466 -0.247352
C16   C     C_R   0.745852 0.612954 0.642023 -0.261518
C17   C     C_R   0.290370 0.495137 0.510096 -0.105014
C18   C     C_R   0.708888 0.515261 0.490799 -0.097171
C19   C     C_R   0.929824 0.552376 0.504447 0.400001
C20   C     C_R   0.068244 0.512806 0.494436 0.402117
Cu1   Cu    Cu3+1 0.507710 0.517380 0.684380 0.943755
Cu2   Cu    Cu3+1 0.492290 0.482620 0.315620 0.946994
H1    H     H_    0.155708 0.583918 0.787530 0.151509
H2    H     H_    0.845966 0.399687 0.231073 0.153397
H3    H     H_    0.276953 0.404267 0.215272 0.160463
H4    H     H_    0.718165 0.675255 0.755897 0.157669
H5    H     H_    0.447508 0.378462 0.948831 0.224209
H6    H     H_    0.552129 0.621793 0.051649 0.228897
N1    N     N_R   0.033118 0.573069 0.362181 -0.249200
N2    N     N_R   0.965067 0.495980 0.639305 -0.225287
N3    N     N_R   0.964816 0.590263 0.365459 -0.246695
N4    N     N_R   0.033208 0.477331 0.634904 -0.237320
N5    N     N_2   0.480680 0.456420 0.038530 -0.204842
N6    N     N_2   0.519320 0.543580 0.961470 -0.210144
O1    O     O_R   0.505010 0.286130 0.619770 -0.551191
O2    O     O_R   0.494990 0.713870 0.380230 -0.552268
O3    O     O_R   0.491990 0.256780 0.308370 -0.585261
O4    O     O_R   0.508010 0.743220 0.691630 -0.594870
O5    O     O_R   0.406650 0.514660 0.655750 -0.581662
O6    O     O_R   0.593350 0.485340 0.344250 -0.584989
O7    O     O_R   0.393640 0.485310 0.344340 -0.590882
O8    O     O_R   0.606360 0.514690 0.655660 -0.584664
C21   C     C_3   0.291645 0.583023 0.867017 -0.385257
C22   C     C_3   0.326049 0.745987 0.903188 -0.755410
H7    H     H_    0.363036 0.759230 0.026045 0.274066
H8    H     H_    0.355728 0.765267 0.786230 0.249906
H9    H     H_    0.285944 0.835985 0.928064 0.222334
H10   H     H_    0.254280 0.582816 0.975630 0.182820
H11   H     H_    0.329472 0.493532 0.888159 0.207933
C23   C     C_3   0.711103 0.322608 0.177268 -0.416095
C24   C     C_3   0.693770 0.399513 0.013603 -0.750025
H12   H     H_    0.658245 0.321407 0.909562 0.266349
H13   H     H_    0.667914 0.511528 0.059366 0.249992
H14   H     H_    0.741961 0.421834 0.947084 0.237529
H15   H     H_    0.746191 0.224621 0.132711 0.186536
H16   H     H_    0.663924 0.268592 0.218628 0.213813
C25   C     C_3   0.140494 0.360172 0.147833 -0.387721
C26   C     C_3   0.156983 0.187102 0.092192 -0.846392
H17   H     H_    0.213133 0.171879 0.070965 0.239601
H18   H     H_    0.141887 0.124380 0.200789 0.261712
H19   H     H_    0.127117 0.133911 0.960428 0.253640
H20   H     H_    0.083389 0.365077 0.150669 0.233084
H21   H     H_    0.156072 0.421696 0.038756 0.197490
C27   C     C_3   0.854324 0.746547 0.811600 -0.416293
C28   C     C_3   0.854128 0.682385 0.988473 -0.779263
H22   H     H_    0.800395 0.675393 0.032859 0.243149
H23   H     H_    0.876641 0.564551 0.966549 0.268209
H24   H     H_    0.885799 0.761872 0.101068 0.255755
H25   H     H_    0.908876 0.773563 0.785719 0.215911
H26   H     H_    0.827448 0.859563 0.833200 0.192993
O9    O     O_3   0.438357 0.955757 0.302026 -0.621700
C29   C     C_3   0.370284 0.011912 0.328817 0.051758
H27   H     H_    0.345071 0.016480 0.191474 0.166121
H28   H     H_    0.368162 0.133096 0.412852 0.108494
C30   C     C_3   0.328321 0.900986 0.418951 -0.354810
H29   H     H_    0.333033 0.778479 0.343143 0.243528
H30   H     H_    0.349832 0.910940 0.563326 0.194521
C31   C     C_3   0.251632 0.940152 0.420461 -0.902427
H31   H     H_    0.245413 0.062958 0.493877 0.259997
H32   H     H_    0.223507 0.860741 0.492741 0.268981
H33   H     H_    0.228407 0.923785 0.276498 0.256483
O10   O     O_3   0.561211 0.056118 0.710241 -0.622950
C32   C     C_3   0.613505 0.975912 0.792171 0.072688
H34   H     H_    0.662856 0.045568 0.801247 0.148161
H35   H     H_    0.625002 0.859079 0.709593 0.116473
C33   C     C_3   0.595505 0.968673 0.989648 -0.265407
H36   H     H_    0.586651 0.088461 0.067090 0.226741
H37   H     H_    0.546312 0.900690 0.988610 0.253726
C34   C     C_3   0.652985 0.896150 0.091646 -0.990684
H38   H     H_    0.703245 0.961023 0.094906 0.255290
H39   H     H_    0.658912 0.772788 0.021909 0.252674
H40   H     H_    0.639308 0.899257 0.236015 0.254382

loop_
_geom_bond_atom_site_label_1
_geom_bond_atom_site_label_2
_ccdc_geom_bond_type
C2    C4    S    
C21   C22   S    
C19   N3    A    
C25   H20   S    
H5    N5    S    
C33   H37   S    
C15   H3    S    
Cu2   O7    S    
C13   C25   S    
C26   H18   S    
C7    C9    A    
Cu1   O4    S    
C28   H23   S    
C7    C21   S    
C34   H39   S    
C21   H10   S    
C22   H9    S    
C1    O3    A    
C26   H19   S    
H6    N6    S    
Cu1   Cu2   S    
C29   C30   S    
C22   H8    S    
C25   H21   S    
C20   N1    A    
C16   H4    S    
C6    C18   S    
C11   C20   S    
C24   H12   S    
C6    O6    A    
C29   H28   S    
C31   H31   S    
C21   H11   S    
Cu1   N6    S    
C10   H2    S    
C26   H17   S    
Cu2   O3    S    
C23   H16   S    
C1    C3    S    
C3    O9    S    
C30   H29   S    
C30   H30   S    
C2    O4    A    
C32   H34   S    
Cu1   O5    S    
C28   H24   S    
Cu2   O6    S    
C23   C24   S    
C4    O10   S    
C27   H25   S    
C34   H40   S    
C9    C11   A    
C10   C12   A    
C14   C27   S    
C8    C10   A    
C32   H35   S    
C12   C14   A    
C28   H22   S    
C27   H26   S    
C5    O5    A    
C14   C16   A    
C3    C4    D    
C8    C23   S    
C22   H7    S    
C1    O1    A    
C20   N4    A    
C2    O2    A    
C15   C17   A    
Cu2   N5    S    
C5    O7    A    
C33   H36   S    
C9    H1    S    
C29   H27   S    
C33   C34   S    
C7    C17   A    
Cu1   O1    S    
Cu2   O2    S    
C23   H15   S    
C24   H14   S    
C27   C28   S    
C13   C15   A    
O9    C29   S    
N1    N3    A    
N2    N4    A    
C11   C13   A    
C31   H33   S    
C25   C26   S    
C12   C19   S    
N5    N6    D    
C31   H32   S    
C30   C31   S    
C8    C18   A    
Cu1   O8    S    
C32   C33   S    
C5    C17   S    
C16   C18   A    
O10   C32   S    
C6    O8    A    
C24   H13   S    
C34   H38   S    
C19   N2    A    
