data_mof_unit_57873.cif
_audit_creation_date              2012-12-11T15:15:14-0500
_audit_creation_method            fapswitch 2.2
_symmetry_space_group_name_H-M    P1
_symmetry_Int_Tables_number       1
_space_group_crystal_system       triclinic
_cell_length_a                    19.338857
_cell_length_b                    18.905253
_cell_length_c                    20.27299
_cell_angle_alpha                 106.455305
_cell_angle_beta                  106.566959
_cell_angle_gamma                 112.205161
_cell_volume                      5904.38456058

loop_
_atom_site_label
_atom_site_type_symbol
_atom_type_description
_atom_site_fract_x
_atom_site_fract_y
_atom_site_fract_z
_atom_type_partial_charge
C1    C     C_R   0.037392 0.089138 0.346168 -0.129375
C2    C     C_R   0.755066 0.995007 0.535747 0.044706
C3    C     C_R   0.766983 0.732229 0.284155 0.084751
C4    C     C_R   0.050791 0.289677 0.546843 0.078386
C5    C     C_R   0.238057 0.193792 0.653996 -0.104265
C6    C     C_R   0.972475 0.797639 0.544749 -0.132262
C7    C     C_R   0.170609 0.934827 0.435547 -0.147444
C8    C     C_R   0.987311 0.051975 0.711931 -0.144689
C9    C     C_R   0.917491 0.911359 0.647566 -0.140498
C10   C     C_R   0.239324 0.076052 0.500711 -0.164875
C11   C     C_R   0.161713 0.187209 0.719377 -0.144683
C12   C     C_R   0.760604 0.925043 0.499665 0.165519
C13   C     C_R   0.049064 0.804036 0.479811 -0.134719
C14   C     C_R   0.242736 0.214549 0.726874 0.051127
C15   C     C_R   0.033424 0.779595 0.534785 0.076840
C16   C     C_R   0.244399 0.007785 0.462056 0.081403
C17   C     C_R   0.942658 0.977860 0.716364 0.038778
C18   C     C_R   0.042761 0.706812 0.619231 -0.258104
C19   C     C_R   0.071950 0.738982 0.572287 0.114497
C20   C     C_R   0.130462 0.722368 0.553209 -0.260281
C21   C     C_R   0.146170 0.660596 0.566826 0.140369
C22   C     C_R   0.106776 0.619113 0.604187 0.027115
C23   C     C_R   0.844807 0.778793 0.288754 -0.155846
C24   C     C_R   0.059065 0.645979 0.634625 0.141746
C25   C     C_R   0.192983 0.633179 0.536207 -0.206185
C26   C     C_R   0.193110 0.559175 0.535164 -0.207035
C27   C     C_R   0.147138 0.512741 0.565441 0.142289
C28   C     C_R   0.107737 0.545345 0.603925 0.026978
C29   C     C_R   0.062075 0.499658 0.635215 0.141205
C30   C     C_R   0.022603 0.532117 0.672977 -0.205855
C31   C     C_R   0.020868 0.604967 0.672463 -0.205233
C32   C     C_R   0.133487 0.430947 0.551756 -0.260521
C33   C     C_R   0.080301 0.381461 0.575428 0.114262
C34   C     C_R   0.999138 0.234994 0.566667 -0.121689
C35   C     C_R   0.049977 0.418665 0.621946 -0.259545
C36   C     C_R   0.382793 0.049485 0.545272 -0.253391
C37   C     C_R   0.320556 0.010749 0.470742 0.121799
C38   C     C_R   0.327839 0.968298 0.407528 -0.278089
C39   C     C_R   0.400300 0.965529 0.418611 0.168393
C40   C     C_R   0.463783 0.003457 0.494317 0.014850
C41   C     C_R   0.454420 0.044252 0.558684 0.017785
C42   C     C_R   0.409824 0.924765 0.355403 -0.213672
C43   C     C_R   0.482577 0.921898 0.366607 -0.205222
C44   C     C_R   0.545459 0.959449 0.441021 0.141510
C45   C     C_R   0.767006 0.775454 0.351442 -0.151310
C46   C     C_R   0.536180 0.000099 0.505323 0.028066
C47   C     C_R   0.599774 0.037781 0.580434 0.098480
C48   C     C_R   0.589838 0.076291 0.644054 -0.255518
C49   C     C_R   0.516173 0.078601 0.634390 0.182616
C50   C     C_R   0.618079 0.957522 0.452427 -0.262800
C51   C     C_R   0.680156 0.995073 0.526762 0.135029
C52   C     C_R   0.672474 0.035483 0.590656 -0.254515
C53   C     C_R   0.319171 0.250789 0.796997 0.054875
C54   C     C_R   0.317064 0.217360 0.850465 -0.195050
C55   C     C_R   0.389496 0.249133 0.916276 -0.186082
C56   C     C_R   0.078017 0.243932 0.504607 -0.144685
C57   C     C_R   0.464742 0.316243 0.930404 0.103357
C58   C     C_R   0.466742 0.349351 0.876853 -0.241556
C59   C     C_R   0.395282 0.316178 0.809572 0.188424
C60   C     C_R   0.675167 0.495197 0.172392 0.669816
C61   C     C_R   0.733338 0.582265 0.221812 -0.412998
C62   C     C_R   0.622569 0.616541 0.199110 -0.172792
C63   C     C_R   0.564835 0.531517 0.150157 -0.269328
C64   C     C_R   0.590739 0.471338 0.134448 0.051143
C65   C     C_2   0.539180 0.361605 0.005342 0.185310
C66   C     C_2   0.528745 0.387501 0.069228 -0.225289
C67   C     C_R   0.829025 0.067248 0.560966 -0.189172
C68   C     C_R   0.707070 0.642581 0.232661 0.098354
C69   C     C_R   0.937350 0.027463 0.205418 0.147450
C70   C     C_R   0.854807 0.963763 0.154251 -0.206848
C71   C     C_R   0.813654 0.966049 0.086843 -0.134383
C72   C     C_R   0.855349 0.030885 0.068515 0.221239
C73   C     C_R   0.935731 0.097813 0.122571 -0.196004
C74   C     C_R   0.976406 0.096291 0.190641 -0.170843
C75   C     C_R   0.918179 0.026566 0.900165 -0.226066
C76   C     C_R   0.956429 0.030602 0.850673 0.199528
C77   C     C_R   0.824345 0.912242 0.745285 -0.191419
C78   C     C_R   0.967405 0.947459 0.281558 -0.129988
C79   C     C_R   0.787747 0.908954 0.795065 -0.176342
C80   C     C_R   0.833936 0.966305 0.872769 0.071396
C81   C     C_2   0.823632 0.026646 0.990998 -0.290262
C82   C     C_2   0.797987 0.956573 0.927557 0.180135
C83   C     C_R   0.908057 0.972844 0.772018 0.028924
C84   C     C_R   0.982028 0.021858 0.273984 0.032985
H1    H     H_    0.059181 0.155872 0.361713 0.100286
H2    H     H_    0.945603 0.787037 0.583228 0.096126
H3    H     H_    0.152426 0.870844 0.398085 0.092983
H4    H     H_    0.003113 0.115211 0.748909 0.109815
H5    H     H_    0.870543 0.845767 0.626077 0.091217
H6    H     H_    0.284178 0.142615 0.523030 0.103446
H7    H     H_    0.142999 0.192619 0.765114 0.105607
H8    H     H_    0.091965 0.798977 0.457314 0.094595
H9    H     H_    0.001036 0.722388 0.637814 0.118861
H10   H     H_    0.157901 0.750788 0.521239 0.119716
H11   H     H_    0.224522 0.665390 0.508292 0.131235
H12   H     H_    0.224906 0.535617 0.506658 0.130034
H13   H     H_    0.159500 0.404329 0.517907 0.118002
H14   H     H_    0.011426 0.383102 0.643324 0.117017
H15   H     H_    0.988414 0.498107 0.698331 0.129758
H16   H     H_    0.985198 0.625861 0.697201 0.130357
H17   H     H_    0.373243 0.081475 0.592498 0.129208
H18   H     H_    0.277317 0.937852 0.350434 0.124563
H19   H     H_    0.361256 0.895505 0.297561 0.130973
H20   H     H_    0.489782 0.890544 0.317332 0.132104
H21   H     H_    0.627026 0.927566 0.403747 0.133347
H22   H     H_    0.870205 0.756031 0.251938 0.095363
H23   H     H_    0.722743 0.064323 0.647621 0.128222
H24   H     H_    0.639240 0.102611 0.700717 0.151696
H25   H     H_    0.259420 0.166103 0.840940 0.131333
H26   H     H_    0.798561 0.603688 0.253193 0.143167
H27   H     H_    0.601611 0.662513 0.209180 0.130081
H28   H     H_    0.465944 0.361940 0.064567 0.115658
H29   H     H_    0.523323 0.403566 0.888488 0.127760
H30   H     H_    0.975840 0.250772 0.607851 0.085657
H31   H     H_    0.386412 0.222849 0.957064 0.126359
H32   H     H_    0.499967 0.513234 0.121258 0.148198
H33   H     H_    0.822140 0.911812 0.166106 0.123192
H34   H     H_    0.786492 0.867664 0.685339 0.130925
H35   H     H_    0.969090 0.148976 0.110146 0.113764
H36   H     H_    0.954590 0.067506 0.960970 0.139395
H37   H     H_    0.039653 0.146794 0.229925 0.113747
H38   H     H_    0.721571 0.748943 0.371086 0.111902
H39   H     H_    0.850704 0.087603 0.989108 0.121388
H40   H     H_    0.750285 0.915995 0.049013 0.149147
H41   H     H_    0.723326 0.861081 0.772693 0.129856
H42   H     H_    0.128047 0.269746 0.489434 0.089786
H43   H     H_    0.847046 0.132454 0.594644 0.115111
H44   H     H_    0.925829 0.883230 0.236909 0.099211
H45   H     H_    0.288531 0.203221 0.638583 0.121751
N1    N     N_R   0.052580 0.056040 0.395500 -0.038337
N2    N     N_R   0.954640 0.834860 0.500130 -0.042475
N3    N     N_R   0.122510 0.958490 0.460420 -0.037150
N4    N     N_R   0.990180 0.030970 0.644220 -0.035717
N5    N     N_R   0.947420 0.943960 0.604500 -0.040837
N6    N     N_R   0.165270 0.045500 0.500140 -0.038613
N7    N     N_R   0.109790 0.150600 0.644220 -0.038883
N8    N     N_R   0.002890 0.838860 0.460420 -0.040542
N9    N     N_R   0.834730 0.954500 0.499860 -0.076107
N10   N     N_R   0.890210 0.849400 0.355780 -0.037700
N11   N     N_R   0.997110 0.161140 0.539580 -0.038009
N12   N     N_R   0.841950 0.845400 0.395490 -0.045335
N13   N     N_R   0.045360 0.165140 0.499870 -0.040149
N14   N     N_R   0.877490 0.041510 0.539580 -0.048057
N15   N     N_R   0.009820 0.969030 0.355780 -0.038199
N16   N     N_R   0.158050 0.154600 0.604510 -0.044915
Ni1   Ni    Ni4+2 0.104370 0.104380 0.500010 0.213361
Ni2   Ni    Ni4+2 0.895630 0.895620 0.499990 0.201628
Ni3   Ni    Ni4+2 0.006300 0.904810 0.408930 0.208230
Ni4   Ni    Ni4+2 0.993700 0.095190 0.591070 0.208905
N17   N     N_2   0.712611 0.839906 0.488037 -0.117622
H46   H     H_    0.747084 0.809902 0.494828 0.157393
C85   C     C_3   0.654812 0.822472 0.521448 -0.941076
H47   H     H_    0.631320 0.756589 0.515860 0.243834
H48   H     H_    0.600243 0.826630 0.490429 0.269630
H49   H     H_    0.685881 0.867338 0.583223 0.251501
N18   N     N_2   0.501324 0.111553 0.698722 -0.106375
H50   H     H_    0.444642 0.071761 0.694625 0.169729
C86   C     C_3   0.567803 0.156194 0.775794 -0.932699
H51   H     H_    0.545496 0.181348 0.816540 0.257663
H52   H     H_    0.622084 0.210683 0.780909 0.258061
H53   H     H_    0.586173 0.112018 0.791423 0.249302
O1    O     O_3   0.695733 0.430924 0.162385 -0.602028
C87   C     C_3   0.777185 0.458328 0.168910 -0.227809
H54   H     H_    0.823386 0.492457 0.230150 0.138568
H55   H     H_    0.792248 0.498045 0.138155 0.121003
H56   H     H_    0.781679 0.401347 0.142011 0.176857
N19   N     N_2   0.398767 0.353262 0.757708 -0.118003
H57   H     H_    0.410310 0.414954 0.780767 0.168830
C88   C     C_3   0.452234 0.344946 0.722133 -0.953200
H58   H     H_    0.441770 0.364704 0.675257 0.252580
H59   H     H_    0.437979 0.277785 0.697259 0.259498
H60   H     H_    0.518743 0.386219 0.764629 0.251777
N20   N     N_2   0.620243 0.400123 0.008658 -0.083168
H61   H     H_    0.639436 0.458670 0.007995 0.145173
C89   C     C_3   0.639497 0.344816 0.961111 -0.879905
H62   H     H_    0.707457 0.377669 0.978525 0.236802
H63   H     H_    0.606473 0.329366 0.900011 0.240043
H64   H     H_    0.621990 0.285345 0.968380 0.262114
N21   N     N_2   0.043107 0.089225 0.878534 -0.114622
H65   H     H_    0.074725 0.064645 0.855435 0.168717
C90   C     C_3   0.092404 0.152159 0.957860 -0.965135
H66   H     H_    0.155402 0.195623 0.966314 0.253347
H67   H     H_    0.099180 0.120604 0.996012 0.254267
H68   H     H_    0.063371 0.191055 0.973117 0.256761
N22   N     N_2   0.751582 0.873323 0.920472 -0.107640
H69   H     H_    0.764019 0.829101 0.891041 0.170641
C91   C     C_3   0.663153 0.842437 0.893683 -0.953457
H70   H     H_    0.634458 0.831770 0.833361 0.248580
H71   H     H_    0.651480 0.888675 0.929927 0.262206
H72   H     H_    0.633003 0.781228 0.896668 0.250136

loop_
_geom_bond_atom_site_label_1
_geom_bond_atom_site_label_2
_ccdc_geom_bond_type
C86   H52   S    
C75   C76   A    
C73   H35   S    
N1    Ni1   S    
C88   H58   S    
N13   Ni1   S    
N8    Ni3   S    
C3    C23   A    
C19   C20   A    
N15   Ni3   S    
C76   N21   S    
C67   N14   A    
C42   H19   S    
N16   Ni1   S    
C53   C59   A    
C89   H63   S    
N20   H61   S    
C1    C84   A    
C15   C19   S    
N5    Ni2   S    
C25   H11   S    
C26   C27   A    
C37   C38   A    
C81   H39   S    
C18   C24   A    
C23   N10   A    
C28   C29   A    
C87   H55   S    
N11   N13   A    
O1    C87   S    
C67   H43   S    
N9    N14   A    
C38   C39   A    
C11   C14   A    
N22   C91   S    
C77   C83   A    
C70   H33   S    
C32   H13   S    
C18   C19   A    
C73   C74   A    
C20   H10   S    
C43   H20   S    
C91   H72   S    
C2    C67   A    
C49   N18   S    
C86   H53   S    
C6    C15   A    
C54   C55   A    
C7    H3    S    
C62   H27   S    
C3    C68   S    
C52   H23   S    
C50   H21   S    
C60   O1    S    
N2    Ni2   S    
C70   C71   A    
C56   H42   S    
C89   H64   S    
C35   H14   S    
N1    N15   A    
C75   C80   A    
N9    Ni2   S    
C72   C81   S    
C16   C37   S    
C56   N13   A    
C9    N5    A    
C5    H45   S    
C79   H41   S    
C78   H44   S    
C22   C28   A    
C21   C22   A    
C4    C56   A    
C45   N12   A    
C88   H59   S    
C36   C41   A    
C61   H26   S    
C76   C83   A    
C41   C49   A    
C25   C26   A    
C44   C46   A    
C81   C82   D    
C39   C42   A    
C57   C58   A    
C77   C79   A    
C26   H12   S    
C4    C34   A    
N10   Ni3   S    
C5    N16   A    
C82   N22   S    
C51   C52   A    
N3    Ni3   S    
C12   N17   S    
C71   H40   S    
C87   H56   S    
N4    Ni4   S    
C10   N6    A    
N19   C88   S    
C77   H34   S    
C90   H67   S    
C9    H5    S    
N19   H57   S    
C72   C73   A    
C58   C59   A    
C90   H66   S    
C23   H22   S    
C30   H15   S    
C3    C45   A    
C78   C84   A    
C63   C64   A    
C54   H25   S    
C36   H17   S    
C8    H4    S    
C13   N8    A    
C86   H51   S    
C40   C46   A    
C43   C44   A    
C62   C63   A    
N2    N8    A    
N17   C85   S    
C78   N15   A    
C58   H29   S    
C47   C48   A    
C85   H49   S    
C30   C31   A    
N6    Ni1   S    
C74   H37   S    
C50   C51   A    
C7    N3    A    
C69   C74   A    
C31   H16   S    
C20   C21   A    
C5    C14   A    
N20   C89   S    
C63   H32   S    
C9    C17   A    
C40   C41   A    
C85   H48   S    
C1    N1    A    
C55   C57   A    
C13   H8    S    
N4    N5    A    
C88   H60   S    
C22   C24   A    
C1    H1    S    
C42   C43   A    
C39   C40   A    
C59   N19   S    
C2    C12   A    
C90   H68   S    
C44   C50   A    
C18   H9    S    
C4    C33   S    
C21   C25   A    
C46   C47   A    
N18   H50   S    
C65   N20   S    
C27   C32   A    
C7    C16   A    
C75   H36   S    
N7    N16   A    
C57   C65   S    
C6    N2    A    
C34   N11   A    
C53   C54   A    
C47   C52   A    
C45   H38   S    
C34   H30   S    
C29   C35   A    
C8    C17   A    
C6    H2    S    
C62   C68   A    
C60   C64   A    
C66   H28   S    
C32   C33   A    
C13   C15   A    
C8    N4    A    
C24   C31   A    
C91   H70   S    
C38   H18   S    
C89   H62   S    
C10   C16   A    
C11   N7    A    
N10   N12   A    
C61   C68   A    
N22   H69   S    
C48   H24   S    
C55   H31   S    
N3    N6    A    
C48   C49   A    
N18   C86   S    
C33   C35   A    
C80   C82   S    
C12   N9    A    
C69   C70   A    
C91   H71   S    
C87   H54   S    
C2    C51   S    
N12   Ni2   S    
C29   C30   A    
C79   C80   A    
C11   H7    S    
N14   Ni4   S    
C14   C53   S    
C71   C72   A    
C85   H47   S    
C10   H6    S    
C36   C37   A    
C65   C66   D    
N7    Ni4   S    
C27   C28   A    
C69   C84   S    
N21   H65   S    
N17   H46   S    
C60   C61   A    
C17   C83   S    
N11   Ni4   S    
C64   C66   S    
N21   C90   S    
