data_mof_unit_64229.cif
_audit_creation_date              2012-12-10T19:24:27-0500
_audit_creation_method            fapswitch 2.2
_symmetry_space_group_name_H-M    P1
_symmetry_Int_Tables_number       1
_space_group_crystal_system       triclinic
_cell_length_a                    30.941612
_cell_length_b                    30.939494
_cell_length_c                    26.620732
_cell_angle_alpha                 90.022285
_cell_angle_beta                  89.993636
_cell_angle_gamma                 90.018834
_cell_volume                      25484.4976324

loop_
_atom_site_label
_atom_site_type_symbol
_atom_type_description
_atom_site_fract_x
_atom_site_fract_y
_atom_site_fract_z
_atom_type_partial_charge
C1    C     C_R   0.882150 0.618095 0.749845 -0.134783
C2    C     C_R   0.117444 0.381555 0.250606 -0.132595
C3    C     C_R   0.616635 0.119521 0.752154 -0.138269
C4    C     C_R   0.382873 0.881424 0.248977 -0.137872
C5    C     C_R   0.118847 0.382965 0.751348 -0.140045
C6    C     C_R   0.881329 0.617212 0.248949 -0.140689
C7    C     C_R   0.381641 0.882490 0.749234 -0.137744
C8    C     C_R   0.618212 0.117871 0.250273 -0.139124
C9    C     C_R   0.881979 0.381950 0.249907 -0.139070
C10   C     C_R   0.118802 0.617077 0.751187 -0.137919
C11   C     C_R   0.618294 0.882394 0.250393 -0.140256
C12   C     C_R   0.382232 0.118116 0.750393 -0.139362
C13   C     C_R   0.118880 0.616803 0.248354 -0.137617
C14   C     C_R   0.881458 0.382368 0.750644 -0.138054
C15   C     C_R   0.382500 0.118384 0.249426 -0.133455
C16   C     C_R   0.617148 0.881207 0.751236 -0.135461
C17   C     C_R   0.994119 0.500062 0.946228 -0.194032
C18   C     C_R   0.005708 0.499972 0.053727 -0.193724
C19   C     C_R   0.500029 0.996900 0.946112 -0.188428
C20   C     C_R   0.500011 0.003312 0.053882 -0.188284
C21   C     C_R   0.495622 0.999989 0.446196 -0.190065
C22   C     C_R   0.504207 0.999991 0.553795 -0.190133
C23   C     C_R   0.999926 0.496382 0.446139 -0.188322
C24   C     C_R   0.999905 0.503478 0.553869 -0.188545
C25   C     C_R   0.994894 0.460024 0.973311 0.067359
C26   C     C_R   0.004861 0.540025 0.026639 0.067389
C27   C     C_R   0.459702 0.997475 0.973143 0.067796
C28   C     C_R   0.540340 0.002801 0.026854 0.067670
C29   C     C_R   0.995482 0.540090 0.973381 0.066294
C30   C     C_R   0.004279 0.459949 0.026558 0.065313
C31   C     C_R   0.540365 0.997713 0.973136 0.068279
C32   C     C_R   0.459696 0.002617 0.026845 0.067879
C33   C     C_R   0.496436 0.959843 0.473259 0.068692
C34   C     C_R   0.503312 0.040140 0.526729 0.068358
C35   C     C_R   0.959627 0.497013 0.473171 0.068111
C36   C     C_R   0.040164 0.502933 0.526807 0.067763
C37   C     C_R   0.496378 0.040123 0.473309 0.067311
C38   C     C_R   0.503375 0.959841 0.526685 0.067831
C39   C     C_R   0.040176 0.497098 0.473208 0.067684
C40   C     C_R   0.959602 0.502553 0.526841 0.068373
C41   C     C_R   0.714377 0.779448 0.755741 0.141977
C42   C     C_R   0.282261 0.217180 0.250532 0.142805
C43   C     C_R   0.773951 0.291275 0.764278 0.138682
C44   C     C_R   0.223409 0.711491 0.239527 0.141565
C45   C     C_R   0.288337 0.223118 0.759368 0.141791
C46   C     C_R   0.715936 0.781003 0.247310 0.142065
C47   C     C_R   0.221045 0.713886 0.754403 0.142478
C48   C     C_R   0.783245 0.281740 0.250862 0.141700
C49   C     C_R   0.718333 0.216656 0.251086 0.141742
C50   C     C_R   0.285465 0.779671 0.753298 0.142480
C51   C     C_R   0.780435 0.715399 0.246655 0.142025
C52   C     C_R   0.223711 0.288752 0.759970 0.141989
C53   C     C_R   0.288334 0.776790 0.239928 0.141622
C54   C     C_R   0.708253 0.226661 0.765093 0.138828
C55   C     C_R   0.216786 0.281882 0.250885 0.142673
C56   C     C_R   0.780025 0.714900 0.755041 0.141885
C57   C     C_R   0.786098 0.754731 0.780758 -0.164778
C58   C     C_R   0.211013 0.242453 0.223868 -0.165883
C59   C     C_R   0.744194 0.224277 0.797549 -0.163439
C60   C     C_R   0.251841 0.779766 0.207939 -0.164869
C61   C     C_R   0.220145 0.251623 0.791290 -0.163542
C62   C     C_R   0.786307 0.754610 0.219719 -0.165423
C63   C     C_R   0.254997 0.776877 0.793226 -0.166404
C64   C     C_R   0.748221 0.220081 0.210602 -0.165971
C65   C     C_R   0.779799 0.251728 0.210500 -0.165470
C66   C     C_R   0.223731 0.744863 0.793825 -0.165854
C67   C     C_R   0.755049 0.786424 0.220051 -0.165403
C68   C     C_R   0.251359 0.219900 0.790956 -0.163679
C69   C     C_R   0.220375 0.748117 0.207737 -0.165222
C70   C     C_R   0.776035 0.255687 0.797222 -0.164336
C71   C     C_R   0.242787 0.211062 0.223690 -0.165800
C72   C     C_R   0.754358 0.786016 0.781024 -0.164923
C73   C     C_R   0.287867 0.256486 0.277811 -0.165486
C74   C     C_R   0.707565 0.738975 0.731532 -0.165934
C75   C     C_R   0.261076 0.707387 0.269473 -0.164345
C76   C     C_R   0.735633 0.296095 0.735894 -0.163437
C77   C     C_R   0.709634 0.741450 0.273513 -0.166062
C78   C     C_R   0.293791 0.261810 0.731108 -0.166394
C79   C     C_R   0.753509 0.278141 0.291568 -0.165743
C80   C     C_R   0.252558 0.715772 0.715604 -0.165369
C81   C     C_R   0.283812 0.747556 0.715152 -0.164263
C82   C     C_R   0.721953 0.246474 0.291687 -0.165342
C83   C     C_R   0.262343 0.293775 0.731378 -0.166117
C84   C     C_R   0.740975 0.709567 0.273192 -0.166054
C85   C     C_R   0.703719 0.264754 0.736339 -0.163763
C86   C     C_R   0.292531 0.738991 0.269636 -0.164509
C87   C     C_R   0.739465 0.707613 0.731197 -0.166190
C88   C     C_R   0.256122 0.287843 0.277991 -0.165792
C89   C     C_R   0.504326 0.879867 0.525096 -0.133348
C90   C     C_R   0.495239 0.120087 0.474859 -0.132464
C91   C     C_R   0.879429 0.502874 0.525266 -0.139469
C92   C     C_R   0.120316 0.496468 0.474782 -0.138868
C93   C     C_R   0.504096 0.120120 0.525223 -0.132965
C94   C     C_R   0.495453 0.879871 0.474729 -0.134656
C95   C     C_R   0.120305 0.503851 0.525238 -0.135560
C96   C     C_R   0.879465 0.496107 0.474703 -0.136980
C97   C     C_R   0.004969 0.380115 0.024977 -0.127967
C98   C     C_R   0.994656 0.619924 0.974938 -0.130509
C99   C     C_R   0.379484 0.003053 0.025306 -0.141758
C100  C     C_R   0.620591 0.997500 0.974708 -0.142900
C101  C     C_R   0.006731 0.619846 0.025169 -0.131572
C102  C     C_R   0.992883 0.380212 0.974756 -0.131484
C103  C     C_R   0.620552 0.003596 0.025340 -0.138496
C104  C     C_R   0.379485 0.996844 0.974696 -0.138675
C105  C     C_R   0.500005 0.998739 0.889929 0.811728
C106  C     C_R   0.500003 0.001315 0.110070 0.811776
C107  C     C_R   0.997627 0.500018 0.889941 0.804512
C108  C     C_R   0.002330 0.499989 0.110043 0.804652
C109  C     C_R   0.999985 0.498549 0.389933 0.811713
C110  C     C_R   0.999982 0.501414 0.610069 0.812412
C111  C     C_R   0.498239 0.000002 0.389940 0.808847
C112  C     C_R   0.501718 0.999994 0.610055 0.809635
C113  C     C_R   0.415828 0.916269 0.749655 0.829079
C114  C     C_R   0.584010 0.083968 0.250039 0.828132
C115  C     C_R   0.916158 0.584092 0.749789 0.823560
C116  C     C_R   0.083822 0.415906 0.250179 0.825670
C117  C     C_R   0.583903 0.084114 0.750140 0.826689
C118  C     C_R   0.416068 0.916098 0.250053 0.826770
C119  C     C_R   0.084020 0.416103 0.750054 0.832637
C120  C     C_R   0.915897 0.583810 0.249794 0.832160
C121  C     C_R   0.416191 0.084104 0.249785 0.827266
C122  C     C_R   0.583834 0.915896 0.750181 0.825365
C123  C     C_R   0.915989 0.416036 0.249943 0.827723
C124  C     C_R   0.084100 0.583812 0.750221 0.828596
C125  C     C_R   0.584119 0.916207 0.250242 0.832034
C126  C     C_R   0.415910 0.083819 0.749778 0.832367
C127  C     C_R   0.083993 0.583842 0.249891 0.825826
C128  C     C_R   0.916169 0.415820 0.749698 0.825583
C129  C     C_R   0.509521 0.918388 0.550551 -0.098338
C130  C     C_R   0.490147 0.081544 0.449433 -0.097972
C131  C     C_R   0.917892 0.507202 0.550917 -0.098320
C132  C     C_R   0.081830 0.491999 0.449204 -0.098290
C133  C     C_R   0.509390 0.081612 0.550629 -0.097153
C134  C     C_R   0.490257 0.918399 0.449336 -0.098592
C135  C     C_R   0.081804 0.508204 0.550816 -0.095508
C136  C     C_R   0.917970 0.492050 0.449078 -0.096521
C137  C     C_R   0.012318 0.418610 0.050256 -0.088929
C138  C     C_R   0.987392 0.581419 0.949649 -0.090557
C139  C     C_R   0.417963 0.007046 0.050960 -0.099356
C140  C     C_R   0.582134 0.993457 0.949017 -0.100155
C141  C     C_R   0.013458 0.581252 0.050437 -0.090470
C142  C     C_R   0.986231 0.418819 0.949501 -0.090162
C143  C     C_R   0.582051 0.007382 0.050996 -0.096989
C144  C     C_R   0.417969 0.992927 0.949030 -0.096861
C145  C     C_R   0.845117 0.614969 0.718115 0.159864
C146  C     C_R   0.151672 0.382149 0.286396 0.161156
C147  C     C_R   0.611803 0.157898 0.722951 0.157628
C148  C     C_R   0.388936 0.842108 0.276167 0.156206
C149  C     C_R   0.153338 0.383331 0.715711 0.163170
C150  C     C_R   0.846284 0.615958 0.283732 0.162284
C151  C     C_R   0.384309 0.846496 0.715956 0.162769
C152  C     C_R   0.615566 0.154283 0.283241 0.162458
C153  C     C_R   0.845535 0.384644 0.282775 0.159994
C154  C     C_R   0.155492 0.613670 0.719032 0.157972
C155  C     C_R   0.617454 0.847715 0.285662 0.164360
C156  C     C_R   0.382235 0.152279 0.714324 0.163857
C157  C     C_R   0.158336 0.610619 0.275247 0.158641
C158  C     C_R   0.843257 0.386945 0.721162 0.162933
C159  C     C_R   0.383653 0.153127 0.284561 0.157700
C160  C     C_R   0.613729 0.843928 0.719834 0.157699
C161  C     C_R   0.347988 0.117589 0.213978 0.161964
C162  C     C_R   0.653315 0.883896 0.784212 0.158939
C163  C     C_R   0.114426 0.655148 0.219000 0.153799
C164  C     C_R   0.884772 0.345199 0.781941 0.153522
C165  C     C_R   0.652890 0.883510 0.215063 0.161324
C166  C     C_R   0.349215 0.118194 0.787731 0.160816
C167  C     C_R   0.884800 0.345450 0.217047 0.162505
C168  C     C_R   0.116758 0.653108 0.784607 0.162938
C169  C     C_R   0.345315 0.884859 0.782133 0.158552
C170  C     C_R   0.654805 0.114962 0.217638 0.160924
C171  C     C_R   0.119188 0.350207 0.788990 0.161580
C172  C     C_R   0.881990 0.651367 0.213052 0.163245
C173  C     C_R   0.653230 0.116803 0.784406 0.160314
C174  C     C_R   0.344369 0.885978 0.219879 0.157961
C175  C     C_R   0.885406 0.654810 0.781970 0.155052
C176  C     C_R   0.116462 0.346899 0.215306 0.157434
C177  C     C_R   0.813445 0.646868 0.719057 -0.195494
C178  C     C_R   0.182460 0.349471 0.286904 -0.194409
C179  C     C_R   0.641371 0.191736 0.727396 -0.192600
C180  C     C_R   0.358592 0.808931 0.272582 -0.195084
C181  C     C_R   0.186143 0.352429 0.718225 -0.195837
C182  C     C_R   0.814811 0.648107 0.283300 -0.196624
C183  C     C_R   0.354032 0.813406 0.718592 -0.197364
C184  C     C_R   0.647020 0.186399 0.281729 -0.198458
C185  C     C_R   0.813465 0.353146 0.281325 -0.195405
C186  C     C_R   0.188509 0.644064 0.721630 -0.195181
C187  C     C_R   0.649434 0.816084 0.284925 -0.197058
C188  C     C_R   0.351291 0.185044 0.716868 -0.196255
C189  C     C_R   0.191524 0.640945 0.271597 -0.197235
C190  C     C_R   0.809297 0.357583 0.725914 -0.195506
C191  C     C_R   0.350716 0.183653 0.285542 -0.194598
C192  C     C_R   0.645645 0.812260 0.720649 -0.195083
C193  C     C_R   0.316940 0.150053 0.213828 -0.194565
C194  C     C_R   0.683263 0.850531 0.786368 -0.195804
C195  C     C_R   0.148218 0.684947 0.216374 -0.195492
C196  C     C_R   0.850194 0.316409 0.785856 -0.195210
C197  C     C_R   0.683175 0.850329 0.213695 -0.197194
C198  C     C_R   0.320044 0.152280 0.790649 -0.196033
C199  C     C_R   0.853789 0.312901 0.219094 -0.198682
C200  C     C_R   0.148944 0.684541 0.784020 -0.198371
C201  C     C_R   0.314083 0.852444 0.781807 -0.195810
C202  C     C_R   0.687367 0.145948 0.219745 -0.195199
C203  C     C_R   0.153241 0.320985 0.791810 -0.196765
C204  C     C_R   0.848965 0.681822 0.212012 -0.197983
C205  C     C_R   0.682007 0.151349 0.788248 -0.196026
C206  C     C_R   0.314585 0.852175 0.217243 -0.196888
C207  C     C_R   0.852048 0.684772 0.784237 -0.195854
C208  C     C_R   0.149155 0.316073 0.214762 -0.194725
C209  C     C_R   0.815308 0.681815 0.752973 0.042783
C210  C     C_R   0.182564 0.316064 0.250816 0.041914
C211  C     C_R   0.676663 0.189920 0.760693 0.042006
C212  C     C_R   0.320883 0.812712 0.242943 0.043680
C213  C     C_R   0.187672 0.321186 0.756915 0.042630
C214  C     C_R   0.814926 0.681468 0.247273 0.041828
C215  C     C_R   0.318234 0.815298 0.751432 0.041969
C216  C     C_R   0.683984 0.182709 0.250885 0.040613
C217  C     C_R   0.817130 0.316175 0.250462 0.040961
C218  C     C_R   0.185990 0.680510 0.753472 0.042163
C219  C     C_R   0.682501 0.815960 0.248512 0.041735
C220  C     C_R   0.320353 0.186773 0.755882 0.042316
C221  C     C_R   0.187632 0.678758 0.242194 0.043806
C222  C     C_R   0.811124 0.322334 0.759217 0.042188
C223  C     C_R   0.316833 0.183335 0.250049 0.041961
C224  C     C_R   0.680760 0.814239 0.754359 0.042691
H1    H     H_    0.815538 0.763844 0.800546 0.136769
H2    H     H_    0.181692 0.233900 0.203013 0.138537
H3    H     H_    0.749199 0.198324 0.823722 0.135277
H4    H     H_    0.246139 0.806239 0.182241 0.135031
H5    H     H_    0.193091 0.244843 0.816299 0.136334
H6    H     H_    0.815330 0.762690 0.198563 0.138122
H7    H     H_    0.254839 0.798500 0.825573 0.136994
H8    H     H_    0.747388 0.199415 0.177301 0.137478
H9    H     H_    0.800383 0.252488 0.177140 0.137274
H10   H     H_    0.202582 0.744945 0.826636 0.137018
H11   H     H_    0.763474 0.815459 0.199106 0.137896
H12   H     H_    0.244355 0.192746 0.815683 0.136317
H13   H     H_    0.193984 0.753803 0.181915 0.134919
H14   H     H_    0.802063 0.250719 0.823328 0.135274
H15   H     H_    0.234478 0.181743 0.202699 0.138671
H16   H     H_    0.763263 0.815571 0.800792 0.137319
H17   H     H_    0.317025 0.265076 0.298912 0.137993
H18   H     H_    0.677491 0.729862 0.712911 0.137541
H19   H     H_    0.267399 0.680523 0.294401 0.135039
H20   H     H_    0.729117 0.323603 0.712324 0.135502
H21   H     H_    0.680285 0.733455 0.294164 0.138464
H22   H     H_    0.322485 0.268782 0.708687 0.138584
H23   H     H_    0.754380 0.298740 0.324967 0.138175
H24   H     H_    0.253743 0.693807 0.683634 0.136589
H25   H     H_    0.305565 0.746168 0.683069 0.136208
H26   H     H_    0.701446 0.245581 0.325167 0.138170
H27   H     H_    0.269729 0.322464 0.709068 0.138408
H28   H     H_    0.732642 0.680221 0.293649 0.138273
H29   H     H_    0.676019 0.271469 0.713106 0.135394
H30   H     H_    0.319366 0.732653 0.294589 0.135055
H31   H     H_    0.730688 0.677512 0.712421 0.137735
H32   H     H_    0.264426 0.317024 0.299218 0.138278
H33   H     H_    0.521553 0.911236 0.588154 0.204239
H34   H     H_    0.478103 0.088612 0.411837 0.206332
H35   H     H_    0.909630 0.517130 0.589136 0.208939
H36   H     H_    0.089897 0.481617 0.411107 0.210326
H37   H     H_    0.521456 0.088798 0.588216 0.203890
H38   H     H_    0.478177 0.911274 0.411731 0.202473
H39   H     H_    0.089853 0.518635 0.588914 0.208258
H40   H     H_    0.909835 0.482047 0.410852 0.209299
H41   H     H_    0.028504 0.412126 0.087370 0.195998
H42   H     H_    0.971250 0.587903 0.912486 0.192026
H43   H     H_    0.409602 0.016535 0.089243 0.211434
H44   H     H_    0.590601 0.984086 0.910707 0.209715
H45   H     H_    0.029595 0.587569 0.087669 0.189457
H46   H     H_    0.970106 0.412547 0.912259 0.189493
H47   H     H_    0.590376 0.016859 0.089307 0.210423
H48   H     H_    0.409594 0.983404 0.910747 0.209733
H49   H     H_    0.507220 0.150128 0.545374 0.182607
H50   H     H_    0.492242 0.849880 0.454561 0.181544
H51   H     H_    0.150354 0.506581 0.545364 0.183593
H52   H     H_    0.849419 0.493569 0.454530 0.183893
H53   H     H_    0.507522 0.849870 0.545221 0.182649
H54   H     H_    0.491972 0.150068 0.454723 0.184028
H55   H     H_    0.849354 0.505176 0.545425 0.183027
H56   H     H_    0.150373 0.493851 0.454650 0.183395
H57   H     H_    0.011313 0.649764 0.045310 0.179728
H58   H     H_    0.988246 0.350303 0.954613 0.180187
H59   H     H_    0.650607 0.005857 0.045544 0.183964
H60   H     H_    0.349415 0.994615 0.954516 0.183555
H61   H     H_    0.009075 0.350130 0.045085 0.183364
H62   H     H_    0.990499 0.649899 0.954820 0.181108
H63   H     H_    0.349414 0.005205 0.045500 0.182983
H64   H     H_    0.650678 0.995476 0.954525 0.182538
H65   H     H_    0.787650 0.643726 0.691785 0.159663
H66   H     H_    0.205887 0.350866 0.317134 0.160764
H67   H     H_    0.635958 0.219257 0.703457 0.157528
H68   H     H_    0.365782 0.780214 0.293958 0.157708
H69   H     H_    0.209907 0.353080 0.688275 0.159327
H70   H     H_    0.790612 0.646463 0.312613 0.159256
H71   H     H_    0.359693 0.786297 0.693788 0.158850
H72   H     H_    0.641503 0.214555 0.305274 0.159964
H73   H     H_    0.785344 0.358667 0.304907 0.160895
H74   H     H_    0.216238 0.637880 0.697878 0.160019
H75   H     H_    0.648005 0.792024 0.314418 0.159387
H76   H     H_    0.351594 0.208635 0.686733 0.159270
H77   H     H_    0.220371 0.633637 0.292691 0.157105
H78   H     H_    0.781758 0.363017 0.702025 0.157184
H79   H     H_    0.352432 0.207299 0.315527 0.160266
H80   H     H_    0.642255 0.786305 0.693564 0.159324
H81   H     H_    0.293325 0.148669 0.183770 0.160449
H82   H     H_    0.708320 0.854013 0.814427 0.159275
H83   H     H_    0.142191 0.713245 0.193761 0.157626
H84   H     H_    0.855296 0.288945 0.809953 0.157656
H85   H     H_    0.706972 0.852251 0.184009 0.158975
H86   H     H_    0.297368 0.150633 0.821441 0.158470
H87   H     H_    0.859401 0.284777 0.195488 0.159384
H88   H     H_    0.143821 0.712368 0.808108 0.159431
H89   H     H_    0.286205 0.857528 0.805727 0.160408
H90   H     H_    0.715599 0.140261 0.196386 0.160601
H91   H     H_    0.151629 0.298395 0.822708 0.158155
H92   H     H_    0.850638 0.705431 0.182112 0.158838
H93   H     H_    0.708913 0.146685 0.813247 0.157019
H94   H     H_    0.286188 0.858247 0.194762 0.157069
H95   H     H_    0.856044 0.710300 0.811592 0.158786
H96   H     H_    0.147752 0.292480 0.184660 0.160239
O1    O     O_3   0.500000 1.000000 0.750000 -0.517361
O2    O     O_3   0.500000 1.000000 0.250000 -0.517403
O3    O     O_3   1.000000 0.500000 0.750000 -0.518176
O4    O     O_3   1.000000 0.500000 0.250000 -0.518203
O5    O     O_R   0.536370 1.000000 0.865730 -0.655219
O6    O     O_R   0.463630 0.000000 0.134270 -0.654937
O7    O     O_R   0.000000 0.463630 0.865730 -0.645076
O8    O     O_R   1.000000 0.536370 0.134270 -0.645777
O9    O     O_R   0.463630 1.000000 0.865730 -0.653155
O10   O     O_R   0.536370 0.000000 0.134270 -0.653441
O11   O     O_R   0.000000 0.536370 0.865730 -0.645962
O12   O     O_R   1.000000 0.463630 0.134270 -0.645123
O13   O     O_R   0.036370 0.500000 0.365730 -0.653212
O14   O     O_R   0.963630 0.500000 0.634270 -0.653631
O15   O     O_R   0.500000 0.963630 0.365730 -0.650873
O16   O     O_R   0.500000 0.036370 0.634270 -0.650015
O17   O     O_R   0.963630 0.500000 0.365730 -0.652654
O18   O     O_R   0.036370 0.500000 0.634270 -0.651441
O19   O     O_R   0.500000 0.036370 0.365730 -0.650219
O20   O     O_R   0.500000 0.963630 0.634270 -0.650527
O21   O     O_R   0.412560 0.948890 0.780280 -0.613411
O22   O     O_R   0.587440 0.051110 0.219720 -0.612492
O23   O     O_R   0.948890 0.587440 0.780280 -0.614497
O24   O     O_R   0.051110 0.412560 0.219720 -0.613653
O25   O     O_R   0.587440 0.051110 0.780280 -0.605142
O26   O     O_R   0.412560 0.948890 0.219720 -0.607146
O27   O     O_R   0.051110 0.412560 0.780280 -0.602414
O28   O     O_R   0.948890 0.587440 0.219720 -0.602362
O29   O     O_R   0.412560 0.051110 0.219720 -0.610438
O30   O     O_R   0.587440 0.948890 0.780280 -0.611506
O31   O     O_R   0.948890 0.412560 0.219720 -0.603873
O32   O     O_R   0.051110 0.587440 0.780280 -0.602776
O33   O     O_R   0.587440 0.948890 0.219720 -0.606233
O34   O     O_R   0.412560 0.051110 0.780280 -0.605602
O35   O     O_R   0.051110 0.587440 0.219720 -0.615724
O36   O     O_R   0.948890 0.412560 0.780280 -0.615545
O37   O     O_R   0.912560 0.448890 0.280280 -0.612894
O38   O     O_R   0.087440 0.551110 0.719720 -0.614065
O39   O     O_R   0.448890 0.087440 0.280280 -0.613158
O40   O     O_R   0.551110 0.912560 0.719720 -0.613866
O41   O     O_R   0.087440 0.551110 0.280280 -0.606707
O42   O     O_R   0.912560 0.448890 0.719720 -0.604919
O43   O     O_R   0.551110 0.912560 0.280280 -0.603449
O44   O     O_R   0.448890 0.087440 0.719720 -0.604235
O45   O     O_R   0.912560 0.551110 0.719720 -0.612255
O46   O     O_R   0.087440 0.448890 0.280280 -0.610637
O47   O     O_R   0.448890 0.912560 0.719720 -0.604133
O48   O     O_R   0.551110 0.087440 0.280280 -0.604760
O49   O     O_R   0.087440 0.448890 0.719720 -0.605567
O50   O     O_R   0.912560 0.551110 0.280280 -0.606066
O51   O     O_R   0.551110 0.087440 0.719720 -0.614471
O52   O     O_R   0.448890 0.912560 0.280280 -0.614988
Zn1   Zn    Zn3+2 0.500000 0.948100 0.706560 1.011762
Zn2   Zn    Zn3+2 0.500000 0.051900 0.293440 1.011981
Zn3   Zn    Zn3+2 0.948100 0.500000 0.706560 1.009039
Zn4   Zn    Zn3+2 0.051900 0.500000 0.293440 1.009281
Zn5   Zn    Zn3+2 0.500000 0.051900 0.706560 1.014647
Zn6   Zn    Zn3+2 0.500000 0.948100 0.293440 1.014079
Zn7   Zn    Zn3+2 0.051900 0.500000 0.706560 1.014746
Zn8   Zn    Zn3+2 0.948100 0.500000 0.293440 1.014168
Zn9   Zn    Zn3+2 1.000000 0.448100 0.206560 1.012220
Zn10  Zn    Zn3+2 1.000000 0.551900 0.793440 1.011505
Zn11  Zn    Zn3+2 0.448100 0.000000 0.206560 1.009226
Zn12  Zn    Zn3+2 0.551900 1.000000 0.793440 1.009153
Zn13  Zn    Zn3+2 1.000000 0.551900 0.206560 1.014892
Zn14  Zn    Zn3+2 0.000000 0.448100 0.793440 1.015213
Zn15  Zn    Zn3+2 0.551900 0.000000 0.206560 1.013475
Zn16  Zn    Zn3+2 0.448100 1.000000 0.793440 1.013541
I1    I     I_    0.831238 0.564800 0.665281 -0.317854
I2    I     I_    0.161959 0.428984 0.344283 -0.325118
I3    I     I_    0.561804 0.171100 0.669618 -0.318861
I4    I     I_    0.442001 0.826175 0.325106 -0.310265
I5    I     I_    0.161053 0.427616 0.654366 -0.296580
I6    I     I_    0.835147 0.568138 0.340344 -0.295308
I7    I     I_    0.430807 0.836757 0.657154 -0.293689
I8    I     I_    0.566941 0.166426 0.339133 -0.292121
I9    I     I_    0.833132 0.433564 0.338162 -0.322368
I10   I     I_    0.167320 0.564863 0.663484 -0.324910
I11   I     I_    0.571352 0.838201 0.344571 -0.292744
I12   I     I_    0.425636 0.159126 0.651854 -0.295848
I13   I     I_    0.174641 0.557208 0.323523 -0.289147
I14   I     I_    0.831133 0.435410 0.665736 -0.292793
I15   I     I_    0.432617 0.165468 0.339523 -0.323307
I16   I     I_    0.562478 0.829102 0.668562 -0.316646
I17   I     I_    0.337642 0.070716 0.156186 -0.323644
I18   I     I_    0.668578 0.935589 0.834618 -0.313476
I19   I     I_    0.058711 0.674475 0.176107 -0.308798
I20   I     I_    0.940228 0.326056 0.825313 -0.309642
I21   I     I_    0.665370 0.932783 0.160326 -0.295996
I22   I     I_    0.337907 0.069731 0.843946 -0.296517
I23   I     I_    0.933082 0.333753 0.160538 -0.290378
I24   I     I_    0.068340 0.665272 0.840341 -0.287611
I25   I     I_    0.331589 0.935056 0.835168 -0.319321
I26   I     I_    0.666698 0.066534 0.161561 -0.322366
I27   I     I_    0.071562 0.339820 0.846456 -0.286001
I28   I     I_    0.929572 0.662112 0.155812 -0.286654
I29   I     I_    0.670977 0.062999 0.830651 -0.289402
I30   I     I_    0.324635 0.941996 0.177705 -0.289044
I31   I     I_    0.938594 0.671493 0.829849 -0.314445
I32   I     I_    0.068167 0.335207 0.159439 -0.328082

loop_
_geom_bond_atom_site_label_1
_geom_bond_atom_site_label_2
_ccdc_geom_bond_type
O6    Zn11  S    
C200  C218  A    
C175  C207  A    
O13   Zn4   S    
C10   C154  A    
O27   Zn14  S    
C119  O27   A    
C170  I26   S    
C163  I19   S    
C5    C119  S    
C156  I12   S    
O19   Zn2   S    
C186  H74   S    
C158  I14   S    
C10   C124  S    
C52   C61   A    
C17   C107  S    
C128  O42   A    
C187  H75   S    
C91   C131  A    
C205  C211  A    
C22   C38   A    
C43   C76   A    
C5    C149  A    
O2    Zn11  S    
C122  O30   A    
C97   C137  A    
C89   C94   A    
C16   C122  S    
C91   C96   A    
C2    C116  S    
C167  I23   S    
C18   C26   A    
C45   C78   A    
C48   C65   A    
C114  O22   A    
C58   H2    S    
C8    C114  S    
O16   Zn5   S    
C205  H93   S    
C207  H95   S    
C208  H96   S    
C178  C210  A    
C203  C213  A    
C13   C163  A    
C20   C106  S    
C48   C217  S    
C183  C215  A    
C172  I28   S    
C166  I22   S    
O17   Zn8   S    
C38   C129  A    
C199  H87   S    
C43   C222  S    
C24   C110  S    
C200  H88   S    
C32   C139  A    
C96   C136  A    
C131  H35   S    
O3    Zn10  S    
C195  C221  A    
C20   C28   A    
C16   C162  A    
C196  H84   S    
C153  I9    S    
O3    Zn7   S    
C49   C82   A    
C118  O26   A    
C166  C198  A    
C73   C88   A    
C72   H16   S    
C75   C86   A    
C45   C68   A    
C110  O18   A    
C125  O33   A    
C66   H10   S    
O39   Zn2   S    
C36   C135  A    
C191  C223  A    
O45   Zn3   S    
C90   C93   A    
C174  I30   S    
C73   H17   S    
C139  H43   S    
C122  O40   A    
C42   C73   A    
C105  O9    A    
C15   C161  A    
C14   C158  A    
C103  C143  A    
C46   C77   A    
O30   Zn12  S    
C192  H80   S    
C177  H65   S    
C33   C38   A    
C149  I5    S    
C17   C25   A    
C176  C208  A    
O14   Zn3   S    
C56   C209  S    
C155  C187  A    
O48   Zn2   S    
C50   C215  S    
C9    C123  S    
C35   C40   A    
C18   C108  S    
C170  C202  A    
C127  O41   A    
C13   C127  S    
C206  C212  A    
C12   C126  S    
C10   C168  A    
O2    Zn2   S    
C174  C206  A    
C1    C115  S    
C76   C85   A    
C50   C81   A    
C79   H23   S    
C144  H48   S    
C4    C148  A    
C156  C188  A    
C3    C147  A    
C16   C160  A    
O3    Zn3   S    
C1    C145  A    
C25   C142  A    
C175  I31   S    
O4    Zn8   S    
C14   C128  S    
C132  H36   S    
C6    C172  A    
C56   C57   A    
C133  H37   S    
C29   C138  A    
C154  C186  A    
C24   C36   A    
C180  H68   S    
C143  H47   S    
C181  H69   S    
C92   C132  A    
C93   C133  A    
C190  C222  A    
O21   Zn16  S    
C147  C179  A    
O22   Zn15  S    
C204  C214  A    
C55   C88   A    
C146  C178  A    
C159  C191  A    
C180  C212  A    
C150  I6    S    
C62   H6    S    
C108  O8    A    
C201  H89   S    
O2    Zn6   S    
C121  O39   A    
C74   C87   A    
C185  H73   S    
C204  H92   S    
C11   C155  A    
C57   H1    S    
C41   C74   A    
C9    C153  A    
C49   C64   A    
C171  C203  A    
C50   C63   A    
C119  O49   A    
C99   C139  A    
C51   C62   A    
C193  H81   S    
C47   C80   A    
C12   C156  A    
C169  I25   S    
C33   C134  A    
C105  O5    A    
C130  H34   S    
C53   C60   A    
C54   C59   A    
C22   C34   A    
O35   Zn13  S    
O33   Zn15  S    
O46   Zn4   S    
C77   C84   A    
C60   H4    S    
C74   H18   S    
C92   H56   S    
C107  O7    A    
O29   Zn11  S    
C93   H49   S    
C160  I16   S    
C116  O46   A    
O31   Zn9   S    
C206  H94   S    
C106  O6    A    
C198  H86   S    
C89   H53   S    
C161  C193  A    
C108  O12   A    
C91   H55   S    
C51   C214  S    
C40   C131  A    
C22   C112  S    
C96   H52   S    
C63   H7    S    
O40   Zn1   S    
C20   C32   A    
C1    C175  A    
C154  I10   S    
C82   H26   S    
C36   C39   A    
C124  O38   A    
C79   C82   A    
C164  C196  A    
C151  C183  A    
C86   H30   S    
C100  H64   S    
C101  H57   S    
C116  O24   A    
O50   Zn8   S    
C110  O14   A    
C152  I8    S    
O7    Zn14  S    
C60   C69   A    
C53   C212  S    
C151  I7    S    
C78   H22   S    
C14   C164  A    
O4    Zn13  S    
C63   C66   A    
C41   C224  S    
C188  H76   S    
C189  H77   S    
C207  C209  A    
C45   C220  S    
C173  I29   S    
C11   C165  A    
C102  C142  A    
O43   Zn6   S    
C31   C140  A    
C155  I11   S    
O51   Zn5   S    
C178  H66   S    
C34   C37   A    
C17   C29   A    
C199  C217  A    
C183  H71   S    
C19   C31   A    
C150  C182  A    
C48   C79   A    
C65   H9    S    
C11   C125  S    
O36   Zn14  S    
C58   C71   A    
C184  C216  A    
C84   H28   S    
C95   H51   S    
C172  C204  A    
C121  O29   A    
C3    C117  S    
C123  O31   A    
C78   C83   A    
O20   Zn1   S    
C61   H5    S    
C80   H24   S    
O41   Zn4   S    
C141  H45   S    
C26   C141  A    
C59   H3    S    
C47   C66   A    
C97   C102  A    
C113  O21   A    
C128  O36   A    
C87   H31   S    
C99   C104  A    
O9    Zn16  S    
C115  O23   A    
C148  C180  A    
C30   C137  A    
C4    C174  A    
O10   Zn15  S    
C148  I4    S    
C149  C181  A    
O12   Zn9   S    
C182  H70   S    
C112  O20   A    
C21   C111  S    
C8    C170  A    
C188  C220  A    
C145  I1    S    
C23   C109  S    
C47   C218  S    
C203  H91   S    
C111  O15   A    
C192  C224  A    
C64   H8    S    
C100  C103  A    
C202  H90   S    
C71   H15   S    
C140  H44   S    
C35   C136  A    
C52   C83   A    
C117  O25   A    
O24   Zn9   S    
C165  C197  A    
C186  C218  A    
C163  C195  A    
C27   C144  A    
O32   Zn10  S    
C44   C69   A    
C28   C143  A    
C161  I17   S    
C194  H82   S    
C160  C192  A    
C126  O34   A    
C185  C217  A    
C7    C151  A    
C19   C105  S    
C23   C35   A    
C7    C169  A    
O38   Zn7   S    
O1    Zn16  S    
C112  O16   A    
O2    Zn15  S    
C25   C30   A    
C168  I24   S    
C168  C200  A    
C8    C152  A    
C27   C32   A    
C28   C31   A    
C97   H61   S    
C94   H50   S    
C125  O43   A    
C99   H63   S    
C106  O10   A    
C98   C101  A    
C129  H33   S    
C90   H54   S    
O11   Zn10  S    
C64   C65   A    
C158  C190  A    
C109  O17   A    
C98   C138  A    
C104  H60   S    
C55   C210  S    
C117  O51   A    
C42   C71   A    
C171  I27   S    
C57   C72   A    
C157  I13   S    
C59   C70   A    
C169  C201  A    
C90   C130  A    
C193  C223  A    
C21   C37   A    
C55   C58   A    
O34   Zn16  S    
O1    Zn1   S    
C173  C205  A    
C197  C219  A    
C89   C129  A    
C51   C84   A    
O23   Zn10  S    
C124  O32   A    
C135  H39   S    
C179  C211  A    
O42   Zn3   S    
C136  H40   S    
C102  H58   S    
O28   Zn13  S    
O44   Zn5   S    
C159  I15   S    
C184  H72   S    
C142  H46   S    
O8    Zn13  S    
C88   H32   S    
C187  C219  A    
C127  O35   A    
C49   C216  S    
C67   H11   S    
O52   Zn6   S    
C62   C67   A    
C76   H20   S    
C12   C166  A    
C189  C221  A    
C39   C132  A    
C190  H78   S    
C165  I21   S    
C113  O47   A    
C37   C130  A    
C177  C209  A    
C115  O45   A    
C164  I20   S    
C100  C140  A    
C2    C176  A    
C101  C141  A    
C3    C173  A    
C201  C215  A    
O5    Zn12  S    
O26   Zn11  S    
C104  C144  A    
C179  H67   S    
C53   C86   A    
C18   C30   A    
C21   C33   A    
O1    Zn5   S    
C152  C184  A    
C68   H12   S    
C120  O28   A    
C134  H38   S    
C120  O50   A    
C4    C118  S    
C137  H41   S    
C6    C120  S    
O15   Zn6   S    
O37   Zn8   S    
O1    Zn12  S    
C9    C167  A    
C56   C87   A    
C138  H42   S    
C34   C133  A    
C92   C95   A    
C197  H85   S    
C44   C75   A    
C176  I32   S    
C126  O44   A    
O49   Zn7   S    
C162  C194  A    
C95   C135  A    
C5    C171  A    
C103  H59   S    
C6    C150  A    
C107  O11   A    
C41   C72   A    
C114  O48   A    
C54   C211  S    
C118  O52   A    
C146  I2    S    
C43   C70   A    
C111  O19   A    
C42   C223  S    
O18   Zn7   S    
C19   C27   A    
C194  C224  A    
C167  C199  A    
C46   C219  S    
C15   C121  S    
C83   H27   S    
C198  C220  A    
C81   H25   S    
C80   C81   A    
C123  O37   A    
C15   C159  A    
C54   C85   A    
C181  C213  A    
C191  H79   S    
C2    C146  A    
C70   H14   S    
C85   H29   S    
O47   Zn1   S    
C7    C113  S    
C162  I18   S    
C46   C67   A    
C195  H83   S    
O4    Zn4   S    
C109  O13   A    
C61   C68   A    
C153  C185  A    
C23   C39   A    
C52   C213  S    
C94   C134  A    
C77   H21   S    
C157  C189  A    
C24   C40   A    
C75   H19   S    
C147  I3    S    
O3    Zn14  S    
C26   C29   A    
C208  C210  A    
C145  C177  A    
C182  C214  A    
C44   C221  S    
C202  C216  A    
C13   C157  A    
C69   H13   S    
O4    Zn9   S    
C196  C222  A    
C98   H62   S    
O25   Zn12  S    
