data_mof_unit_62741.cif
_audit_creation_date              2012-12-10T19:01:46-0500
_audit_creation_method            fapswitch 2.2
_symmetry_space_group_name_H-M    P1
_symmetry_Int_Tables_number       1
_space_group_crystal_system       triclinic
_cell_length_a                    24.441789
_cell_length_b                    24.44171
_cell_length_c                    25.898142
_cell_angle_alpha                 89.99343
_cell_angle_beta                  90.000019
_cell_angle_gamma                 89.978532
_cell_volume                      15471.5260169

loop_
_atom_site_label
_atom_site_type_symbol
_atom_type_description
_atom_site_fract_x
_atom_site_fract_y
_atom_site_fract_z
_atom_type_partial_charge
C1    C     C_R   0.228433 0.270943 0.250517 0.113921
C2    C     C_R   0.771587 0.729076 0.749463 0.114082
C3    C     C_R   0.271634 0.771039 0.249569 0.107366
C4    C     C_R   0.728340 0.228985 0.750456 0.107436
C5    C     C_R   0.771609 0.729100 0.250559 0.113821
C6    C     C_R   0.228065 0.270818 0.749266 0.097689
C7    C     C_R   0.728234 0.229173 0.249281 0.110334
C8    C     C_R   0.271612 0.771063 0.750412 0.107601
C9    C     C_R   0.771009 0.271657 0.750534 0.108598
C10   C     C_R   0.228967 0.728365 0.249492 0.108734
C11   C     C_R   0.728915 0.771733 0.749548 0.089499
C12   C     C_R   0.271108 0.228289 0.250433 0.089815
C13   C     C_R   0.228949 0.728385 0.750487 0.108543
C14   C     C_R   0.770841 0.271900 0.249299 0.101236
C15   C     C_R   0.270793 0.228209 0.749241 0.111682
C16   C     C_R   0.728936 0.771756 0.250473 0.089723
C17   C     C_R   0.147406 0.352297 0.250254 -0.003083
C18   C     C_R   0.852602 0.647712 0.749737 -0.002414
C19   C     C_R   0.352597 0.852398 0.249856 -0.005624
C20   C     C_R   0.647392 0.147611 0.750154 -0.005699
C21   C     C_R   0.852612 0.647723 0.250268 -0.003227
C22   C     C_R   0.147212 0.352270 0.749660 -0.012305
C23   C     C_R   0.647375 0.147687 0.249766 -0.007023
C24   C     C_R   0.352585 0.852412 0.750137 -0.005465
C25   C     C_R   0.852342 0.352648 0.750258 -0.000594
C26   C     C_R   0.147648 0.647362 0.249753 0.000135
C27   C     C_R   0.647559 0.852656 0.749846 -0.018840
C28   C     C_R   0.352450 0.147351 0.250146 -0.018671
C29   C     C_R   0.147641 0.647369 0.750233 -0.000599
C30   C     C_R   0.852270 0.352769 0.249672 -0.009998
C31   C     C_R   0.352303 0.147363 0.749749 0.002110
C32   C     C_R   0.647563 0.852661 0.250163 -0.018775
C33   C     C_R   0.041186 0.407534 0.446323 -0.297658
C34   C     C_R   0.959023 0.592515 0.553695 -0.296131
C35   C     C_R   0.591638 0.956944 0.446310 -0.300233
C36   C     C_R   0.408212 0.042648 0.553671 -0.297681
C37   C     C_R   0.959040 0.592507 0.446268 -0.296097
C38   C     C_R   0.041333 0.407624 0.553749 -0.299956
C39   C     C_R   0.408299 0.042779 0.446263 -0.300829
C40   C     C_R   0.591635 0.956975 0.553718 -0.301132
C41   C     C_R   0.542804 0.908266 0.946297 -0.298100
C42   C     C_R   0.457410 0.091785 0.053723 -0.296513
C43   C     C_R   0.907376 0.459256 0.946316 -0.293345
C44   C     C_R   0.092687 0.540503 0.053702 -0.293133
C45   C     C_R   0.457560 0.091880 0.946312 -0.294509
C46   C     C_R   0.542818 0.908257 0.053707 -0.298135
C47   C     C_R   0.092685 0.540469 0.946271 -0.294135
C48   C     C_R   0.907459 0.459124 0.053746 -0.296723
C49   C     C_R   0.061799 0.362491 0.473091 0.395316
C50   C     C_R   0.938666 0.637675 0.526936 0.392929
C51   C     C_R   0.636234 0.935378 0.473060 0.392974
C52   C     C_R   0.363508 0.063985 0.526911 0.395150
C53   C     C_R   0.938677 0.637672 0.473006 0.392845
C54   C     C_R   0.061907 0.362553 0.527021 0.390524
C55   C     C_R   0.363571 0.064087 0.472987 0.390385
C56   C     C_R   0.636233 0.935394 0.526985 0.393074
C57   C     C_R   0.564253 0.863606 0.973038 0.394437
C58   C     C_R   0.436219 0.136568 0.026991 0.392020
C59   C     C_R   0.862236 0.438892 0.973082 0.396637
C60   C     C_R   0.137949 0.560595 0.026943 0.394271
C61   C     C_R   0.436330 0.136634 0.973066 0.396745
C62   C     C_R   0.564262 0.863602 0.026964 0.394531
C63   C     C_R   0.137949 0.560575 0.973013 0.394344
C64   C     C_R   0.862295 0.438791 0.027014 0.392149
C65   C     C_R   0.521862 0.954487 0.027224 0.013966
C66   C     C_R   0.478290 0.045546 0.972788 0.012251
C67   C     C_R   0.954066 0.479126 0.027239 0.014394
C68   C     C_R   0.045975 0.520705 0.972772 0.012584
C69   C     C_R   0.478251 0.045516 0.027230 0.014424
C70   C     C_R   0.521859 0.954494 0.972781 0.014280
C71   C     C_R   0.045979 0.520718 0.027218 0.012705
C72   C     C_R   0.954041 0.479156 0.972792 0.012755
C73   C     C_R   0.021101 0.454150 0.527241 0.014787
C74   C     C_R   0.979048 0.545882 0.472770 0.013085
C75   C     C_R   0.545453 0.978029 0.527227 0.014333
C76   C     C_R   0.454527 0.021842 0.472762 0.014309
C77   C     C_R   0.979044 0.545889 0.527215 0.012763
C78   C     C_R   0.021063 0.454122 0.472795 0.012621
C79   C     C_R   0.454501 0.021812 0.527204 0.012519
C80   C     C_R   0.545458 0.978017 0.472784 0.014453
C81   C     C_R   0.000001 0.499998 0.110141 0.788796
C82   C     C_R   0.999976 0.499995 0.889861 0.787888
C83   C     C_R   0.500002 0.999972 0.110140 0.788638
C84   C     C_R   0.500004 0.000001 0.889863 0.787896
C85   C     C_R   0.500000 0.999998 0.610137 0.787368
C86   C     C_R   0.500026 0.999995 0.389860 0.788143
C87   C     C_R   0.000004 0.500002 0.610141 0.788337
C88   C     C_R   0.000002 0.499974 0.389861 0.787493
C89   C     C_R   0.500012 0.999977 0.054021 -0.061664
C90   C     C_R   0.500027 0.000003 0.945987 -0.062116
C91   C     C_R   0.000004 0.499977 0.054022 -0.060173
C92   C     C_R   0.999984 0.499977 0.945985 -0.060515
C93   C     C_R   0.000026 0.500004 0.554022 -0.061035
C94   C     C_R   0.000012 0.499979 0.445985 -0.061405
C95   C     C_R   0.499997 0.999976 0.554013 -0.062921
C96   C     C_R   0.500018 0.999976 0.445979 -0.062508
C97   C     C_R   0.105170 0.605105 0.249947 0.799795
C98   C     C_R   0.894827 0.394897 0.750055 0.800609
C99   C     C_R   0.605130 0.894897 0.250021 0.807526
C100  C     C_R   0.394836 0.105125 0.749969 0.806362
C101  C     C_R   0.894818 0.394924 0.249927 0.800908
C102  C     C_R   0.105169 0.605105 0.750050 0.800691
C103  C     C_R   0.394872 0.105103 0.250017 0.807590
C104  C     C_R   0.605130 0.894898 0.749981 0.808367
C105  C     C_R   0.894883 0.605187 0.749944 0.801374
C106  C     C_R   0.105119 0.394815 0.250054 0.802309
C107  C     C_R   0.394874 0.894854 0.750017 0.796833
C108  C     C_R   0.605128 0.105164 0.249971 0.798081
C109  C     C_R   0.105069 0.394822 0.749926 0.802077
C110  C     C_R   0.894885 0.605191 0.250056 0.802391
C111  C     C_R   0.605122 0.105151 0.750019 0.796995
C112  C     C_R   0.394876 0.894850 0.249982 0.797873
C113  C     C_R   0.177240 0.260815 0.227833 -0.145943
C114  C     C_R   0.822783 0.739202 0.772141 -0.145916
C115  C     C_R   0.276995 0.806813 0.207418 -0.151423
C116  C     C_R   0.722975 0.193211 0.792606 -0.151393
C117  C     C_R   0.822795 0.739218 0.227854 -0.146019
C118  C     C_R   0.193603 0.277261 0.792243 -0.152325
C119  C     C_R   0.739015 0.177462 0.227919 -0.160267
C120  C     C_R   0.276971 0.806826 0.792563 -0.151597
C121  C     C_R   0.822963 0.260688 0.771296 -0.152790
C122  C     C_R   0.177007 0.739335 0.228742 -0.152973
C123  C     C_R   0.721712 0.805445 0.792948 -0.142399
C124  C     C_R   0.278306 0.194569 0.207038 -0.142679
C125  C     C_R   0.176989 0.739342 0.771241 -0.153155
C126  C     C_R   0.805910 0.277982 0.206708 -0.141901
C127  C     C_R   0.260477 0.176757 0.771340 -0.138137
C128  C     C_R   0.721720 0.805464 0.207065 -0.142509
C129  C     C_R   0.695007 0.778956 0.706287 -0.130860
C130  C     C_R   0.305016 0.221069 0.293695 -0.131069
C131  C     C_R   0.760145 0.323616 0.729730 -0.153033
C132  C     C_R   0.239843 0.676401 0.270279 -0.152876
C133  C     C_R   0.322280 0.238772 0.727329 -0.141211
C134  C     C_R   0.695036 0.778977 0.293739 -0.130933
C135  C     C_R   0.239828 0.676428 0.729695 -0.152782
C136  C     C_R   0.776857 0.306799 0.292012 -0.161762
C137  C     C_R   0.307235 0.776384 0.291851 -0.163681
C138  C     C_R   0.692747 0.223634 0.708168 -0.163731
C139  C     C_R   0.238647 0.322136 0.273166 -0.144009
C140  C     C_R   0.761366 0.677881 0.726823 -0.143829
C141  C     C_R   0.676555 0.239716 0.270825 -0.155912
C142  C     C_R   0.307218 0.776417 0.708134 -0.163851
C143  C     C_R   0.761392 0.677909 0.273218 -0.143618
C144  C     C_R   0.221555 0.305469 0.706423 -0.133420
C145  C     C_R   0.137172 0.301290 0.227421 -0.158406
C146  C     C_R   0.862847 0.698722 0.772559 -0.159381
C147  C     C_R   0.316891 0.847431 0.207742 -0.167760
C148  C     C_R   0.683087 0.152585 0.792275 -0.167673
C149  C     C_R   0.862853 0.698731 0.227429 -0.159353
C150  C     C_R   0.153212 0.317400 0.792262 -0.167680
C151  C     C_R   0.698779 0.137171 0.227847 -0.164474
C152  C     C_R   0.316872 0.847440 0.792245 -0.169472
C153  C     C_R   0.863166 0.300999 0.771506 -0.150725
C154  C     C_R   0.136810 0.699017 0.228526 -0.152093
C155  C     C_R   0.681590 0.845866 0.792942 -0.136062
C156  C     C_R   0.318420 0.154141 0.207049 -0.136178
C157  C     C_R   0.136798 0.699018 0.771461 -0.152066
C158  C     C_R   0.846560 0.317859 0.207054 -0.139632
C159  C     C_R   0.301041 0.136793 0.771911 -0.143399
C160  C     C_R   0.681590 0.845876 0.207065 -0.137640
C161  C     C_R   0.654374 0.818861 0.706588 -0.138290
C162  C     C_R   0.345644 0.181157 0.293398 -0.139916
C163  C     C_R   0.800622 0.363653 0.729254 -0.160785
C164  C     C_R   0.199372 0.636357 0.270748 -0.160666
C165  C     C_R   0.362583 0.198535 0.727270 -0.139221
C166  C     C_R   0.654392 0.818873 0.293431 -0.138377
C167  C     C_R   0.199362 0.636379 0.729229 -0.159475
C168  C     C_R   0.816989 0.347179 0.292023 -0.169230
C169  C     C_R   0.347659 0.816480 0.291812 -0.166901
C170  C     C_R   0.652330 0.183531 0.708200 -0.168322
C171  C     C_R   0.198330 0.362364 0.273323 -0.148555
C172  C     C_R   0.801676 0.637647 0.726672 -0.148577
C173  C     C_R   0.636584 0.199171 0.271386 -0.168325
C174  C     C_R   0.347646 0.816508 0.708179 -0.167049
C175  C     C_R   0.801697 0.637670 0.273362 -0.146922
C176  C     C_R   0.181690 0.346148 0.706781 -0.139346
H1    H     H_    0.167910 0.221397 0.210920 0.139745
H2    H     H_    0.832118 0.778622 0.789049 0.139395
H3    H     H_    0.250804 0.803022 0.173894 0.145895
H4    H     H_    0.749158 0.197006 0.826135 0.146020
H5    H     H_    0.832127 0.778635 0.210931 0.139108
H6    H     H_    0.198324 0.251796 0.826164 0.146548
H7    H     H_    0.778785 0.167860 0.211882 0.138569
H8    H     H_    0.250775 0.803029 0.826085 0.145852
H9    H     H_    0.832829 0.220723 0.786749 0.138399
H10   H     H_    0.167134 0.779303 0.213302 0.137962
H11   H     H_    0.746595 0.800127 0.827173 0.148718
H12   H     H_    0.253424 0.199885 0.172812 0.148573
H13   H     H_    0.167113 0.779305 0.786683 0.137646
H14   H     H_    0.801555 0.252347 0.172865 0.147389
H15   H     H_    0.220853 0.167138 0.787672 0.138950
H16   H     H_    0.746597 0.800147 0.172837 0.148712
H17   H     H_    0.700299 0.754221 0.671964 0.156207
H18   H     H_    0.299729 0.245808 0.328014 0.156151
H19   H     H_    0.720172 0.333570 0.714348 0.138904
H20   H     H_    0.279819 0.666447 0.285652 0.139214
H21   H     H_    0.331703 0.278377 0.710851 0.137644
H22   H     H_    0.700338 0.754248 0.328068 0.156235
H23   H     H_    0.279804 0.666483 0.714319 0.139602
H24   H     H_    0.751060 0.302430 0.325746 0.138641
H25   H     H_    0.303423 0.750059 0.325282 0.137705
H26   H     H_    0.696562 0.249958 0.674737 0.137765
H27   H     H_    0.278052 0.331388 0.290148 0.138334
H28   H     H_    0.721959 0.668632 0.709844 0.138629
H29   H     H_    0.666765 0.279501 0.286723 0.140412
H30   H     H_    0.303407 0.750102 0.674701 0.137700
H31   H     H_    0.721993 0.668664 0.290217 0.139130
H32   H     H_    0.246845 0.300764 0.672386 0.154522
H33   H     H_    0.097986 0.292431 0.209777 0.164387
H34   H     H_    0.902036 0.707581 0.790197 0.162877
H35   H     H_    0.320298 0.874435 0.174732 0.165522
H36   H     H_    0.679679 0.125581 0.825285 0.165669
H37   H     H_    0.902034 0.707582 0.209769 0.162883
H38   H     H_    0.127257 0.321718 0.825921 0.165374
H39   H     H_    0.708149 0.097573 0.211278 0.164937
H40   H     H_    0.320276 0.874435 0.825256 0.165262
H41   H     H_    0.902955 0.291487 0.787596 0.163890
H42   H     H_    0.097016 0.708529 0.212448 0.161999
H43   H     H_    0.676623 0.871230 0.826924 0.175885
H44   H     H_    0.323382 0.128770 0.173071 0.175763
H45   H     H_    0.097005 0.708521 0.787546 0.162009
H46   H     H_    0.873010 0.321878 0.173705 0.173688
H47   H     H_    0.292038 0.097405 0.789092 0.163258
H48   H     H_    0.676613 0.871237 0.173076 0.175713
H49   H     H_    0.628851 0.823840 0.672710 0.176994
H50   H     H_    0.371167 0.176181 0.327276 0.176799
H51   H     H_    0.791216 0.403430 0.713078 0.161861
H52   H     H_    0.208786 0.596575 0.286908 0.161873
H53   H     H_    0.402007 0.207731 0.710260 0.163382
H54   H     H_    0.628874 0.823851 0.327311 0.176976
H55   H     H_    0.208780 0.596603 0.713066 0.163597
H56   H     H_    0.820961 0.373462 0.325487 0.163659
H57   H     H_    0.374521 0.819880 0.324922 0.163587
H58   H     H_    0.625474 0.180127 0.675086 0.163584
H59   H     H_    0.207283 0.401569 0.290884 0.163106
H60   H     H_    0.792717 0.598440 0.709119 0.163123
H61   H     H_    0.597018 0.208355 0.288117 0.165111
H62   H     H_    0.374513 0.819913 0.675072 0.163548
H63   H     H_    0.792742 0.598466 0.290932 0.165081
H64   H     H_    0.177321 0.372283 0.673245 0.175187
H65   H     H_    0.040924 0.405238 0.404624 0.182207
H66   H     H_    0.959228 0.594779 0.595396 0.182248
H67   H     H_    0.593985 0.957164 0.404619 0.181710
H68   H     H_    0.405840 0.042347 0.595362 0.182992
H69   H     H_    0.959257 0.594766 0.404567 0.182321
H70   H     H_    0.041197 0.405392 0.595451 0.181007
H71   H     H_    0.405989 0.042592 0.404569 0.181759
H72   H     H_    0.593981 0.957219 0.595409 0.181784
H73   H     H_    0.542572 0.905933 0.904605 0.181860
H74   H     H_    0.457584 0.094083 0.095418 0.181932
H75   H     H_    0.905099 0.459506 0.904615 0.182242
H76   H     H_    0.094930 0.540311 0.095405 0.182207
H77   H     H_    0.457863 0.094244 0.904620 0.183060
H78   H     H_    0.542596 0.905918 0.095400 0.181724
H79   H     H_    0.094928 0.540250 0.904568 0.182248
H80   H     H_    0.905242 0.459259 0.095450 0.181113
O1    O     O_3   0.000000 0.500000 0.250000 -0.488717
O2    O     O_3   1.000000 0.500000 0.750000 -0.488784
O3    O     O_3   0.500000 0.000000 0.250000 -0.488637
O4    O     O_3   0.500000 1.000000 0.750000 -0.488648
O5    O     O_R   1.000000 0.454520 0.134210 -0.636414
O6    O     O_R   1.000000 0.545480 0.865790 -0.633488
O7    O     O_R   0.454520 0.000000 0.134210 -0.638172
O8    O     O_R   0.545480 0.000000 0.865790 -0.637896
O9    O     O_R   1.000000 0.545480 0.134210 -0.633575
O10   O     O_R   1.000000 0.454520 0.865790 -0.636217
O11   O     O_R   0.545480 0.000000 0.134210 -0.635695
O12   O     O_R   0.454520 0.000000 0.865790 -0.635806
O13   O     O_R   0.500000 0.954520 0.634210 -0.638633
O14   O     O_R   0.500000 0.045480 0.365790 -0.636064
O15   O     O_R   0.954520 0.500000 0.634210 -0.634348
O16   O     O_R   0.045480 0.500000 0.365790 -0.634214
O17   O     O_R   0.500000 0.045480 0.634210 -0.635912
O18   O     O_R   0.500000 0.954520 0.365790 -0.638742
O19   O     O_R   0.045480 0.500000 0.634210 -0.636516
O20   O     O_R   0.954520 0.500000 0.365790 -0.636488
O21   O     O_R   0.063990 0.609460 0.219650 -0.640612
O22   O     O_R   0.936010 0.390540 0.780350 -0.638981
O23   O     O_R   0.609460 0.936010 0.219650 -0.643152
O24   O     O_R   0.390540 0.063990 0.780350 -0.641355
O25   O     O_R   0.936010 0.390540 0.219650 -0.643424
O26   O     O_R   0.063990 0.609460 0.780350 -0.640703
O27   O     O_R   0.390540 0.063990 0.219650 -0.640893
O28   O     O_R   0.609460 0.936010 0.780350 -0.641180
O29   O     O_R   0.936010 0.609460 0.780350 -0.643722
O30   O     O_R   0.063990 0.390540 0.219650 -0.642188
O31   O     O_R   0.390540 0.936010 0.780350 -0.642474
O32   O     O_R   0.609460 0.063990 0.219650 -0.640316
O33   O     O_R   0.063990 0.390540 0.780350 -0.641418
O34   O     O_R   0.936010 0.609460 0.219650 -0.643898
O35   O     O_R   0.609460 0.063990 0.780350 -0.640114
O36   O     O_R   0.390540 0.936010 0.219650 -0.640439
O37   O     O_R   0.563990 0.109460 0.719650 -0.642399
O38   O     O_R   0.436010 0.890540 0.280350 -0.640487
O39   O     O_R   0.109460 0.436010 0.719650 -0.643189
O40   O     O_R   0.890540 0.563990 0.280350 -0.639375
O41   O     O_R   0.436010 0.890540 0.719650 -0.640197
O42   O     O_R   0.563990 0.109460 0.280350 -0.641071
O43   O     O_R   0.890540 0.563990 0.719650 -0.641111
O44   O     O_R   0.109460 0.436010 0.280350 -0.641241
O45   O     O_R   0.436010 0.109460 0.280350 -0.643015
O46   O     O_R   0.563990 0.890540 0.719650 -0.641089
O47   O     O_R   0.890540 0.436010 0.280350 -0.641501
O48   O     O_R   0.109460 0.563990 0.719650 -0.642370
O49   O     O_R   0.563990 0.890540 0.280350 -0.640830
O50   O     O_R   0.436010 0.109460 0.719650 -0.640990
O51   O     O_R   0.109460 0.563990 0.280350 -0.644020
O52   O     O_R   0.890540 0.436010 0.719650 -0.644207
Zn1   Zn    Zn3+2 0.064970 0.500000 0.293390 0.988145
Zn2   Zn    Zn3+2 0.935030 0.500000 0.706610 0.988108
Zn3   Zn    Zn3+2 0.500000 0.935030 0.293390 0.987802
Zn4   Zn    Zn3+2 0.500000 0.064970 0.706610 0.988254
Zn5   Zn    Zn3+2 0.935030 0.500000 0.293390 0.989015
Zn6   Zn    Zn3+2 0.064970 0.500000 0.706610 0.987136
Zn7   Zn    Zn3+2 0.500000 0.064970 0.293390 0.987746
Zn8   Zn    Zn3+2 0.500000 0.935030 0.706610 0.987683
Zn9   Zn    Zn3+2 0.564970 1.000000 0.793390 0.988676
Zn10  Zn    Zn3+2 0.435030 0.000000 0.206610 0.988671
Zn11  Zn    Zn3+2 0.000000 0.435030 0.793390 0.989569
Zn12  Zn    Zn3+2 0.000000 0.564970 0.206610 0.989452
Zn13  Zn    Zn3+2 0.435030 1.000000 0.793390 0.988455
Zn14  Zn    Zn3+2 0.564970 0.000000 0.206610 0.988727
Zn15  Zn    Zn3+2 0.000000 0.564970 0.793390 0.989314
Zn16  Zn    Zn3+2 0.000000 0.435030 0.206610 0.987736
Cl1   Cl    Cl    0.913812 0.693976 0.437749 -0.504550
Cl2   Cl    Cl    0.087255 0.306478 0.562304 -0.516281
Cl3   Cl    Cl    0.307889 0.090286 0.437702 -0.518030
Cl4   Cl    Cl    0.691808 0.908956 0.562261 -0.518322
Cl5   Cl    Cl    0.086898 0.306273 0.437871 -0.503922
Cl6   Cl    Cl    0.913784 0.693982 0.562166 -0.504401
Cl7   Cl    Cl    0.691813 0.908923 0.437807 -0.518971
Cl8   Cl    Cl    0.307679 0.089939 0.562135 -0.505797
Cl9   Cl    Cl    0.410524 0.192530 0.937833 -0.519842
Cl10  Cl    Cl    0.590554 0.807948 0.062227 -0.531591
Cl11  Cl    Cl    0.194378 0.585108 0.937758 -0.516676
Cl12  Cl    Cl    0.806101 0.413755 0.062294 -0.528235
Cl13  Cl    Cl    0.590535 0.807957 0.937774 -0.531778
Cl14  Cl    Cl    0.410155 0.192312 0.062266 -0.532142
Cl15  Cl    Cl    0.805903 0.414099 0.937859 -0.517362
Cl16  Cl    Cl    0.194379 0.585153 0.062176 -0.517245

loop_
_geom_bond_atom_site_label_1
_geom_bond_atom_site_label_2
_ccdc_geom_bond_type
C20   C170  A    
C22   C150  A    
C32   C166  A    
C13   C135  A    
C113  H1    S    
C76   C79   A    
C143  C175  A    
C24   C174  A    
C42   C58   A    
C21   C110  S    
C75   C95   A    
C65   C89   A    
C12   C130  A    
C46   C62   A    
C148  H36   S    
C135  H23   S    
O4    Zn13  S    
C33   C78   A    
C5    C143  A    
C35   C80   A    
C111  O35   A    
C40   H72   S    
C62   Cl10  S    
O3    Zn10  S    
C9    C121  A    
C139  C171  A    
C73   C93   A    
O11   Zn14  S    
C13   C125  A    
C58   C61   A    
C157  H45   S    
C151  H39   S    
C165  H53   S    
O25   Zn16  S    
C1    C113  A    
C163  H51   S    
C11   C129  A    
C172  H60   S    
C50   C53   A    
C120  C152  A    
C7    C119  A    
C46   C65   A    
O2    Zn2   S    
C123  C155  A    
C130  H18   S    
C28   C156  A    
C168  H56   S    
C20   C111  S    
C22   C109  S    
C156  H44   S    
C24   C107  S    
C31   C100  S    
C114  C146  A    
C160  H48   S    
C51   Cl7   S    
C116  H4    S    
C35   C51   A    
O3    Zn14  S    
C133  H21   S    
C55   Cl3   S    
C131  H19   S    
C10   C122  A    
O2    Zn6   S    
C14   C126  A    
C76   C96   A    
C2    C114  A    
C149  H37   S    
C78   C94   A    
C68   C92   A    
C29   C102  S    
C99   O49   A    
C125  C157  A    
C142  H30   S    
C48   C67   A    
C127  H15   S    
C136  H24   S    
C30   C168  A    
C43   H75   S    
C84   O8    A    
C139  H27   S    
O20   Zn5   S    
O36   Zn10  S    
C35   H67   S    
C138  H26   S    
C33   H65   S    
C16   C134  A    
C37   H69   S    
O13   Zn8   S    
C171  H59   S    
O14   Zn7   S    
C152  H40   S    
C169  H57   S    
O26   Zn15  S    
O23   Zn14  S    
C140  H28   S    
C173  H61   S    
C122  H10   S    
C113  C145  A    
C65   C70   A    
C27   C104  S    
C67   C72   A    
C77   C93   A    
C126  H14   S    
C97   O21   A    
O16   Zn1   S    
O37   Zn4   S    
C99   O23   A    
O38   Zn3   S    
C31   C165  A    
C21   C175  A    
C74   C77   A    
C20   C148  A    
C21   C149  A    
C153  H41   S    
C36   C52   A    
C43   C59   A    
O8    Zn9   S    
C37   C53   A    
C130  C162  A    
O4    Zn4   S    
C81   O9    A    
C60   Cl16  S    
C1    C12   S    
C84   C90   S    
C69   C89   A    
C2    C11   S    
C162  H50   S    
O52   Zn2   S    
C145  H33   S    
C83   C89   S    
C88   C94   S    
O15   Zn2   S    
O35   Zn9   S    
O2    Zn15  S    
C124  H12   S    
C63   Cl11  S    
C109  O39   A    
C110  O40   A    
O4    Zn9   S    
C105  O29   A    
C128  H16   S    
C107  O31   A    
O7    Zn10  S    
C108  O32   A    
C53   Cl1   S    
C144  C176  A    
C129  C161  A    
C119  H7    S    
C120  H8    S    
C58   Cl14  S    
C6    C144  A    
C47   C68   A    
C7    C141  A    
O31   Zn13  S    
O46   Zn8   S    
O30   Zn16  S    
C143  H31   S    
C117  C149  A    
C101  O25   A    
C112  O38   A    
C17   C106  S    
C27   C161  A    
C85   C95   S    
C137  H25   S    
C25   C163  A    
C175  H63   S    
C87   C93   S    
C26   C164  A    
C85   O17   A    
C10   C132  A    
C26   C97   S    
C135  C167  A    
C15   C127  A    
C4    C9    S    
O3    Zn7   S    
C37   C74   A    
C8    C13   S    
C111  O37   A    
O9    Zn12  S    
C74   C94   A    
O10   Zn11  S    
C66   C90   A    
C109  O33   A    
C81   O5    A    
C8    C120  A    
C121  C153  A    
C34   C77   A    
C47   C63   A    
C72   C92   A    
C57   Cl13  S    
C48   C64   A    
C34   H66   S    
C33   C49   A    
C38   H70   S    
C115  C147  A    
O1    Zn16  S    
C82   C92   S    
C84   O12   A    
C134  H22   S    
C85   O13   A    
C118  C150  A    
O21   Zn12  S    
C24   C152  A    
O22   Zn11  S    
C83   O7    A    
O44   Zn1   S    
C39   C55   A    
C40   C56   A    
C82   O6    A    
C134  C166  A    
C155  H43   S    
C3    C137  A    
C1    C139  A    
C52   C55   A    
O28   Zn9   S    
C9    C131  A    
C166  H54   S    
C147  H35   S    
O19   Zn6   S    
C27   C155  A    
C97   O51   A    
C98   O52   A    
C36   H68   S    
C107  O41   A    
C116  C148  A    
C29   C157  A    
O49   Zn3   S    
O39   Zn6   S    
C25   C153  A    
C19   C147  A    
C154  H42   S    
C17   C145  A    
C132  C164  A    
C79   C95   A    
C133  C165  A    
O47   Zn5   S    
O43   Zn2   S    
C38   C54   A    
C131  C163  A    
O4    Zn8   S    
C67   C91   A    
C82   O10   A    
C167  H55   S    
C141  H29   S    
C86   C96   S    
O24   Zn13  S    
C39   H71   S    
O6    Zn15  S    
C176  H64   S    
C50   Cl6   S    
C98   O22   A    
C87   O19   A    
O45   Zn7   S    
C106  O30   A    
C4    C116  A    
C11   C123  A    
O41   Zn8   S    
C61   Cl9   S    
C56   Cl4   S    
C36   C79   A    
C22   C176  A    
C23   C173  A    
C108  O42   A    
C40   C75   A    
C29   C167  A    
C41   C57   A    
C3    C115  A    
C104  O28   A    
C28   C103  S    
C14   C136  A    
C44   C60   A    
C68   C71   A    
C23   C108  S    
C30   C101  S    
C45   C61   A    
C117  H5    S    
C4    C138  A    
C81   C91   S    
C71   C91   A    
C42   H74   S    
C8    C142  A    
C46   H78   S    
C41   C70   A    
C144  H32   S    
C43   C72   A    
C138  C170  A    
C102  O26   A    
C54   Cl2   S    
C28   C162  A    
C57   C62   A    
C142  C174  A    
C19   C112  S    
C47   H79   S    
C170  H58   S    
C59   C64   A    
C60   C63   A    
C86   O18   A    
C174  H62   S    
C49   Cl5   S    
C66   C69   A    
C49   C54   A    
C44   C71   A    
C51   C56   A    
O1    Zn1   S    
C5    C16   S    
C87   O15   A    
C6    C15   S    
O29   Zn15  S    
O3    Zn3   S    
C44   H76   S    
C7    C14   S    
C52   Cl8   S    
C73   C78   A    
C48   H80   S    
C75   C80   A    
C137  C169  A    
C100  O50   A    
C110  O34   A    
C158  H46   S    
C100  O24   A    
C141  C173  A    
C122  C154  A    
C70   C90   A    
O5    Zn16  S    
C103  O27   A    
C146  H34   S    
C88   O16   A    
C161  H49   S    
C126  C158  A    
C119  C151  A    
C34   C50   A    
C86   O14   A    
C136  C168  A    
C114  H2    S    
C121  H9    S    
C42   C69   A    
O50   Zn4   S    
C5    C117  A    
O51   Zn1   S    
O27   Zn10  S    
O1    Zn5   S    
C12   C124  A    
O33   Zn11  S    
O34   Zn12  S    
C164  H52   S    
C39   C76   A    
C16   C128  A    
O17   Zn4   S    
O18   Zn3   S    
C59   Cl15  S    
C124  C156  A    
C112  O36   A    
C26   C154  A    
C80   C96   A    
O1    Zn12  S    
C127  C159  A    
C64   Cl12  S    
O2    Zn11  S    
C128  C160  A    
O32   Zn14  S    
C118  H6    S    
C30   C158  A    
C23   C151  A    
C104  O46   A    
O40   Zn5   S    
C19   C169  A    
C18   C146  A    
O42   Zn7   S    
C129  H17   S    
C17   C171  A    
O48   Zn6   S    
C15   C133  A    
C18   C172  A    
O12   Zn13  S    
C32   C99   S    
C2    C140  A    
C83   O11   A    
C88   O20   A    
C18   C105  S    
C3    C10   S    
C159  H47   S    
C150  H38   S    
C123  H11   S    
C115  H3    S    
C101  O47   A    
C102  O48   A    
C25   C98   S    
C103  O45   A    
C140  C172  A    
C41   H73   S    
C45   C66   A    
C132  H20   S    
C125  H13   S    
C105  O43   A    
C106  O44   A    
C6    C118  A    
C31   C159  A    
C45   H77   S    
C32   C160  A    
C38   C73   A    
