data_mof_unit_25515.cif
_audit_creation_date              2012-10-26T21:33:16-0400
_audit_creation_method            fapswitch 2.2
_symmetry_space_group_name_H-M    P1
_symmetry_Int_Tables_number       1
_space_group_crystal_system       triclinic
_cell_length_a                    28.245164
_cell_length_b                    18.794694
_cell_length_c                    17.144573
_cell_angle_alpha                 89.999897
_cell_angle_beta                  61.685145
_cell_angle_gamma                 90.0
_cell_volume                      8012.41759706

loop_
_atom_site_label
_atom_site_type_symbol
_atom_type_description
_atom_site_fract_x
_atom_site_fract_y
_atom_site_fract_z
_atom_type_partial_charge
C1    C     C_R   0.703960 0.272570 0.674206 0.895785
C2    C     C_R   0.102273 0.500000 0.488981 -0.014531
C3    C     C_R   0.190938 0.214248 0.903738 0.087942
C4    C     C_R   0.076307 0.095880 0.932021 0.903259
C5    C     C_R   0.923693 0.904119 0.067979 0.903259
C6    C     C_R   0.923693 0.095881 0.067979 0.903258
C7    C     C_R   0.076307 0.904119 0.932021 0.903258
C8    C     C_R   0.576307 0.595880 0.932021 0.903259
C9    C     C_R   0.423693 0.404119 0.067979 0.903258
C10   C     C_R   0.423693 0.595881 0.067979 0.903258
C11   C     C_R   0.576307 0.404119 0.932021 0.903258
C12   C     C_R   0.554330 0.128918 0.481484 0.051683
C13   C     C_R   0.397727 1.000000 0.511019 -0.014531
C14   C     C_R   0.445670 0.871081 0.518516 0.051683
C15   C     C_R   0.445670 0.128918 0.518517 0.051684
C16   C     C_R   0.554330 0.871082 0.481483 0.051684
C17   C     C_R   0.054330 0.628919 0.481484 0.051683
C18   C     C_R   0.945670 0.371081 0.518517 0.051684
C19   C     C_R   0.945669 0.628918 0.518518 0.051683
C20   C     C_R   0.054330 0.371082 0.481484 0.051684
C21   C     C_R   0.527274 0.193406 0.488673 -0.200864
C22   C     C_R   0.472726 0.806594 0.511326 -0.200864
C23   C     C_R   0.472726 0.193406 0.511328 -0.200864
C24   C     C_R   0.602273 0.000000 0.488980 -0.014531
C25   C     C_R   0.527274 0.806594 0.488672 -0.200864
C26   C     C_R   0.027273 0.693406 0.488674 -0.200863
C27   C     C_R   0.972726 0.306594 0.511327 -0.200864
C28   C     C_R   0.972725 0.693406 0.511328 -0.200864
C29   C     C_R   0.027274 0.306594 0.488673 -0.200864
C30   C     C_R   0.473563 0.064614 0.506248 0.027873
C31   C     C_R   0.526437 0.935386 0.493752 0.027873
C32   C     C_R   0.526436 0.064614 0.493752 0.027873
C33   C     C_R   0.473564 0.935386 0.506247 0.027873
C34   C     C_R   0.973563 0.564614 0.506249 0.027873
C35   C     C_R   0.108633 0.373475 0.462527 0.077172
C36   C     C_R   0.026436 0.435386 0.493752 0.027873
C37   C     C_R   0.026436 0.564614 0.493753 0.027873
C38   C     C_R   0.973563 0.435386 0.506248 0.027873
C39   C     C_R   0.947677 0.500000 0.510364 -0.054754
C40   C     C_R   0.052322 0.500000 0.489637 -0.054754
C41   C     C_R   0.447678 1.000000 0.510363 -0.054754
C42   C     C_R   0.552322 1.000000 0.489636 -0.054754
C43   C     C_R   0.872280 0.435368 0.512790 0.044540
C44   C     C_R   0.127719 0.564632 0.487211 0.044541
C45   C     C_R   0.127719 0.435368 0.487211 0.044541
C46   C     C_R   0.891366 0.626525 0.537474 0.077172
C47   C     C_R   0.872280 0.564632 0.512790 0.044541
C48   C     C_R   0.372280 0.935368 0.512789 0.044540
C49   C     C_R   0.627720 0.064632 0.487210 0.044541
C50   C     C_R   0.627720 0.935368 0.487210 0.044541
C51   C     C_R   0.372280 0.064632 0.512790 0.044541
C52   C     C_R   0.831558 0.436104 0.485192 -0.149532
C53   C     C_R   0.168441 0.563896 0.514808 -0.149532
C54   C     C_R   0.168441 0.436104 0.514808 -0.149531
C55   C     C_R   0.831558 0.563896 0.485192 -0.149532
C56   C     C_R   0.331559 0.936104 0.485192 -0.149532
C57   C     C_R   0.891366 0.373475 0.537474 0.077172
C58   C     C_R   0.668441 0.063896 0.514808 -0.149531
C59   C     C_R   0.668441 0.936104 0.514808 -0.149531
C60   C     C_R   0.331559 0.063896 0.485192 -0.149531
C61   C     C_R   0.818182 0.500000 0.459151 -0.142339
C62   C     C_R   0.181818 0.500000 0.540849 -0.142339
C63   C     C_R   0.318182 0.000000 0.459151 -0.142339
C64   C     C_R   0.681818 1.000000 0.540849 -0.142339
C65   C     C_1   0.794628 0.500000 0.399657 0.261351
C66   C     C_1   0.205372 0.500000 0.600343 0.261350
C67   C     C_1   0.294628 0.000000 0.399657 0.261350
C68   C     C_R   0.108633 0.626525 0.462527 0.077172
C69   C     C_1   0.705372 1.000000 0.600343 0.261350
C70   C     C_1   0.718197 0.136387 0.924902 0.138324
C71   C     C_1   0.281803 0.863613 0.075098 0.138324
C72   C     C_1   0.281804 0.136387 0.075096 0.138324
C73   C     C_1   0.718194 0.863613 0.924907 0.138326
C74   C     C_1   0.218197 0.636387 0.924902 0.138324
C75   C     C_1   0.781803 0.363613 0.075098 0.138324
C76   C     C_1   0.781806 0.636387 0.075093 0.138326
C77   C     C_1   0.218195 0.363613 0.924904 0.138324
C78   C     C_1   0.633887 0.390971 0.744526 0.254921
C79   C     C_R   0.608634 0.873475 0.462526 0.077172
C80   C     C_1   0.366113 0.609029 0.255474 0.254920
C81   C     C_1   0.366111 0.390973 0.255474 0.254915
C82   C     C_1   0.633889 0.609026 0.744525 0.254915
C83   C     C_1   0.133886 0.890971 0.744526 0.254922
C84   C     C_1   0.866113 0.109029 0.255474 0.254920
C85   C     C_1   0.866111 0.890973 0.255474 0.254915
C86   C     C_1   0.133889 0.109026 0.744525 0.254914
C87   C     C_R   0.391366 0.126525 0.537473 0.077172
C88   C     C_R   0.391367 0.873475 0.537473 0.077173
C89   C     C_R   0.296040 0.727430 0.325794 0.895785
C90   C     C_R   0.608633 0.126525 0.462527 0.077173
C91   C     C_R   0.720739 0.265913 0.953406 0.041659
C92   C     C_R   0.279261 0.734087 0.046594 0.041659
C93   C     C_R   0.279261 0.265913 0.046594 0.041659
C94   C     C_R   0.720739 0.734087 0.953406 0.041658
C95   C     C_R   0.220739 0.765913 0.953405 0.041659
C96   C     C_R   0.779261 0.234087 0.046594 0.041659
C97   C     C_R   0.779261 0.765913 0.046594 0.041658
C98   C     C_R   0.220739 0.234087 0.953406 0.041660
C99   C     C_R   0.734806 0.194984 0.960727 0.017811
C100  C     C_R   0.296040 0.272570 0.325794 0.895786
C101  C     C_R   0.265194 0.805016 0.039272 0.017810
C102  C     C_R   0.265195 0.194984 0.039271 0.017810
C103  C     C_R   0.734804 0.805016 0.960730 0.017811
C104  C     C_R   0.234806 0.694984 0.960727 0.017811
C105  C     C_R   0.765194 0.305016 0.039272 0.017810
C106  C     C_R   0.765195 0.694984 0.039270 0.017811
C107  C     C_R   0.234805 0.305016 0.960729 0.017809
C108  C     C_R   0.763787 0.179856 0.006582 -0.236530
C109  C     C_R   0.236213 0.820144 0.993418 -0.236529
C110  C     C_R   0.236214 0.179856 0.993417 -0.236529
C111  C     C_R   0.703960 0.727430 0.674206 0.895786
C112  C     C_R   0.763785 0.820144 0.006585 -0.236530
C113  C     C_R   0.263787 0.679856 0.006582 -0.236530
C114  C     C_R   0.736213 0.320144 0.993418 -0.236530
C115  C     C_R   0.736215 0.679856 0.993415 -0.236530
C116  C     C_R   0.263786 0.320144 0.006583 -0.236529
C117  C     C_R   0.645769 0.330084 0.942790 -0.218724
C118  C     C_R   0.354231 0.669916 0.057210 -0.218724
C119  C     C_R   0.354231 0.330085 0.057210 -0.218725
C120  C     C_R   0.645769 0.669915 0.942790 -0.218724
C121  C     C_R   0.145769 0.830084 0.942790 -0.218723
C122  C     C_R   0.203960 0.772570 0.674206 0.895786
C123  C     C_R   0.854231 0.169916 0.057210 -0.218724
C124  C     C_R   0.854231 0.830085 0.057210 -0.218724
C125  C     C_R   0.145769 0.169916 0.942790 -0.218725
C126  C     C_R   0.622834 0.358294 0.891969 -0.112725
C127  C     C_R   0.377166 0.641706 0.108031 -0.112725
C128  C     C_R   0.377165 0.358295 0.108031 -0.112725
C129  C     C_R   0.622834 0.641705 0.891969 -0.112725
C130  C     C_R   0.122834 0.858294 0.891969 -0.112725
C131  C     C_R   0.877166 0.141706 0.108031 -0.112725
C132  C     C_R   0.877165 0.858295 0.108031 -0.112725
C133  C     C_R   0.796040 0.227430 0.325794 0.895785
C134  C     C_R   0.122834 0.141705 0.891969 -0.112725
C135  C     C_R   0.646510 0.346053 0.801593 -0.101578
C136  C     C_R   0.353490 0.653947 0.198407 -0.101577
C137  C     C_R   0.353489 0.346054 0.198407 -0.101576
C138  C     C_R   0.646510 0.653946 0.801593 -0.101576
C139  C     C_R   0.146509 0.846053 0.801593 -0.101578
C140  C     C_R   0.853490 0.153947 0.198407 -0.101577
C141  C     C_R   0.853489 0.846054 0.198407 -0.101576
C142  C     C_R   0.146510 0.153946 0.801593 -0.101575
C143  C     C_R   0.685123 0.293150 0.765800 -0.098515
C144  C     C_R   0.796040 0.772570 0.325794 0.895786
C145  C     C_R   0.314877 0.706850 0.234200 -0.098516
C146  C     C_R   0.314877 0.293150 0.234200 -0.098515
C147  C     C_R   0.685123 0.706850 0.765800 -0.098515
C148  C     C_R   0.185123 0.793150 0.765800 -0.098515
C149  C     C_R   0.814877 0.206850 0.234200 -0.098515
C150  C     C_R   0.814877 0.793150 0.234200 -0.098515
C151  C     C_R   0.185123 0.206850 0.765800 -0.098515
C152  C     C_R   0.708877 0.264608 0.815616 -0.189855
C153  C     C_R   0.291123 0.735392 0.184384 -0.189855
C154  C     C_R   0.291123 0.264608 0.184384 -0.189856
C155  C     C_R   0.203960 0.227430 0.674206 0.895786
C156  C     C_R   0.708877 0.735392 0.815616 -0.189856
C157  C     C_R   0.208877 0.764608 0.815616 -0.189855
C158  C     C_R   0.791123 0.235392 0.184384 -0.189855
C159  C     C_R   0.791123 0.764608 0.184384 -0.189855
C160  C     C_R   0.208877 0.235393 0.815616 -0.189855
C161  C     C_R   0.695196 0.128492 0.520753 0.920817
C162  C     C_R   0.304803 0.871508 0.479247 0.920818
C163  C     C_R   0.304803 0.128492 0.479247 0.920818
C164  C     C_R   0.695196 0.871508 0.520753 0.920818
C165  C     C_R   0.195196 0.628492 0.520753 0.920818
C166  C     C_R   0.897727 0.500000 0.511020 -0.014531
C167  C     C_R   0.804803 0.371508 0.479247 0.920818
C168  C     C_R   0.804803 0.628492 0.479247 0.920818
C169  C     C_R   0.195196 0.371508 0.520753 0.920818
C170  C     C_R   0.690939 0.285752 0.903738 0.087942
C171  C     C_R   0.309061 0.714248 0.096262 0.087942
C172  C     C_R   0.309061 0.285752 0.096262 0.087943
C173  C     C_R   0.690939 0.714248 0.903738 0.087942
C174  C     C_R   0.190939 0.785752 0.903738 0.087942
C175  C     C_R   0.809061 0.214248 0.096262 0.087942
C176  C     C_R   0.809061 0.785752 0.096262 0.087942
H1    H     H_    0.047081 0.255919 0.481346 0.135234
H2    H     H_    0.273588 0.625012 0.012551 0.150367
H3    H     H_    0.273587 0.374989 0.012553 0.150367
H4    H     H_    0.726414 0.625012 0.987445 0.150368
H5    H     H_    0.226412 0.874988 0.987449 0.150367
H6    H     H_    0.773588 0.125012 0.012551 0.150367
H7    H     H_    0.773585 0.874988 0.012555 0.150368
H8    H     H_    0.226413 0.125012 0.987447 0.150367
H9    H     H_    0.629407 0.343928 0.012165 0.160887
H10   H     H_    0.370593 0.656072 0.987835 0.160886
H11   H     H_    0.370593 0.343928 0.987835 0.160887
H12   H     H_    0.952918 0.744081 0.518655 0.135233
H13   H     H_    0.629407 0.656072 0.012165 0.160887
H14   H     H_    0.129407 0.843928 0.012165 0.160886
H15   H     H_    0.870593 0.156072 0.987835 0.160886
H16   H     H_    0.870593 0.843928 0.987835 0.160887
H17   H     H_    0.129407 0.156072 0.012165 0.160887
H18   H     H_    0.742779 0.228662 0.784759 0.162243
H19   H     H_    0.257221 0.771338 0.215241 0.162243
H20   H     H_    0.257222 0.228661 0.215241 0.162243
H21   H     H_    0.742778 0.771339 0.784759 0.162243
H22   H     H_    0.242779 0.728662 0.784759 0.162243
H23   H     H_    0.952919 0.255919 0.518653 0.135234
H24   H     H_    0.757221 0.271338 0.215241 0.162243
H25   H     H_    0.757222 0.728661 0.215241 0.162243
H26   H     H_    0.242778 0.271339 0.784759 0.162243
H27   H     H_    0.143754 0.328946 0.340236 0.174346
H28   H     H_    0.135541 0.272258 0.421992 0.196494
H29   H     H_    0.864458 0.727742 0.578008 0.196494
H30   H     H_    0.856246 0.671054 0.659765 0.174346
H31   H     H_    0.856246 0.328945 0.659764 0.174346
H32   H     H_    0.864459 0.272257 0.578008 0.196494
H33   H     H_    0.135541 0.727743 0.421993 0.196493
H34   H     H_    0.047081 0.744081 0.481348 0.135234
H35   H     H_    0.143753 0.671055 0.340237 0.174346
H36   H     H_    0.643754 0.828946 0.340236 0.174346
H37   H     H_    0.635541 0.772258 0.421992 0.196494
H38   H     H_    0.364458 0.227742 0.578008 0.196494
H39   H     H_    0.356246 0.171054 0.659764 0.174346
H40   H     H_    0.356247 0.828945 0.659764 0.174346
H41   H     H_    0.364459 0.772257 0.578007 0.196493
H42   H     H_    0.635541 0.227743 0.421992 0.196493
H43   H     H_    0.643753 0.171055 0.340236 0.174346
H44   H     H_    0.547081 0.755919 0.481345 0.135234
H45   H     H_    0.452918 0.244081 0.518654 0.135234
H46   H     H_    0.452919 0.755919 0.518652 0.135234
H47   H     H_    0.547081 0.244081 0.481347 0.135234
H48   H     H_    0.726412 0.374988 0.987449 0.150367
N1    N     N_1   0.776111 0.500000 0.352166 -0.176493
N2    N     N_3   0.353783 0.175682 0.601011 -0.417898
N3    N     N_3   0.353784 0.824317 0.601011 -0.417897
N4    N     N_3   0.646216 0.175683 0.398989 -0.417897
N5    N     N_1   0.704875 0.089424 0.896167 -0.171321
N6    N     N_1   0.295125 0.910576 0.103833 -0.171321
N7    N     N_1   0.295127 0.089424 0.103830 -0.171321
N8    N     N_1   0.704871 0.910576 0.896173 -0.171321
N9    N     N_1   0.204875 0.589424 0.896167 -0.171321
N10   N     N_1   0.795125 0.410576 0.103833 -0.171322
N11   N     N_1   0.795129 0.589425 0.103827 -0.171322
N12   N     N_1   0.223890 0.500000 0.647834 -0.176492
N13   N     N_1   0.204873 0.410577 0.896170 -0.171321
N14   N     N_1   0.623787 0.425509 0.698520 -0.175641
N15   N     N_1   0.376213 0.574490 0.301480 -0.175641
N16   N     N_1   0.376209 0.425513 0.301480 -0.175641
N17   N     N_1   0.623791 0.574486 0.698519 -0.175642
N18   N     N_1   0.123786 0.925509 0.698520 -0.175641
N19   N     N_1   0.876213 0.074490 0.301480 -0.175641
N20   N     N_1   0.876210 0.925513 0.301480 -0.175641
N21   N     N_1   0.123791 0.074486 0.698519 -0.175642
N22   N     N_1   0.276110 0.000000 0.352166 -0.176492
N23   N     N_1   0.723890 1.000000 0.647834 -0.176493
N24   N     N_3   0.146216 0.324318 0.398989 -0.417898
N25   N     N_3   0.853783 0.675682 0.601012 -0.417897
N26   N     N_3   0.853784 0.324317 0.601011 -0.417898
N27   N     N_3   0.146216 0.675683 0.398989 -0.417897
N28   N     N_3   0.646217 0.824318 0.398988 -0.417898
O1    O     O_R   0.746490 0.236330 0.638080 -0.636653
O2    O     O_R   0.325830 0.813840 0.483730 -0.626753
O3    O     O_R   0.325830 0.186160 0.483730 -0.626754
O4    O     O_R   0.674170 0.813840 0.516270 -0.626754
O5    O     O_R   0.174170 0.686160 0.516270 -0.626753
O6    O     O_R   0.825830 0.313840 0.483730 -0.626753
O7    O     O_R   0.825830 0.686160 0.483730 -0.626754
O8    O     O_R   0.174170 0.313840 0.516270 -0.626754
O9    O     O_R   0.739960 0.127620 0.525000 -0.620749
O10   O     O_R   0.260040 0.872380 0.475000 -0.620749
O11   O     O_R   0.260040 0.127620 0.475000 -0.620748
O12   O     O_R   0.253510 0.763670 0.361920 -0.636652
O13   O     O_R   0.739960 0.872380 0.525000 -0.620748
O14   O     O_R   0.239960 0.627620 0.525000 -0.620749
O15   O     O_R   0.760040 0.372380 0.475000 -0.620748
O16   O     O_R   0.760040 0.627620 0.475000 -0.620748
O17   O     O_R   0.239960 0.372380 0.525000 -0.620748
O18   O     O_R   0.680700 0.294870 0.629350 -0.625734
O19   O     O_R   0.319300 0.705130 0.370650 -0.625734
O20   O     O_R   0.319300 0.294870 0.370650 -0.625734
O21   O     O_R   0.680700 0.705130 0.629350 -0.625734
O22   O     O_R   0.180700 0.794870 0.629350 -0.625735
O23   O     O_R   0.253510 0.236330 0.361920 -0.636653
O24   O     O_R   0.819300 0.205130 0.370650 -0.625734
O25   O     O_R   0.819300 0.794870 0.370650 -0.625734
O26   O     O_R   0.180700 0.205130 0.629350 -0.625734
O27   O     O_R   0.062020 0.072840 0.007170 -0.631005
O28   O     O_R   0.937980 0.927160 0.992830 -0.631005
O29   O     O_R   0.937980 0.072840 0.992830 -0.631005
O30   O     O_R   0.062020 0.927160 0.007170 -0.631005
O31   O     O_R   0.562020 0.572840 0.007170 -0.631005
O32   O     O_R   0.437980 0.427160 0.992830 -0.631005
O33   O     O_R   0.437980 0.572840 0.992830 -0.631005
O34   O     O_R   0.746490 0.763670 0.638080 -0.636653
O35   O     O_R   0.562020 0.427160 0.007170 -0.631005
O36   O     O_R   0.947860 0.073950 0.109290 -0.617075
O37   O     O_R   0.052140 0.926050 0.890710 -0.617075
O38   O     O_R   0.052140 0.073950 0.890710 -0.617074
O39   O     O_R   0.947860 0.926050 0.109290 -0.617074
O40   O     O_R   0.447860 0.573950 0.109290 -0.617075
O41   O     O_R   0.552140 0.426050 0.890710 -0.617075
O42   O     O_R   0.552140 0.573950 0.890710 -0.617074
O43   O     O_R   0.447860 0.426050 0.109290 -0.617074
O44   O     O_R   0.246490 0.736330 0.638080 -0.636653
O45   O     O_R   0.753510 0.263670 0.361920 -0.636653
O46   O     O_R   0.753510 0.736330 0.361920 -0.636653
O47   O     O_R   0.246490 0.263670 0.638080 -0.636653
O48   O     O_R   0.674170 0.186160 0.516270 -0.626753
Zn1   Zn    Zn3+2 0.792340 0.208750 0.507670 0.968073
Zn2   Zn    Zn3+2 0.494040 0.500000 0.919480 0.970209
Zn3   Zn    Zn3+2 0.005960 0.000000 0.080520 0.970209
Zn4   Zn    Zn3+2 0.994040 0.000000 0.919480 0.970209
Zn5   Zn    Zn3+2 0.207660 0.791250 0.492330 0.968073
Zn6   Zn    Zn3+2 0.207660 0.208750 0.492330 0.968073
Zn7   Zn    Zn3+2 0.792340 0.791250 0.507670 0.968073
Zn8   Zn    Zn3+2 0.292340 0.708750 0.507670 0.968073
Zn9   Zn    Zn3+2 0.707660 0.291250 0.492330 0.968074
Zn10  Zn    Zn3+2 0.707660 0.708750 0.492330 0.968073
Zn11  Zn    Zn3+2 0.292340 0.291250 0.507670 0.968073
Zn12  Zn    Zn3+2 0.505960 0.500000 0.080520 0.970209

loop_
_geom_bond_atom_site_label_1
_geom_bond_atom_site_label_2
_ccdc_geom_bond_type
C72   N7    T    
O13   Zn7   S    
C124  H16   S    
O1    Zn1   S    
C50   C79   A    
C14   C33   A    
C118  H10   S    
C19   C46   A    
C16   C31   A    
C50   C59   A    
C90   N4    S    
C31   C42   A    
C155  O26   A    
C52   C61   A    
C122  O22   A    
C67   N22   T    
C159  H25   S    
C88   N3    S    
C56   C162  S    
C60   C163  S    
H37   N28   S    
C131  C140  A    
C13   C51   A    
C44   C53   A    
H27   N24   S    
C158  H24   S    
C122  C148  S    
C117  C126  A    
C119  C128  A    
C96   C108  A    
O14   Zn8   S    
C78   N14   T    
C133  O24   A    
C29   H1    S    
C58   C64   A    
C54   C169  S    
C55   C168  S    
C5    O39   A    
H42   N4    S    
C156  C173  A    
C9    C128  S    
C150  C159  A    
C100  O23   A    
C137  C146  A    
C11   C126  S    
C127  C136  A    
C95   C109  A    
C97   C112  A    
O7    Zn7   S    
O31   Zn12  S    
C10   O40   A    
O44   Zn8   S    
C120  C129  A    
C103  C112  A    
C142  C151  A    
O40   Zn12  S    
C152  C170  A    
C146  C154  A    
C36   C40   A    
C65   N1    T    
H32   N26   S    
C68   N27   S    
C75   C105  S    
C35   C45   A    
C15   C30   A    
C43   C166  A    
C16   C25   A    
C21   H47   S    
C94   C115  A    
C81   N16   T    
C152  H18   S    
C106  C115  A    
H39   N2    S    
C18   C38   A    
C14   C88   A    
C82   C138  S    
C120  H13   S    
O46   Zn10  S    
O23   Zn6   S    
C118  C171  A    
C165  O5    A    
O10   Zn5   S    
H31   N26   S    
C11   O35   A    
C2    C40   A    
C73   C103  S    
O4    Zn10  S    
C66   N12   T    
C8    C129  S    
O37   Zn4   S    
C25   H44   S    
C119  H11   S    
O12   Zn5   S    
O34   Zn7   S    
C93   C172  S    
C96   C175  S    
C27   C29   A    
C79   N28   S    
C156  H21   S    
C3    C98   S    
C121  C130  A    
C162  O2    A    
C89   C145  S    
C99   C108  A    
C83   N18   T    
C12   C90   A    
C168  O7    A    
C37   C40   A    
C38   C39   A    
C43   C52   A    
C124  C132  A    
C157  H22   S    
C7    C130  S    
C144  C150  S    
C20   C35   A    
C69   N23   T    
C5    C132  S    
C2    C44   A    
C22   C25   A    
C30   C41   A    
O2    Zn8   S    
C144  O25   A    
C59   C164  S    
H43   N4    S    
C149  C158  A    
O24   Zn1   S    
O15   Zn9   S    
C157  C174  A    
C135  C143  A    
C117  C170  A    
C141  C150  A    
C2    C45   A    
C24   C50   A    
C139  C148  A    
O42   Zn2   S    
C62   C66   S    
C34   C39   A    
C27   H23   S    
C85   C141  S    
C85   N20   T    
C93   C116  A    
C61   C65   S    
O3    Zn11  S    
O43   Zn12  S    
C87   N2    S    
C26   H34   S    
C64   C69   S    
C163  O3    A    
C19   C28   A    
C86   N21   T    
C151  C155  S    
C159  C176  A    
O36   Zn3   S    
C116  H3    S    
C122  O44   A    
C118  C127  A    
C9    O43   A    
C70   C99   S    
C4    C134  S    
C92   C113  A    
C109  H5    S    
C132  C141  A    
C11   O41   A    
C76   C106  S    
C123  C175  A    
C13   C41   A    
C124  C176  A    
C91   C114  A    
C165  O14   A    
C14   C22   A    
O20   Zn11  S    
C72   C102  S    
C55   C61   A    
C111  O34   A    
C148  C157  A    
C4    O38   A    
C107  C116  A    
C43   C57   A    
C94   C173  S    
C104  C113  A    
C158  C175  A    
C51   C60   A    
C114  H48   S    
C161  O48   A    
O5    Zn5   S    
C140  C149  A    
C125  C134  A    
C96   C105  A    
C98   C110  A    
C34   C37   A    
C24   C42   A    
C10   O33   A    
C49   C90   A    
O39   Zn3   S    
C83   C139  S    
C81   C137  S    
C22   H46   S    
C35   N24   S    
C80   N15   T    
C74   C104  S    
C28   H12   S    
C52   C167  S    
C160  H26   S    
C162  O10   A    
C101  C109  A    
C155  O47   A    
C75   N10   T    
O48   Zn9   S    
C23   H45   S    
C169  O8    A    
C48   C88   A    
O35   Zn12  S    
H36   N28   S    
C78   C135  S    
C115  H4    S    
C113  H2    S    
C71   C101  S    
C110  H8    S    
C77   N13   T    
C164  O4    A    
C5    O28   A    
C130  C139  A    
C1    O1    A    
C112  H7    S    
C161  O9    A    
O27   Zn3   S    
C47   C166  A    
C54   C62   A    
C98   C107  A    
C9    O32   A    
C6    O36   A    
C46   N25   S    
C111  C147  S    
C134  C142  A    
C18   C57   A    
C121  C174  A    
C153  H19   S    
C74   N9    T    
C147  C156  A    
O29   Zn4   S    
O45   Zn9   S    
O30   Zn3   S    
H41   N3    S    
C97   C106  A    
C53   C165  S    
C143  C152  A    
C126  C135  A    
C21   C23   A    
C133  O45   A    
C102  C110  A    
C6    O29   A    
O38   Zn4   S    
C123  H15   S    
O25   Zn7   S    
C86   C142  S    
C100  O20   A    
C8    O31   A    
C46   C47   A    
C17   C68   A    
C123  C131  A    
O11   Zn6   S    
C6    C131  S    
C93   C102  A    
C80   C136  S    
C16   C79   A    
C33   C41   A    
C39   C166  A    
C36   C38   A    
C117  H9    S    
C7    O37   A    
C84   N19   T    
C70   N5    T    
H29   N25   S    
C20   C36   A    
O18   Zn9   S    
C82   N17   T    
C15   C87   A    
C4    O27   A    
C32   C42   A    
C57   N26   S    
C58   C161  S    
O21   Zn10  S    
O22   Zn5   S    
C169  O17   A    
O32   Zn2   S    
C59   C64   A    
C8    O42   A    
C60   C63   A    
C17   C26   A    
C95   C174  S    
C92   C171  S    
H30   N25   S    
C129  C138  A    
C100  C146  S    
C31   C33   A    
C167  O6    A    
C125  H17   S    
C136  C145  A    
C119  C172  A    
O26   Zn6   S    
C154  H20   S    
C15   C23   A    
C97   C176  S    
C12   C32   A    
C167  O15   A    
C20   C29   A    
O6    Zn1   S    
C63   C67   S    
H40   N3    S    
O28   Zn4   S    
C105  C114  A    
C77   C107  S    
C133  C149  S    
C51   C87   A    
C121  H14   S    
C1    O18   A    
O9    Zn1   S    
C12   C21   A    
C49   C58   A    
O8    Zn6   S    
C128  C137  A    
C1    C143  S    
C53   C62   A    
C138  C147  A    
C153  C171  A    
C56   C63   A    
C154  C172  A    
C89   O12   A    
C17   C37   A    
O19   Zn8   S    
H28   N24   S    
C7    O30   A    
H33   N27   S    
C92   C101  A    
O47   Zn11  S    
C45   C54   A    
C3    C160  A    
C44   C68   A    
C10   C127  S    
C95   C104  A    
C47   C55   A    
C24   C49   A    
C48   C56   A    
C91   C170  S    
C89   O19   A    
C18   C27   A    
C168  O16   A    
C19   C34   A    
C94   C103  A    
C13   C48   A    
C3    C125  A    
C164  O13   A    
C26   C28   A    
C108  H6    S    
O33   Zn2   S    
C91   C99   A    
C151  C160  A    
C145  C153  A    
C30   C32   A    
C71   N6    T    
C76   N11   T    
C111  O21   A    
H38   N2    S    
C144  O46   A    
C120  C173  A    
C84   C140  S    
C163  O11   A    
H35   N27   S    
O41   Zn2   S    
C73   N8    T    
O16   Zn10  S    
O17   Zn11  S    
