data_mof_unit_58098.cif
_audit_creation_date              2013-03-05T15:39:56-0500
_audit_creation_method            fapswitch 2.2
_symmetry_space_group_name_H-M    P1
_symmetry_Int_Tables_number       1
_space_group_crystal_system       triclinic
_cell_length_a                    28.097693
_cell_length_b                    18.740761
_cell_length_c                    16.800688
_cell_angle_alpha                 89.996267
_cell_angle_beta                  62.750986
_cell_angle_gamma                 89.997036
_cell_volume                      7865.00376559

loop_
_atom_site_label
_atom_site_type_symbol
_atom_site_description
_atom_site_fract_x
_atom_site_fract_y
_atom_site_fract_z
_atom_type_partial_charge
O1    O     O_R   0.255040 0.869590 0.478480 -0.584876
O2    O     O_R   0.744960 0.130410 0.521520 -0.578359
O3    O     O_R   0.744960 0.869590 0.521520 -0.584455
O4    O     O_R   0.255040 0.130410 0.478480 -0.578198
O5    O     O_R   0.755040 0.369590 0.478480 -0.584084
O6    O     O_R   0.244960 0.630410 0.521520 -0.577903
O7    O     O_R   0.244960 0.369590 0.521520 -0.584549
O8    O     O_R   0.755040 0.630410 0.478480 -0.578019
O9    O     O_R   0.182050 0.796550 0.624440 -0.526920
O10   O     O_R   0.817950 0.203450 0.375560 -0.549707
O11   O     O_R   0.817950 0.796550 0.375560 -0.526715
O12   O     O_R   0.182050 0.203450 0.624440 -0.549590
O13   O     O_R   0.682050 0.296550 0.624440 -0.526491
O14   O     O_R   0.317950 0.703450 0.375560 -0.549444
O15   O     O_R   0.317950 0.296550 0.375560 -0.526682
O16   O     O_R   0.682050 0.703450 0.624440 -0.549569
Cu1   Cu    Cu3+1 0.209920 0.785290 0.495070 1.019632
Cu2   Cu    Cu3+1 0.790080 0.214710 0.504930 0.992169
Cu3   Cu    Cu3+1 0.790080 0.785290 0.504930 1.022337
Cu4   Cu    Cu3+1 0.209920 0.214710 0.495070 0.994087
Cu5   Cu    Cu3+1 0.709920 0.285290 0.495070 1.024224
Cu6   Cu    Cu3+1 0.290080 0.714710 0.504930 0.995987
Cu7   Cu    Cu3+1 0.290080 0.285290 0.504930 1.021771
Cu8   Cu    Cu3+1 0.709920 0.714710 0.495070 0.994044
C1    C     C_R   0.295608 0.729892 0.329073 0.809831
C2    C     C_R   0.706639 0.274839 0.669435 0.848601
C3    C     C_R   0.704363 0.729910 0.670921 0.809403
C4    C     C_R   0.293366 0.274870 0.330583 0.848225
C5    C     C_R   0.795659 0.229929 0.329095 0.809076
C6    C     C_R   0.206611 0.774851 0.669404 0.847770
C7    C     C_R   0.204375 0.229902 0.670926 0.809533
C8    C     C_R   0.793364 0.774858 0.330573 0.848288
O17   O     O_R   0.250530 0.763330 0.367210 -0.579893
O18   O     O_R   0.749470 0.236670 0.632790 -0.579990
O19   O     O_R   0.749470 0.763330 0.632790 -0.578122
O20   O     O_R   0.250530 0.236670 0.367210 -0.578934
O21   O     O_R   0.750530 0.263330 0.367210 -0.577337
O22   O     O_R   0.249470 0.736670 0.632790 -0.578270
O23   O     O_R   0.249470 0.263330 0.632790 -0.578814
O24   O     O_R   0.750530 0.736670 0.367210 -0.579230
O25   O     O_R   0.177260 0.690030 0.513710 -0.597780
O26   O     O_R   0.822740 0.309970 0.486290 -0.604258
O27   O     O_R   0.822740 0.690030 0.486290 -0.597314
O28   O     O_R   0.177260 0.309970 0.513710 -0.603783
O29   O     O_R   0.677260 0.190030 0.513710 -0.596923
O30   O     O_R   0.322740 0.809970 0.486290 -0.603469
O31   O     O_R   0.322740 0.190030 0.486290 -0.597407
O32   O     O_R   0.677260 0.809970 0.513710 -0.603977
C9    C     C_R   0.199864 0.630954 0.516084 0.810412
C10   C     C_R   0.802994 0.368252 0.473617 0.773012
C11   C     C_R   0.800172 0.630956 0.483817 0.810481
C12   C     C_R   0.197015 0.368252 0.526353 0.773059
C13   C     C_R   0.699833 0.130954 0.516171 0.810405
C14   C     C_R   0.302986 0.868253 0.473645 0.773142
C15   C     C_R   0.300146 0.130955 0.483889 0.810559
C16   C     C_R   0.697006 0.868249 0.526387 0.772979
C17   C     C_R   0.048092 0.497737 0.507052 0.033653
C18   C     C_R   0.952262 0.497757 0.491872 0.033558
C19   C     C_R   0.547810 0.997744 0.507924 0.033372
C20   C     C_R   0.451986 0.997731 0.492724 0.033484
C21   C     C_R   0.026069 0.562171 0.496119 0.032353
C22   C     C_R   0.978335 0.432835 0.489260 0.048613
C23   C     C_R   0.974398 0.562197 0.502506 0.033148
C24   C     C_R   0.021964 0.432834 0.509787 0.048719
C25   C     C_R   0.525702 0.062181 0.497205 0.033179
C26   C     C_R   0.478097 0.932823 0.490040 0.048433
C27   C     C_R   0.474035 0.062167 0.503577 0.032498
C28   C     C_R   0.521725 0.932826 0.510574 0.048311
C29   C     C_R   0.115364 0.434708 0.535245 0.066060
C30   C     C_R   0.874586 0.562678 0.498749 0.040355
C31   C     C_R   0.884769 0.434696 0.464282 0.066019
C32   C     C_R   0.125681 0.562642 0.500536 0.040507
C33   C     C_R   0.615252 0.934696 0.535660 0.065834
C34   C     C_R   0.374384 0.062645 0.499291 0.040239
C35   C     C_R   0.384664 0.934697 0.464672 0.065942
C36   C     C_R   0.625462 0.062666 0.501131 0.040063
C37   C     C_R   0.166443 0.434746 0.534550 -0.115389
C38   C     C_R   0.828131 0.563938 0.484548 -0.115948
C39   C     C_R   0.833606 0.434740 0.465277 -0.115285
C40   C     C_R   0.171983 0.563924 0.515155 -0.115699
C41   C     C_R   0.666399 0.934738 0.534718 -0.115278
C42   C     C_R   0.328046 0.063925 0.484773 -0.115759
C43   C     C_R   0.333567 0.934742 0.465424 -0.115369
C44   C     C_R   0.671887 0.063932 0.515416 -0.116073
C45   C     C_R   0.192136 0.499682 0.529404 -0.267753
C46   C     C_R   0.807897 0.499684 0.470521 -0.267356
C47   C     C_R   0.692105 0.999680 0.529491 -0.267279
C48   C     C_R   0.307870 0.999682 0.470589 -0.267579
H1    H     H_    0.229409 0.499965 0.533830 0.196088
H2    H     H_    0.770544 0.499966 0.466357 0.196139
H3    H     H_    0.729444 0.999959 0.533701 0.196032
H4    H     H_    0.270576 0.999967 0.466233 0.196000
C49   C     C_R   0.096358 0.498419 0.514871 0.073308
C50   C     C_R   0.903898 0.498437 0.484349 0.073322
C51   C     C_R   0.596149 0.998428 0.515520 0.073441
C52   C     C_R   0.403699 0.998414 0.484963 0.073396
C53   C     C_R   0.582374 0.873348 0.555160 -0.174196
C54   C     C_R   0.392401 0.122491 0.529463 -0.109594
C55   C     C_R   0.417556 0.873363 0.445212 -0.173892
C56   C     C_R   0.607355 0.122527 0.471122 -0.113668
C57   C     C_R   0.082462 0.373386 0.554732 -0.174170
C58   C     C_R   0.892729 0.622549 0.528679 -0.111240
C59   C     C_R   0.917643 0.373341 0.444794 -0.174499
C60   C     C_R   0.107708 0.622478 0.470266 -0.107426
C61   C     C_R   0.538570 0.871165 0.537497 -0.212274
C62   C     C_R   0.442702 0.123783 0.525502 -0.172569
C63   C     C_R   0.461310 0.871176 0.463006 -0.211987
C64   C     C_R   0.557004 0.123818 0.475290 -0.173651
C65   C     C_R   0.038724 0.371196 0.536898 -0.212418
C66   C     C_R   0.943105 0.623843 0.524412 -0.173390
C67   C     C_R   0.961465 0.371164 0.462409 -0.212692
C68   C     C_R   0.057422 0.623774 0.474155 -0.171996
H5    H     H_    0.588702 0.826505 0.586260 0.172847
H6    H     H_    0.368251 0.168669 0.560023 0.217035
H7    H     H_    0.411290 0.826541 0.414016 0.172802
H8    H     H_    0.631464 0.168719 0.440514 0.217330
H9    H     H_    0.088706 0.326579 0.585988 0.172734
H10   H     H_    0.868631 0.668743 0.559324 0.217110
H11   H     H_    0.911297 0.326486 0.413741 0.172802
H12   H     H_    0.131887 0.668638 0.439693 0.216532
H13   H     H_    0.516180 0.821877 0.550360 0.148842
H14   H     H_    0.455252 0.172118 0.545881 0.171541
H15   H     H_    0.483720 0.821902 0.450128 0.148571
H16   H     H_    0.544401 0.172166 0.455017 0.170909
H17   H     H_    0.016301 0.321933 0.549812 0.148225
H18   H     H_    0.955731 0.672194 0.544632 0.170824
H19   H     H_    0.983846 0.321869 0.449571 0.148443
H20   H     H_    0.044892 0.672101 0.453716 0.171675
H21   H     H_    0.142694 0.773785 0.097918 0.187249
H22   H     H_    0.802841 0.127074 0.952564 0.185860
H23   H     H_    0.853462 0.784038 0.905077 0.187932
H24   H     H_    0.191631 0.135443 0.054222 0.185928
H25   H     H_    0.649027 0.289782 0.092439 0.188436
H26   H     H_    0.311960 0.641612 0.942094 0.186105
H27   H     H_    0.354934 0.280345 0.903793 0.187778
H28   H     H_    0.693797 0.631991 0.051727 0.186049
C69   C     C_R   0.199370 0.727867 0.970764 -0.031029
C70   C     C_R   0.756921 0.193539 0.069131 -0.031406
C71   C     C_R   0.801108 0.729085 0.028374 -0.034108
C72   C     C_R   0.242398 0.193074 0.931945 -0.033150
C73   C     C_R   0.698857 0.229979 0.971875 -0.036016
C74   C     C_R   0.258188 0.693230 0.067303 -0.034726
C75   C     C_R   0.300987 0.228604 0.028636 -0.032863
C76   C     C_R   0.742714 0.693109 0.931490 -0.032390
C77   C     C_R   0.243071 0.679306 0.934991 0.331357
C78   C     C_R   0.706996 0.229968 0.111575 0.350131
C79   C     C_R   0.759984 0.676711 0.061598 0.332585
C80   C     C_R   0.293928 0.225192 0.887823 0.351335
C81   C     C_R   0.738516 0.175634 0.940312 0.334014
C82   C     C_R   0.205671 0.722338 0.112265 0.352601
C83   C     C_R   0.258918 0.177574 0.062846 0.332374
C84   C     C_R   0.793638 0.726933 0.887962 0.350885
C85   C     C_R   0.275015 0.670147 0.978448 -0.276947
C86   C     C_R   0.682521 0.254175 0.060098 -0.265593
C87   C     C_R   0.728295 0.665566 0.017876 -0.276589
C88   C     C_R   0.319297 0.248794 0.938337 -0.264760
C89   C     C_R   0.769927 0.163489 0.984414 -0.276434
C90   C     C_R   0.179748 0.745287 0.062242 -0.264389
C91   C     C_R   0.227086 0.167153 0.019300 -0.276942
C92   C     C_R   0.818660 0.750835 0.938829 -0.265238
C93   C     C_R   0.131682 0.809033 0.950244 -0.252879
C94   C     C_R   0.841950 0.145020 0.071892 -0.272154
C95   C     C_R   0.868935 0.808612 0.049720 -0.253375
C96   C     C_R   0.158444 0.143683 0.927211 -0.272293
C97   C     C_R   0.630886 0.308522 0.950243 -0.253514
C98   C     C_R   0.341465 0.643294 0.073102 -0.272565
C99   C     C_R   0.368757 0.308722 0.049724 -0.252727
C100  C     C_R   0.658336 0.644074 0.927487 -0.272284
H29   H     H_    0.108073 0.814909 0.021513 0.169920
H30   H     H_    0.851391 0.113512 0.013108 0.171155
H31   H     H_    0.893330 0.813237 0.978435 0.170061
H32   H     H_    0.149889 0.110330 0.984262 0.171278
H33   H     H_    0.606249 0.312643 0.021557 0.170604
H34   H     H_    0.349561 0.609218 0.016773 0.172019
H35   H     H_    0.392927 0.313740 0.978448 0.169971
H36   H     H_    0.649456 0.611329 0.985126 0.171206
C101  C     C_R   0.116932 0.850619 0.895016 -0.159804
C102  C     C_R   0.877967 0.141509 0.108891 -0.164450
C103  C     C_R   0.883242 0.850548 0.105047 -0.159591
C104  C     C_R   0.122160 0.141127 0.890839 -0.163977
C105  C     C_R   0.616712 0.350549 0.894902 -0.159243
C106  C     C_R   0.377826 0.641044 0.109249 -0.163786
C107  C     C_R   0.383186 0.350571 0.105025 -0.159340
C108  C     C_R   0.622129 0.641235 0.890922 -0.164091
C109  C     C_R   0.145402 0.844414 0.801964 0.404121
C110  C     C_R   0.866179 0.177102 0.188934 0.382629
C111  C     C_R   0.854457 0.844597 0.198098 0.403316
C112  C     C_R   0.133772 0.177378 0.811268 0.382022
C113  C     C_R   0.645618 0.344682 0.801850 0.403079
C114  C     C_R   0.366272 0.677554 0.188639 0.381652
C115  C     C_R   0.354487 0.344563 0.198078 0.403616
C116  C     C_R   0.633792 0.677281 0.811205 0.382253
C117  C     C_R   0.184360 0.791713 0.765038 -0.197068
C118  C     C_R   0.817430 0.212935 0.233274 -0.194153
C119  C     C_R   0.815519 0.791793 0.234924 -0.196155
C120  C     C_R   0.182673 0.212938 0.766795 -0.193162
C121  C     C_R   0.684527 0.291792 0.765071 -0.195644
C122  C     C_R   0.317282 0.712975 0.233197 -0.192324
C123  C     C_R   0.315548 0.291790 0.234937 -0.196455
C124  C     C_R   0.682642 0.712924 0.766774 -0.193525
C125  C     C_R   0.203428 0.757451 0.818997 -0.198294
C126  C     C_R   0.786142 0.225049 0.189027 -0.186422
C127  C     C_R   0.796553 0.757536 0.180690 -0.196131
C128  C     C_R   0.214085 0.224658 0.811043 -0.185093
C129  C     C_R   0.703447 0.257493 0.819407 -0.194960
C130  C     C_R   0.285797 0.724530 0.188981 -0.183894
C131  C     C_R   0.296552 0.257535 0.180789 -0.196580
C132  C     C_R   0.714019 0.724753 0.811015 -0.185140
H37   H     H_    0.240142 0.728209 0.785001 0.209296
H38   H     H_    0.754222 0.263176 0.218468 0.211598
H39   H     H_    0.759949 0.727742 0.214001 0.206410
H40   H     H_    0.246547 0.262143 0.781566 0.208859
H41   H     H_    0.739921 0.227277 0.786459 0.205086
H42   H     H_    0.252942 0.761508 0.218577 0.207245
H43   H     H_    0.259889 0.227972 0.214342 0.207348
H44   H     H_    0.746268 0.762498 0.781569 0.209969
C133  C     C_R   0.176947 0.763390 0.913326 0.136790
C134  C     C_R   0.795037 0.187250 0.110756 0.130115
C135  C     C_R   0.823309 0.763762 0.086391 0.140018
C136  C     C_R   0.204884 0.186707 0.889374 0.133545
C137  C     C_R   0.676666 0.264033 0.913641 0.141603
C138  C     C_R   0.295274 0.686706 0.110482 0.135394
C139  C     C_R   0.323246 0.263614 0.086468 0.138964
C140  C     C_R   0.704955 0.686804 0.889289 0.132197
O33   O     O_R   0.051640 0.926880 0.885090 -0.531448
O34   O     O_R   0.948360 0.073120 0.114910 -0.539153
O35   O     O_R   0.948360 0.926880 0.114910 -0.531536
O36   O     O_R   0.051640 0.073120 0.885090 -0.539458
O37   O     O_R   0.551640 0.426880 0.885090 -0.531684
O38   O     O_R   0.448360 0.573120 0.114910 -0.539501
O39   O     O_R   0.448360 0.426880 0.114910 -0.531581
O40   O     O_R   0.551640 0.573120 0.885090 -0.539258
Cu9   Cu    Cu3+1 0.495240 0.500000 0.924150 1.005883
Cu10  Cu    Cu3+1 0.504760 0.500000 0.075850 1.005792
Cu11  Cu    Cu3+1 0.995240 0.000000 0.924150 1.004516
Cu12  Cu    Cu3+1 0.004760 0.000000 0.075850 1.004409
C141  C     C_R   0.926755 0.902846 0.066499 0.814699
C142  C     C_R   0.074863 0.094833 0.932049 0.811260
C143  C     C_R   0.073318 0.902890 0.933496 0.813882
C144  C     C_R   0.925192 0.094973 0.067851 0.810845
C145  C     C_R   0.426732 0.402860 0.066501 0.813844
C146  C     C_R   0.574847 0.594875 0.932080 0.811116
C147  C     C_R   0.573228 0.402843 0.933493 0.814379
C148  C     C_R   0.425126 0.594798 0.067982 0.811562
O41   O     O_R   0.940620 0.926560 0.986760 -0.597947
O42   O     O_R   0.059380 0.073440 0.013240 -0.602422
O43   O     O_R   0.059380 0.926560 0.013240 -0.598149
O44   O     O_R   0.940620 0.073440 0.986760 -0.602399
O45   O     O_R   0.440620 0.426560 0.986760 -0.597998
O46   O     O_R   0.559380 0.573440 0.013240 -0.602208
O47   O     O_R   0.559380 0.426560 0.013240 -0.597949
O48   O     O_R   0.440620 0.573440 0.986760 -0.602097
N1    N     N_R   0.251884 0.632396 0.861807 0.106814
O49   O     O_R   0.211218 0.603721 0.856541 -0.341563
O50   O     O_R   0.299958 0.610726 0.807412 -0.362211
N2    N     N_R   0.676902 0.234703 0.207281 0.100811
O51   O     O_R   0.673489 0.179320 0.256367 -0.386298
O52   O     O_R   0.646409 0.289628 0.244498 -0.363492
N3    N     N_R   0.753176 0.629296 0.133343 0.107462
O53   O     O_R   0.794964 0.604115 0.138151 -0.341280
O54   O     O_R   0.706137 0.603796 0.186730 -0.360364
N4    N     N_R   0.323901 0.227044 0.791916 0.100986
O55   O     O_R   0.324485 0.171308 0.745263 -0.386073
O56   O     O_R   0.356857 0.279245 0.752204 -0.367232
N5    N     N_R   0.744287 0.127842 0.869486 0.107563
O57   O     O_R   0.701991 0.104399 0.864937 -0.341546
O58   O     O_R   0.790724 0.100327 0.816815 -0.360790
N6    N     N_R   0.175739 0.722317 0.208218 0.101140
O59   O     O_R   0.176934 0.666483 0.253345 -0.385857
O60   O     O_R   0.141192 0.772603 0.249369 -0.369851
N7    N     N_R   0.251419 0.130342 0.135117 0.107086
O61   O     O_R   0.292841 0.103978 0.140087 -0.341685
O62   O     O_R   0.204009 0.106134 0.188861 -0.362548
N8    N     N_R   0.823652 0.729899 0.792112 0.100916
O63   O     O_R   0.825303 0.674282 0.744518 -0.386136
O64   O     O_R   0.855666 0.783177 0.753331 -0.366139
O65   O     O_3   0.136232 0.891401 0.746679 -0.544325
C149  C     C_3   0.172182 0.949358 0.726623 0.062090
H45   H     H_    0.214502 0.930906 0.689953 0.125157
H46   H     H_    0.166265 0.977702 0.788828 0.126712
C150  C     C_3   0.162243 0.002348 0.667308 -0.657544
H47   H     H_    0.120507 0.022577 0.702277 0.270058
H48   H     H_    0.190255 0.048085 0.651578 0.198195
H49   H     H_    0.168809 0.976180 0.603781 0.238654
O66   O     O_3   0.900710 0.172666 0.226760 -0.553728
C151  C     C_3   0.932878 0.234589 0.203533 0.092582
H50   H     H_    0.908072 0.282888 0.234120 0.126975
H51   H     H_    0.954933 0.241395 0.129426 0.123319
C152  C     C_3   0.973831 0.227754 0.238710 -0.747496
H52   H     H_    0.000505 0.181471 0.206728 0.255133
H53   H     H_    0.998456 0.277000 0.223136 0.196670
H54   H     H_    0.953188 0.219822 0.312389 0.240101
O67   O     O_3   0.863497 0.891669 0.253427 -0.544170
C153  C     C_3   0.827494 0.949541 0.273323 0.060665
H55   H     H_    0.785189 0.931013 0.309889 0.124715
H56   H     H_    0.833466 0.977825 0.211047 0.126650
C154  C     C_3   0.837291 0.002625 0.332693 -0.656998
H57   H     H_    0.879016 0.022902 0.297839 0.270650
H58   H     H_    0.809253 0.048320 0.348273 0.197714
H59   H     H_    0.830659 0.976521 0.396291 0.238639
O68   O     O_3   0.099067 0.173461 0.773746 -0.553514
C155  C     C_3   0.067261 0.235717 0.797051 0.091652
H60   H     H_    0.092303 0.283749 0.766031 0.127010
H61   H     H_    0.045515 0.242743 0.871152 0.123327
C156  C     C_3   0.025951 0.229333 0.762583 -0.748123
H62   H     H_    0.999043 0.183353 0.795045 0.254924
H63   H     H_    0.001621 0.278853 0.778171 0.196821
H64   H     H_    0.046265 0.221158 0.688943 0.240226
O69   O     O_3   0.636653 0.391821 0.746499 -0.544165
C157  C     C_3   0.672695 0.449632 0.726694 0.060333
H65   H     H_    0.714986 0.431048 0.690099 0.125068
H66   H     H_    0.666745 0.477823 0.789012 0.126791
C158  C     C_3   0.662936 0.502849 0.667407 -0.656629
H67   H     H_    0.621232 0.523201 0.702306 0.270574
H68   H     H_    0.691022 0.548481 0.651868 0.197593
H69   H     H_    0.669527 0.476835 0.603784 0.238862
O70   O     O_3   0.401043 0.673833 0.226041 -0.553522
C159  C     C_3   0.432697 0.736223 0.202717 0.090822
H70   H     H_    0.407557 0.784136 0.233951 0.127285
H71   H     H_    0.454302 0.743370 0.128623 0.123515
C160  C     C_3   0.474168 0.729991 0.236855 -0.747129
H72   H     H_    0.501173 0.684144 0.204157 0.255078
H73   H     H_    0.498373 0.779623 0.221278 0.196902
H74   H     H_    0.454006 0.721680 0.310472 0.240384
O71   O     O_3   0.363533 0.391651 0.253388 -0.544356
C161  C     C_3   0.327525 0.449521 0.273277 0.061525
H75   H     H_    0.285224 0.430993 0.309926 0.125498
H76   H     H_    0.333451 0.477756 0.210995 0.127028
C162  C     C_3   0.337363 0.502672 0.332537 -0.656941
H77   H     H_    0.379075 0.522987 0.297580 0.270128
H78   H     H_    0.309298 0.548337 0.348149 0.198022
H79   H     H_    0.330800 0.476614 0.396126 0.238833
O72   O     O_3   0.599131 0.673227 0.773606 -0.553665
C163  C     C_3   0.567204 0.735374 0.796939 0.091344
H80   H     H_    0.592162 0.783489 0.766011 0.127314
H81   H     H_    0.545404 0.742339 0.871045 0.123472
C164  C     C_3   0.525952 0.728837 0.762364 -0.746328
H82   H     H_    0.499130 0.682760 0.794722 0.255293
H83   H     H_    0.501523 0.778268 0.777988 0.196817
H84   H     H_    0.546323 0.720733 0.688712 0.240281

loop_
_geom_bond_atom_site_label_1
_geom_bond_atom_site_label_2
_geom_bond_distance
_ccdc_geom_bond_type
C47   H3    1.083346 S    
C122  C130  1.408227 A    
Cu2   Cu5   2.681655 S    
C162  H78   1.110677 S    
C81   N5    1.437994 S    
C10   C39   1.483848 S    
Cu10  O46   1.969208 S    
C164  H82   1.110867 S    
C97   C137  1.415470 A    
C16   C41   1.483747 S    
O72   C163  1.411680 S    
C150  H49   1.110573 S    
C69   C90   1.413048 A    
O39   C145  1.298483 A    
C126  H38   1.073918 S    
C29   C49   1.412523 A    
C72   C91   1.413061 A    
C73   C86   1.410791 A    
C54   H6    1.074226 S    
C119  C127  1.403979 A    
N7    O61   1.301784 A    
Cu6   O22   1.959945 S    
C117  C125  1.402056 A    
C6    O22   1.289276 A    
N8    O63   1.301562 A    
C21   C23   1.405960 A    
C2    C121  1.467830 S    
C22   C24   1.417343 A    
C72   C136  1.525524 S    
O3    Cu3   1.963953 S    
C161  H75   1.114562 S    
C120  C128  1.407387 A    
C79   C87   1.405338 A    
C116  O72   1.384430 S    
C25   C64   1.395342 A    
C151  C152  1.520658 S    
C53   C61   1.392484 A    
C130  H42   1.076723 S    
C75   C83   1.421292 A    
C43   C48   1.397336 A    
C124  C132  1.406752 A    
C36   C44   1.430508 A    
C128  H40   1.075684 S    
C64   H16   1.082932 S    
C33   C41   1.429943 A    
C14   C43   1.483719 S    
C157  H66   1.114911 S    
C98   H34   1.076146 S    
C93   C133  1.418298 A    
C4    C123  1.467656 S    
Cu12  O42   1.969208 S    
C145  O45   1.290568 A    
C46   H2    1.083343 S    
C3    O19   1.290549 A    
O68   C155  1.411647 S    
C115  O71   1.386825 S    
O36   C142  1.298186 A    
C78   C86   1.403994 A    
O12   Cu4   1.955313 S    
C161  C162  1.520531 S    
C141  O41   1.290745 A    
N6    O60   1.301466 A    
O33   C143  1.299243 A    
C33   C51   1.412567 A    
C93   C101  1.411404 A    
C12   C37   1.483663 S    
C164  H84   1.110539 S    
C113  C121  1.393155 A    
C159  C160  1.520658 S    
N3    O54   1.301604 A    
O2    C13   1.311586 A    
C109  O65   1.386901 S    
C17   C21   1.406682 A    
C29   C57   1.416127 A    
C36   C56   1.416442 A    
C54   C62   1.384346 A    
C9    C40   1.484332 S    
C11   C38   1.484412 S    
Cu3   O19   1.959911 S    
C151  H51   1.115309 S    
C112  O68   1.384395 S    
C163  C164  1.520664 S    
O10   Cu2   1.955335 S    
O38   Cu10  1.966554 S    
O39   Cu10  1.966610 S    
C116  C124  1.396127 A    
O38   C148  1.297723 A    
C102  C110  1.398314 A    
O5    Cu5   1.964031 S    
C160  H72   1.110870 S    
C69   C133  1.525769 S    
C108  C146  1.468595 S    
C106  C114  1.398639 A    
C80   N4    1.436704 S    
Cu9   O48   1.969191 S    
C73   C137  1.520450 S    
C95   C135  1.416436 A    
C131  C139  1.413610 A    
C29   C37   1.429906 A    
C98   C106  1.408013 A    
O32   C16   1.286226 A    
C26   C63   1.399950 A    
C35   C43   1.429973 A    
C31   C39   1.430005 A    
C158  H67   1.110471 S    
C34   C54   1.416413 A    
H22   C89   1.074331 S    
C59   C67   1.392492 A    
O7    C12   1.312204 A    
Cu2   O26   1.965761 S    
N1    O49   1.301840 A    
C158  H68   1.110670 S    
H26   C85   1.075172 S    
O34   Cu12  1.966554 S    
C159  H71   1.115376 S    
C22   C67   1.399973 A    
C20   C27   1.406707 A    
C156  H63   1.110500 S    
N2    O52   1.301543 A    
Cu9   Cu10  2.681703 S    
C113  O69   1.386730 S    
C101  C143  1.467590 S    
C93   H29   1.076351 S    
O28   C12   1.286195 A    
O16   C3    1.302761 A    
O29   C13   1.285942 A    
O65   C149  1.414927 S    
C154  H58   1.110670 S    
C127  H39   1.075029 S    
C125  H37   1.072928 S    
H21   C90   1.075644 S    
Cu4   O28   1.965712 S    
Cu5   O29   1.965761 S    
C155  H61   1.115349 S    
C56   C64   1.384311 A    
H24   C91   1.074523 S    
C147  O47   1.291013 A    
H25   C86   1.076083 S    
Cu8   O32   1.965712 S    
C34   C52   1.415551 A    
C60   C68   1.384438 A    
H28   C87   1.074313 S    
C163  H80   1.114079 S    
H27   C88   1.075621 S    
C83   C91   1.404490 A    
O67   C153  1.414794 S    
Cu4   Cu7   2.681781 S    
C104  C142  1.468218 S    
C160  H74   1.110528 S    
C62   H14   1.082931 S    
C35   C55   1.416143 A    
C152  H52   1.110858 S    
N5    O58   1.301575 A    
O9    C6    1.299850 A    
C66   H18   1.082935 S    
O26   C10   1.286177 A    
O11   C8    1.300747 A    
O12   C7    1.303028 A    
C95   C103  1.409106 A    
O14   Cu6   1.955335 S    
O13   C2    1.300973 A    
C96   H32   1.075251 S    
C28   C61   1.399965 A    
C82   N6    1.436860 S    
Cu11  O44   1.969191 S    
C99   H35   1.076707 S    
C65   H17   1.082238 S    
C100  H36   1.074839 S    
C31   C59   1.416146 A    
C110  C118  1.395596 A    
Cu11  O41   1.969208 S    
C111  O67   1.386781 S    
Cu10  O47   1.969194 S    
N4    O55   1.301542 A    
C150  H48   1.110681 S    
O1    Cu1   1.964031 S    
C126  C134  1.411615 A    
Cu7   O31   1.965712 S    
C76   C84   1.423286 A    
C19   C25   1.406737 A    
C24   C65   1.399946 A    
O7    Cu7   1.963953 S    
C130  C138  1.411107 A    
C42   C48   1.396960 A    
O8    Cu8   1.963955 S    
N8    O64   1.301517 A    
O37   Cu9   1.966557 S    
C94   C102  1.410983 A    
C129  H41   1.076037 S    
C71   C135  1.522662 S    
C149  H45   1.114552 S    
C161  H76   1.114901 S    
C107  C145  1.466658 S    
C21   C68   1.395499 A    
O6    C9    1.311476 A    
C105  C147  1.465679 S    
C1    O17   1.290081 A    
C18   C22   1.410466 A    
C94   C134  1.414928 A    
C121  C129  1.404785 A    
C56   H8    1.074110 S    
C63   H15   1.082234 S    
C98   C138  1.412198 A    
C102  C144  1.469307 S    
Cu9   O45   1.969208 S    
O35   Cu12  1.966610 S    
O11   Cu3   1.955313 S    
C128  C136  1.411705 A    
O40   C146  1.298522 A    
C69   C77   1.421754 A    
C30   C50   1.415550 A    
C55   H7    1.077149 S    
C153  H55   1.114571 S    
C103  C111  1.397396 A    
C57   C65   1.392441 A    
O6    Cu6   1.964029 S    
C152  H54   1.110552 S    
C101  C109  1.397246 A    
C143  O43   1.290230 A    
C154  H57   1.110473 S    
O25   C9    1.286004 A    
O36   Cu11  1.966610 S    
C1    C122  1.472329 S    
C104  C112  1.398440 A    
C105  C113  1.397513 A    
C25   C27   1.405922 A    
C149  C150  1.520525 S    
Cu11  Cu12  2.681703 S    
C108  C116  1.398361 A    
C95   H31   1.077009 S    
C96   C104  1.409084 A    
C111  C119  1.392566 A    
C20   C26   1.410543 A    
C77   N1    1.437800 S    
Cu1   O17   1.959943 S    
C34   C42   1.430412 A    
C8    C119  1.467820 S    
C6    C117  1.467125 S    
C164  H83   1.110501 S    
Cu3   O27   1.965712 S    
C35   C52   1.412551 A    
C114  O70   1.384345 S    
O34   C144  1.299148 A    
C146  O46   1.291041 A    
C153  C154  1.520521 S    
C45   H1    1.083356 S    
C32   C60   1.416405 A    
C40   C45   1.396946 A    
C94   H30   1.074509 S    
O30   C14   1.286134 A    
C131  H43   1.074325 S    
C99   C139  1.417087 A    
C41   C47   1.397367 A    
C32   C49   1.415566 A    
C20   C52   1.421220 A    
Cu6   O30   1.965761 S    
C71   C92   1.411799 A    
C13   C44   1.484452 S    
O4    C15   1.311520 A    
O5    C10   1.312228 A    
C58   C66   1.384316 A    
C132  C140  1.411812 A    
C114  C122  1.397203 A    
C157  H65   1.114569 S    
C82   C90   1.407924 A    
C110  O66   1.384477 S    
C106  C148  1.467765 S    
C30   C58   1.416516 A    
C27   C62   1.395410 A    
C55   C63   1.392464 A    
Cu1   Cu6   2.681655 S    
C57   H9    1.077172 S    
C74   C82   1.422978 A    
Cu3   Cu8   2.681781 S    
C103  C141  1.466224 S    
O10   C5    1.302141 A    
O27   C11   1.285950 A    
O15   C4    1.300491 A    
C7    C120  1.472318 S    
C76   C87   1.413666 A    
O40   Cu9   1.966610 S    
O14   C1    1.303266 A    
O71   C161  1.414855 S    
C68   H20   1.082930 S    
Cu4   O20   1.959909 S    
Cu5   O21   1.959943 S    
N6    O59   1.301563 A    
C4    O20   1.289030 A    
C32   C40   1.430393 A    
C156  H62   1.110866 S    
C5    O21   1.290809 A    
C144  O44   1.290781 A    
C80   C88   1.406434 A    
C81   C89   1.406601 A    
C39   C46   1.397346 A    
C60   H12   1.074343 S    
C157  C158  1.520522 S    
C26   C28   1.417363 A    
C84   C92   1.405554 A    
C30   C38   1.430530 A    
C162  H77   1.110477 S    
C44   C47   1.396967 A    
C83   N7    1.437982 S    
C72   C80   1.423145 A    
C73   C81   1.420913 A    
C31   C50   1.412638 A    
O69   C157  1.414755 S    
C33   C53   1.416142 A    
C155  C156  1.520654 S    
C71   C79   1.421110 A    
O66   C151  1.411732 S    
C115  C123  1.392220 A    
C36   C51   1.415572 A    
C75   C139  1.523878 S    
C151  H50   1.114101 S    
O37   C147  1.297600 A    
C163  H81   1.115345 S    
C97   H33   1.077584 S    
C5    C118  1.471577 S    
O35   C141  1.298109 A    
Cu8   O24   1.959909 S    
C2    O18   1.288610 A    
C99   C107  1.409889 A    
C48   H4    1.083358 S    
C160  H73   1.110501 S    
N5    O57   1.301724 A    
C58   H10   1.074146 S    
C77   C85   1.402899 A    
C38   C46   1.396987 A    
O15   Cu7   1.955313 S    
O16   Cu8   1.955313 S    
C17   C49   1.421186 A    
C79   N3    1.438001 S    
Cu12  O43   1.969194 S    
C142  O42   1.291197 A    
H23   C92   1.075735 S    
C19   C51   1.421251 A    
C100  C140  1.413923 A    
O13   Cu5   1.955335 S    
O33   Cu11  1.966557 S    
N1    O50   1.301642 A    
C158  H69   1.110562 S    
N4    O56   1.301505 A    
C154  H59   1.110564 S    
C100  C108  1.409776 A    
C150  H47   1.110481 S    
O1    C14   1.312210 A    
C159  H70   1.114064 S    
C19   C28   1.410509 A    
O3    C16   1.312212 A    
C156  H64   1.110537 S    
N2    O51   1.301566 A    
C123  C131  1.403336 A    
C61   H13   1.082240 S    
C15   C42   1.484342 S    
Cu2   O18   1.959945 S    
O8    C11   1.311628 A    
C70   C134  1.528315 S    
O9    Cu1   1.955335 S    
C67   H19   1.082238 S    
C162  H79   1.110570 S    
C149  H46   1.114876 S    
C53   H5    1.077165 S    
N3    O53   1.301767 A    
C17   C24   1.410582 A    
O31   C15   1.286029 A    
C18   C23   1.406790 A    
N7    O62   1.301614 A    
C155  H60   1.114077 S    
C148  O48   1.291464 A    
C78   N2    1.436414 S    
C59   H11   1.077166 S    
C3    C124  1.472130 S    
C109  C117  1.391660 A    
O2    Cu2   1.964029 S    
C107  C115  1.397341 A    
O4    Cu4   1.963955 S    
C127  C135  1.413531 A    
C70   C78   1.423502 A    
C97   C105  1.407956 A    
C23   C66   1.395303 A    
C18   C50   1.421272 A    
C125  C133  1.413427 A    
C84   N8    1.436631 S    
C153  H56   1.114894 S    
C70   C89   1.414315 A    
C96   C136  1.413271 A    
C75   C88   1.412312 A    
Cu7   O23   1.959911 S    
C129  C137  1.413102 A    
C152  H53   1.110499 S    
C7    O23   1.290379 A    
C8    O24   1.288875 A    
C74   C85   1.411731 A    
O70   C159  1.411601 S    
Cu1   O25   1.965761 S    
C76   C140  1.526809 S    
C37   C45   1.397334 A    
C112  C120  1.396506 A    
C118  C126  1.405497 A    
C132  H44   1.075021 S    
C74   C138  1.522903 S    
