data_mof_unit_53006.cif
_audit_creation_date              2012-12-10T19:00:44-0500
_audit_creation_method            fapswitch 2.2
_symmetry_space_group_name_H-M    P1
_symmetry_Int_Tables_number       1
_space_group_crystal_system       triclinic
_cell_length_a                    15.080117
_cell_length_b                    10.781473
_cell_length_c                    9.587881
_cell_angle_alpha                 89.273653
_cell_angle_beta                  89.246806
_cell_angle_gamma                 91.063586
_cell_volume                      1558.32061156

loop_
_atom_site_label
_atom_site_type_symbol
_atom_type_description
_atom_site_fract_x
_atom_site_fract_y
_atom_site_fract_z
_atom_type_partial_charge
C1    C     C_R   0.502287 0.262679 0.500457 0.772544
C2    C     C_R   0.908227 0.523319 0.373554 0.073535
C3    C     C_R   0.951343 0.441194 0.744571 -0.219399
C4    C     C_R   0.043683 0.442010 0.744325 -0.225099
C5    C     C_R   0.091582 0.470808 0.621598 0.129196
C6    C     C_R   0.046683 0.497362 0.496478 0.024259
C7    C     C_R   0.094663 0.525080 0.371433 0.073181
C8    C     C_R   0.048267 0.552481 0.246929 0.156423
C9    C     C_R   0.955320 0.550761 0.250163 -0.257054
C10   C     C_R   0.183786 0.473560 0.622400 -0.255445
C11   C     C_R   0.231858 0.499523 0.499834 -0.073183
C12   C     C_R   0.328741 0.499971 0.500456 0.794175
C13   C     C_R   0.187507 0.524045 0.375133 -0.249966
C14   C     C_R   0.455141 0.061278 0.596684 0.026544
C15   C     C_R   0.508308 0.129144 0.501646 -0.143895
C16   C     C_R   0.568797 0.066332 0.413172 0.129005
C17   C     C_R   0.564547 0.935537 0.412093 -0.206858
C18   C     C_R   0.504563 0.870375 0.499829 -0.127255
C19   C     C_R   0.454559 0.933814 0.597146 0.082719
C20   C     C_3   0.357203 0.923388 0.626227 -0.460558
C21   C     C_3   0.356922 0.064699 0.626402 -0.068950
C22   C     C_R   0.539695 0.594973 0.070981 0.255131
C23   C     C_R   0.500221 0.737249 0.499370 0.813685
C24   C     C_R   0.454031 0.413380 0.079166 -0.075866
C25   C     C_R   0.449743 0.415160 0.931205 0.226378
C26   C     C_R   0.540082 0.594632 0.924050 0.235583
C27   C     C_3   0.635050 0.634289 0.915196 -0.489260
C28   C     C_3   0.635074 0.633568 0.073476 -0.513156
C29   C     C_R   0.671295 0.499164 0.499387 0.801130
C30   C     C_R   0.815859 0.523519 0.375171 -0.234858
C31   C     C_R   0.768218 0.497031 0.498577 -0.074664
C32   C     C_R   0.813496 0.468918 0.621523 -0.248056
C33   C     C_R   0.905949 0.468603 0.621790 0.125416
C34   C     C_R   0.953676 0.496307 0.497144 0.058056
Cu1   Cu    Cu3+1 0.500000 0.499980 0.640670 0.932210
Cu2   Cu    Cu3+1 0.500000 0.500020 0.359330 0.923673
H1    H     H_    0.781317 0.545970 0.280528 0.144063
H2    H     H_    0.606390 0.883274 0.342763 0.157927
H3    H     H_    0.320440 0.879670 0.539175 0.191738
H4    H     H_    0.342680 0.881302 0.730668 0.180292
H5    H     H_    0.341450 0.101515 0.731145 0.167022
H6    H     H_    0.419564 0.342039 0.140026 0.159322
H7    H     H_    0.678277 0.562462 0.870013 0.210884
H8    H     H_    0.643783 0.728659 0.868435 0.198872
H9    H     H_    0.677200 0.559819 0.117010 0.207755
H10   H     H_    0.776960 0.446624 0.716915 0.145788
H11   H     H_    0.645064 0.727184 0.118603 0.190471
H12   H     H_    0.915460 0.419417 0.840739 0.138526
H13   H     H_    0.077774 0.419982 0.840029 0.138251
H14   H     H_    0.218127 0.454684 0.718236 0.166233
H15   H     H_    0.226377 0.543325 0.281729 0.174263
N1    N     N_R   0.500570 0.500930 0.147930 -0.210637
N2    N     N_R   0.500570 0.500890 0.852020 -0.213457
O1    O     O_R   0.500000 0.319640 0.618810 -0.597804
O2    O     O_R   0.500010 0.319680 0.381230 -0.597290
O3    O     O_R   0.370250 0.499950 0.618800 -0.594443
O4    O     O_R   0.370260 0.499990 0.381220 -0.585228
O5    O     O_R   0.499990 0.680320 0.618770 -0.571092
O6    O     O_R   0.500000 0.680360 0.381190 -0.579205
O7    O     O_R   0.629740 0.500010 0.618780 -0.583666
O8    O     O_R   0.629750 0.500050 0.381200 -0.587911
C35   C     C_3   0.302558 0.123969 0.508962 -0.353728
C36   C     C_3   0.203265 0.114275 0.540815 -0.823963
H16   H     H_    0.181314 0.015530 0.548803 0.256252
H17   H     H_    0.187556 0.161469 0.640215 0.247899
H18   H     H_    0.166192 0.159992 0.455710 0.244458
H19   H     H_    0.320983 0.223864 0.499170 0.191768
H20   H     H_    0.317028 0.079461 0.407329 0.211718
C37   C     C_3   0.388746 0.317441 0.869937 -0.363586
C38   C     C_3   0.295063 0.317964 0.934463 -0.955146
H21   H     H_    0.293594 0.272965 0.039199 0.252134
H22   H     H_    0.271183 0.414364 0.943705 0.257849
H23   H     H_    0.248599 0.264779 0.867857 0.245015
H24   H     H_    0.379581 0.328753 0.758261 0.266402
H25   H     H_    0.418092 0.225040 0.888458 0.176289
C39   C     C_3   0.094600 0.584504 0.109405 -0.416297
C40   C     C_3   0.130338 0.718016 0.107078 -0.818643
H26   H     H_    0.074858 0.783443 0.120012 0.254773
H27   H     H_    0.178739 0.733697 0.191471 0.247581
H28   H     H_    0.163993 0.738004 0.005331 0.240019
H29   H     H_    0.148460 0.518462 0.087494 0.189124
H30   H     H_    0.047592 0.575102 0.021694 0.204083
H31   H     H_    0.919280 0.572003 0.155901 0.142010
C41   C     C_3   0.634384 0.139395 0.319931 -0.349115
C42   C     C_3   0.710366 0.064785 0.257943 -0.876378
H32   H     H_    0.745469 0.013828 0.341469 0.258584
H33   H     H_    0.685092 0.998847 0.179086 0.244516
H34   H     H_    0.758657 0.129094 0.204763 0.248203
H35   H     H_    0.597915 0.182951 0.232705 0.217639
H36   H     H_    0.665187 0.214632 0.382269 0.200541

loop_
_geom_bond_atom_site_label_1
_geom_bond_atom_site_label_2
_ccdc_geom_bond_type
C24   N1    A    
C23   O5    A    
C24   C25   A    
C36   H17   S    
C28   H11   S    
Cu1   N2    S    
C24   H6    S    
C19   C20   S    
C16   C41   S    
Cu2   O6    S    
C7    C8    A    
C40   H26   S    
C23   O6    A    
C26   C27   S    
C35   H19   S    
Cu1   O5    S    
C14   C21   S    
C25   N2    A    
C30   C31   A    
C20   H4    S    
C42   H34   S    
C3    C33   A    
C15   C16   A    
C3    H12   S    
C8    C39   S    
C18   C19   A    
C13   H15   S    
C27   H8    S    
Cu1   Cu2   S    
C8    C9    A    
C38   H21   S    
C1    C15   S    
Cu2   N1    S    
C2    C34   A    
C42   H33   S    
C36   H18   S    
C22   C28   S    
Cu1   O1    S    
C41   H36   S    
C17   C18   A    
C40   H27   S    
C29   O8    A    
C28   H9    S    
C18   C23   S    
C39   C40   S    
Cu2   O4    S    
C39   H30   S    
C20   H3    S    
C16   C17   A    
C42   H32   S    
C6    C34   A    
C30   H1    S    
Cu1   O7    S    
C1    O1    A    
C35   C36   S    
C31   C32   A    
C29   O7    A    
C38   H23   S    
C33   C34   A    
C37   H24   S    
C41   C42   S    
C21   C35   S    
C12   O3    A    
C9    H31   S    
C21   H5    S    
C12   O4    A    
C25   C37   S    
C41   H35   S    
Cu2   O8    S    
C10   H14   S    
C26   N2    A    
C22   N1    A    
C40   H28   S    
Cu1   O3    S    
C32   H10   S    
C14   C19   A    
C4    C5    A    
C39   H29   S    
C11   C12   S    
C6    C7    A    
C35   H20   S    
C4    H13   S    
C2    C30   A    
C32   C33   A    
C1    O2    A    
C5    C10   A    
C29   C31   S    
Cu2   O2    S    
C11   C13   A    
C5    C6    A    
C37   H25   S    
C17   H2    S    
C37   C38   S    
C10   C11   A    
C36   H16   S    
C27   H7    S    
C7    C13   A    
C20   C21   S    
C22   C26   A    
C27   C28   S    
C14   C15   A    
C38   H22   S    
C2    C9    A    
C3    C4    A    
