data_mof_unit_64642.cif
_audit_creation_date              2012-12-10T18:21:47-0500
_audit_creation_method            fapswitch 2.2
_symmetry_space_group_name_H-M    P1
_symmetry_Int_Tables_number       1
_space_group_crystal_system       triclinic
_cell_length_a                    18.631387
_cell_length_b                    18.596049
_cell_length_c                    18.67471
_cell_angle_alpha                 109.616501
_cell_angle_beta                  110.00877
_cell_angle_gamma                 109.264534
_cell_volume                      4951.14450455

loop_
_atom_site_label
_atom_site_type_symbol
_atom_type_description
_atom_site_fract_x
_atom_site_fract_y
_atom_site_fract_z
_atom_type_partial_charge
C1    C     C_R   0.622780 0.621450 0.501640 0.880067
C2    C     C_3   0.187232 0.416334 0.188172 -0.166657
C3    C     C_3   0.214982 0.460266 0.286890 -0.155553
C4    C     C_3   0.311630 0.500018 0.310580 0.029001
C5    C     C_3   0.781706 0.691633 0.545041 -0.022259
C6    C     C_3   0.849958 0.757550 0.535684 -0.022009
C7    C     C_3   0.663631 0.665733 0.405260 -0.407447
C8    C     C_3   0.705307 0.781820 0.554812 -0.410455
C9    C     C_3   0.692037 0.688619 0.501947 0.050394
C10   C     C_3   0.810352 0.808551 0.498408 0.033647
C11   C     C_3   0.727803 0.741286 0.403378 0.031557
C12   C     C_R   0.378818 0.500065 0.378454 0.841844
C13   C     C_3   0.781058 0.853119 0.559666 -0.474112
C14   C     C_3   0.666244 0.398898 0.659591 -0.481957
C15   C     C_3   0.749620 0.399065 0.718489 0.481876
C16   C     C_3   0.774716 0.552519 0.703301 -0.506340
C17   C     C_3   0.687931 0.532851 0.780262 0.004589
C18   C     C_3   0.684204 0.494841 0.689841 -0.004417
C19   C     C_3   0.808843 0.493331 0.806286 -0.025712
C20   C     C_3   0.849716 0.564299 0.782793 0.359346
C21   C     C_3   0.751125 0.516960 0.842989 -0.464068
C22   C     C_3   0.238995 0.235339 0.402634 -0.571578
C23   C     C_R   0.377901 0.378501 0.499178 0.929701
C24   C     C_3   0.168087 0.160465 0.400106 0.374556
C25   C     C_3   0.353931 0.271928 0.552565 0.352968
C26   C     C_3   0.262574 0.347981 0.542749 0.292009
C27   C     C_3   0.310336 0.309749 0.499444 -0.053597
C28   C     C_3   0.189529 0.185860 0.496589 0.005114
C29   C     C_3   0.281686 0.196613 0.548986 -0.590020
C30   C     C_3   0.192291 0.274089 0.541525 -0.460615
C31   C     C_R   0.999665 0.621625 0.120283 0.877567
C32   C     C_R   0.122718 0.500013 0.122251 0.853978
C33   C     C_R   0.999344 0.378485 0.878196 0.848892
C34   C     C_R   0.617196 0.496067 0.621552 0.955628
C35   C     C_R   0.879263 0.496255 0.876112 0.916360
C36   C     C_R   0.998766 0.876952 0.378723 0.882304
C37   C     C_R   0.878377 0.877440 0.498700 0.894261
C38   C     C_R   0.999711 0.121187 0.621387 0.822654
C39   C     C_R   0.121392 0.118266 0.497171 0.883640
C40   C     C_3   0.904422 0.672012 0.157304 -0.472651
C41   C     C_3   0.902247 0.739505 0.231056 0.280066
C42   C     C_3   0.036584 0.686752 0.273501 -0.467017
C43   C     C_3   0.057906 0.784076 0.206405 -0.368710
C44   C     C_3   0.999914 0.690212 0.187891 0.071886
C45   C     C_3   0.315122 0.583880 0.311897 -0.153846
C46   C     C_3   0.998963 0.808711 0.310061 0.041099
C47   C     C_3   0.042752 0.761090 0.348236 0.390329
C48   C     C_3   0.052498 0.853362 0.274556 -0.506000
C49   C     C_3   0.067444 0.287002 0.855215 -0.433748
C50   C     C_3   0.068312 0.215774 0.784331 -0.358257
C51   C     C_3   0.906483 0.225089 0.750532 -0.365465
C52   C     C_3   0.024879 0.343891 0.752026 -0.382537
C53   C     C_3   0.999133 0.310000 0.810128 0.172439
C54   C     C_3   0.999914 0.189224 0.689978 0.182128
C55   C     C_3   0.906851 0.153927 0.679004 -0.421441
C56   C     C_3   0.217151 0.544077 0.286942 -0.153803
C57   C     C_3   0.023934 0.271946 0.680163 -0.424689
C58   C     C_3   0.190650 0.500190 0.189525 0.022316
C59   C     C_3   0.287411 0.540004 0.213298 -0.162905
C60   C     C_3   0.285048 0.456093 0.213058 -0.174610
H1    H     H_    0.187622 0.580059 0.315187 0.121525
H2    H     H_    0.663327 0.604235 0.369079 0.204561
H3    H     H_    0.749911 0.713824 0.358479 0.163347
H4    H     H_    0.643332 0.782599 0.522240 0.211625
H5    H     H_    0.720920 0.798050 0.623291 0.182633
H6    H     H_    0.837637 0.896110 0.628945 0.159523
H7    H     H_    0.759436 0.896430 0.541115 0.217476
H8    H     H_    0.594804 0.652113 0.370158 0.183692
H9    H     H_    0.641071 0.360903 0.588326 0.180037
H10   H     H_    0.369154 0.652261 0.364165 0.142235
H11   H     H_    0.609949 0.363411 0.666073 0.229349
H12   H     H_    0.777432 0.519282 0.643379 0.203683
H13   H     H_    0.896679 0.551946 0.762986 0.112608
H14   H     H_    0.714373 0.605282 0.809244 0.188774
H15   H     H_    0.713086 0.462176 0.850031 0.225360
H16   H     H_    0.793001 0.577120 0.909936 0.194932
H17   H     H_    0.783651 0.617945 0.712783 0.184089
H18   H     H_    0.315560 0.572559 0.181680 0.155742
H19   H     H_    0.268340 0.207830 0.366104 0.179668
H20   H     H_    0.207888 0.263889 0.366815 0.185100
H21   H     H_    0.171014 0.098793 0.371875 0.012149
H22   H     H_    0.277898 0.131972 0.519609 0.167994
H23   H     H_    0.228739 0.371077 0.501143 0.067292
H24   H     H_    0.126746 0.267578 0.506102 0.184981
H25   H     H_    0.314321 0.420154 0.184294 0.148270
H26   H     H_    0.206912 0.291539 0.610061 0.180313
H27   H     H_    0.393429 0.325327 0.622692 0.195552
H28   H     H_    0.298065 0.214424 0.618012 0.208340
H29   H     H_    0.860534 0.603684 0.139567 0.219163
H30   H     H_    0.878315 0.676608 0.096704 0.134012
H31   H     H_    0.874076 0.775565 0.204360 0.096467
H32   H     H_    0.992751 0.621887 0.262940 0.165336
H33   H     H_    0.004306 0.730826 0.374638 0.121577
H34   H     H_    0.127990 0.800343 0.232236 0.203694
H35   H     H_    0.133289 0.347931 0.135860 0.134182
H36   H     H_    0.035183 0.786558 0.144290 0.176185
H37   H     H_    0.020005 0.883622 0.242841 0.153688
H38   H     H_    0.120286 0.907421 0.329317 0.210553
H39   H     H_    0.102736 0.692803 0.292084 0.174679
H40   H     H_    0.050658 0.262512 0.897368 0.164121
H41   H     H_    0.134483 0.346857 0.898885 0.169202
H42   H     H_    0.135922 0.241523 0.793816 0.176649
H43   H     H_    0.052458 0.157033 0.792765 0.171235
H44   H     H_    0.888070 0.198502 0.790733 0.191664
H45   H     H_    0.187345 0.427666 0.318760 0.121591
H46   H     H_    0.887932 0.093439 0.684478 0.155247
H47   H     H_    0.978762 0.364349 0.721622 0.188774
H48   H     H_    0.092358 0.403030 0.793202 0.186119
H49   H     H_    0.090010 0.297158 0.685986 0.153366
H50   H     H_    0.975221 0.255440 0.613998 0.188479
H51   H     H_    0.855424 0.240424 0.719600 0.197822
H52   H     H_    0.856591 0.135402 0.612614 0.189360
H53   H     H_    0.805336 0.718673 0.616831 0.100470
H54   H     H_    0.908268 0.805614 0.603486 0.141398
O1    O     O_R   0.592740 0.540340 0.447840 -0.592839
O2    O     O_R   0.053270 0.644880 0.093500 -0.629752
O3    O     O_R   0.041720 0.447740 0.093910 -0.623600
O4    O     O_R   0.146290 0.552270 0.093890 -0.627010
O5    O     O_R   0.949110 0.355140 0.908700 -0.618084
O6    O     O_R   0.053680 0.459670 0.908680 -0.637907
O7    O     O_R   0.856090 0.447760 0.908300 -0.606028
O8    O     O_R   0.960660 0.552280 0.908280 -0.616679
O9    O     O_R   0.052690 0.907450 0.460090 -0.586283
O10   O     O_R   0.947900 0.907390 0.355230 -0.642252
O11   O     O_R   0.959780 0.907430 0.552420 -0.627611
O12   O     O_R   0.592480 0.644870 0.552180 -0.641463
O13   O     O_R   0.854990 0.907370 0.447560 -0.586271
O14   O     O_R   0.052100 0.092610 0.644770 -0.637599
O15   O     O_R   0.947310 0.092550 0.539920 -0.623997
O16   O     O_R   0.145010 0.092640 0.552440 -0.635381
O17   O     O_R   0.040220 0.092570 0.447580 -0.576312
O18   O     O_R   0.407320 0.447740 0.355030 -0.634219
O19   O     O_R   0.407060 0.552270 0.459360 -0.634169
O20   O     O_R   0.407520 0.355130 0.447820 -0.609508
O21   O     O_R   0.407260 0.459660 0.552160 -0.591665
O22   O     O_R   0.592940 0.447730 0.540640 -0.612262
O23   O     O_R   0.592680 0.552260 0.644970 -0.616341
O24   O     O_R   0.948700 0.540360 0.093520 -0.626944
Zn1   Zn    Zn3+2 0.500170 0.430200 0.430330 0.967325
Zn2   Zn    Zn3+2 0.499830 0.569800 0.569670 0.962639
Zn3   Zn    Zn3+2 0.931370 0.430220 0.001110 0.977150
Zn4   Zn    Zn3+2 0.071010 0.569800 0.001080 0.940169
Zn5   Zn    Zn3+2 0.069970 0.000040 0.570020 0.955769
Zn6   Zn    Zn3+2 0.930030 0.999960 0.429990 0.988742
I1    I     I_    0.905732 0.702736 0.462193 -0.390191
I2    I     I_    0.654581 0.794837 0.342652 -0.444916
I3    I     I_    0.700953 0.287170 0.738029 -0.415720
O25   O     O_3   0.803221 0.388880 0.680374 -0.643347
C61   C     C_3   0.755688 0.323017 0.589854 0.122297
H55   H     H_    0.735058 0.351667 0.548523 0.166925
H56   H     H_    0.697065 0.263815 0.572645 0.158741
C62   C     C_3   0.815288 0.293489 0.566085 -0.851026
H57   H     H_    0.831926 0.256905 0.598821 0.248291
H58   H     H_    0.780483 0.248735 0.493569 0.218017
H59   H     H_    0.876715 0.351535 0.586278 0.259150
I4    I     I_    0.562789 0.481642 0.774786 -0.395913
O26   O     O_3   0.892226 0.650485 0.856377 -0.605375
C63   C     C_3   0.964851 0.709961 0.858739 0.117203
H60   H     H_    0.944505 0.710354 0.795477 0.135125
H61   H     H_    0.017558 0.692129 0.871933 0.148922
C64   C     C_3   0.002672 0.802526 0.933029 -0.843410
H62   H     H_    0.024586 0.804305 0.997220 0.252458
H63   H     H_    0.060179 0.849973 0.935964 0.203620
H64   H     H_    0.951668 0.822487 0.921288 0.252341
O27   O     O_3   0.083785 0.148456 0.349658 -0.582313
C65   C     C_3   0.044200 0.085880 0.259668 0.110731
H65   H     H_    0.027546 0.019174 0.250894 0.129459
H66   H     H_    0.088570 0.104106 0.233468 0.125735
C66   C     C_3   0.959140 0.082280 0.206505 -0.810722
H67   H     H_    0.973729 0.147981 0.213456 0.250242
H68   H     H_    0.927126 0.032876 0.135635 0.199507
H69   H     H_    0.913036 0.063041 0.230469 0.257889
O28   O     O_3   0.418482 0.257462 0.535204 -0.607465
C67   C     C_3   0.389623 0.169968 0.474158 0.155734
H70   H     H_    0.320909 0.135114 0.418792 0.114701
H71   H     H_    0.395494 0.132350 0.509106 0.157016
C68   C     C_3   0.449465 0.171817 0.435397 -0.825367
H72   H     H_    0.446888 0.210618 0.401461 0.260223
H73   H     H_    0.518609 0.202335 0.488684 0.248469
H74   H     H_    0.427448 0.103457 0.386908 0.201546
O29   O     O_3   0.324388 0.417640 0.631592 -0.581943
C69   C     C_3   0.296184 0.478854 0.656572 0.126618
H75   H     H_    0.228401 0.445549 0.645524 0.116951
H76   H     H_    0.297275 0.513990 0.618684 0.138581
C70   C     C_3   0.358990 0.546788 0.754297 -0.780246
H77   H     H_    0.427041 0.582158 0.767104 0.270303
H78   H     H_    0.337632 0.595441 0.774830 0.189982
H79   H     H_    0.359024 0.513591 0.793878 0.256889
O30   O     O_3   0.850402 0.695541 0.259684 -0.611371
C71   C     C_3   0.758947 0.656417 0.200075 0.100570
H80   H     H_    0.742434 0.642007 0.131666 0.130149
H81   H     H_    0.735564 0.701721 0.224832 0.174663
C72   C     C_3   0.708534 0.569217 0.193808 -0.789294
H82   H     H_    0.724551 0.578646 0.260357 0.273083
H83   H     H_    0.636364 0.541658 0.153077 0.210203
H84   H     H_    0.726680 0.521358 0.162455 0.251246
O31   O     O_3   0.133061 0.822408 0.414279 -0.597991
C73   C     C_3   0.160639 0.798972 0.479111 0.108094
H85   H     H_    0.146711 0.729587 0.448670 0.126867
H86   H     H_    0.126765 0.807026 0.517640 0.170741
C74   C     C_3   0.259630 0.859638 0.542311 -0.816078
H87   H     H_    0.275419 0.929385 0.574542 0.258562
H88   H     H_    0.282077 0.842258 0.593987 0.203951
H89   H     H_    0.295259 0.852381 0.505709 0.253299
I5    I     I_    0.775576 0.564144 0.506707 -0.395657

loop_
_geom_bond_atom_site_label_1
_geom_bond_atom_site_label_2
_ccdc_geom_bond_type
C65   H66   S    
C71   H80   S    
C55   H52   S    
C66   H68   S    
C74   H87   S    
C14   C18   S    
C19   C20   S    
C16   H12   S    
C32   C58   S    
C32   O3    A    
C24   H21   S    
C64   H62   S    
O15   Zn6   S    
O28   C67   S    
C3    H45   S    
O18   Zn1   S    
C15   C19   S    
C48   H37   S    
C21   H16   S    
O12   Zn2   S    
C26   C27   S    
O27   C65   S    
C26   H23   S    
C2    H35   S    
C36   O10   A    
C22   H19   S    
C11   H3    S    
C61   H56   S    
C49   H41   S    
C5    C6    S    
C2    C60   S    
C70   H78   S    
C25   H27   S    
C43   H34   S    
C25   C29   S    
C17   C18   S    
C16   H17   S    
C14   H11   S    
C49   C50   S    
C67   H70   S    
C6    H54   S    
C29   H28   S    
C63   C64   S    
C7    H8    S    
C46   C47   S    
O26   C63   S    
C57   H49   S    
C33   O5    A    
C45   C56   S    
C8    C9    S    
C68   H73   S    
C51   H51   S    
C41   C46   S    
C36   C46   S    
C73   H85   S    
C23   C27   S    
C40   H29   S    
C30   H26   S    
C59   C60   S    
C43   C48   S    
C51   C55   S    
C71   C72   S    
C13   H6    S    
C68   H74   S    
C50   H43   S    
C63   H61   S    
C74   H88   S    
C65   H65   S    
O31   C73   S    
C42   C44   S    
O22   Zn1   S    
C59   H18   S    
C42   C47   S    
C64   H63   S    
C7    C11   S    
C37   O11   A    
C4    C45   S    
C33   C53   S    
O21   Zn2   S    
O23   Zn2   S    
C46   C48   S    
C31   C44   S    
C55   H46   S    
C38   O15   A    
O7    Zn3   S    
C35   O7    A    
C36   O9    A    
C1    C9    S    
O25   C61   S    
C52   H47   S    
C10   C11   S    
C61   C62   S    
C32   O4    A    
O20   Zn1   S    
C6    I1    S    
C70   H79   S    
C28   C39   S    
C72   H83   S    
C51   H44   S    
O29   C69   S    
C10   C13   S    
C17   C21   S    
C51   C53   S    
C69   C70   S    
O3    Zn3   S    
C43   C44   S    
C7    H2    S    
C5    C9    S    
C3    C56   S    
C8    H5    S    
C57   H50   S    
C38   C54   S    
C62   H59   S    
C34   O22   A    
C16   C20   S    
C72   H84   S    
C4    C60   S    
C73   C74   S    
C43   H36   S    
C47   H33   S    
O6    Zn4   S    
C66   H67   S    
C50   C54   S    
C1    O12   A    
C31   O24   A    
C37   O13   A    
O16   Zn5   S    
C18   C34   S    
C67   C68   S    
C8    H4    S    
O2    Zn4   S    
C26   C30   S    
C40   C41   S    
C41   H31   S    
O1    Zn1   S    
C68   H72   S    
C22   C27   S    
C10   C37   S    
C17   H14   S    
O5    Zn3   S    
C14   H9    S    
C22   C24   S    
C4    C12   S    
O8    Zn4   S    
C3    C4    S    
C28   C29   S    
C31   O2    A    
C64   H64   S    
C52   C53   S    
C13   H7    S    
C7    C9    S    
C54   C55   S    
C45   C59   S    
C71   H81   S    
C12   O18   A    
C23   O20   A    
C5    H53   S    
C45   H10   S    
C56   H1    S    
C35   O8    A    
C47   O31   S    
C24   C28   S    
C65   C66   S    
C62   H58   S    
O4    Zn4   S    
O24   Zn3   S    
C6    C10   S    
C38   O14   A    
C60   H25   S    
C2    C58   S    
C11   I2    S    
C50   H42   S    
C15   O25   S    
C39   O16   A    
C23   O21   A    
C25   C27   S    
C48   H38   S    
C21   H15   S    
C34   O23   A    
C41   O30   S    
C12   O19   A    
C28   C30   S    
C2    C3    S    
C58   C59   S    
C22   H20   S    
C29   H22   S    
C19   C35   S    
C61   H55   S    
C49   H40   S    
C15   I3    S    
C70   H77   S    
C63   H60   S    
C39   O17   A    
O11   Zn5   S    
C20   O26   S    
C49   C53   S    
O19   Zn2   S    
C74   H89   S    
C67   H71   S    
C56   C58   S    
C20   H13   S    
C24   O27   S    
C42   H32   S    
O13   Zn6   S    
C8    C13   S    
C30   H24   S    
O30   C71   S    
O14   Zn5   S    
C69   H76   S    
C52   C57   S    
C5    I5    S    
C26   O29   S    
C25   O28   S    
C40   C44   S    
C62   H57   S    
C52   H48   S    
C33   O6    A    
C16   C18   S    
C72   H82   S    
O9    Zn5   S    
C14   C15   S    
O10   Zn6   S    
C73   H86   S    
C66   H69   S    
C1    O1    A    
C40   H30   S    
C42   H39   S    
C17   I4    S    
O17   Zn6   S    
C69   H75   S    
C19   C21   S    
C54   C57   S    
