data_mof_unit_25346.cif
_audit_creation_date              2012-12-11T17:01:30-0500
_audit_creation_method            fapswitch 2.2
_symmetry_space_group_name_H-M    P1
_symmetry_Int_Tables_number       1
_space_group_crystal_system       triclinic
_cell_length_a                    14.961261
_cell_length_b                    14.836151
_cell_length_c                    14.92278
_cell_angle_alpha                 109.211524
_cell_angle_beta                  109.266441
_cell_angle_gamma                 109.745618
_cell_volume                      2555.77914054

loop_
_atom_site_label
_atom_site_type_symbol
_atom_type_description
_atom_site_fract_x
_atom_site_fract_y
_atom_site_fract_z
_atom_type_partial_charge
C1    C     C_R   0.006918 0.805149 0.101019 -0.298334
C2    C     C_R   0.224778 0.752737 0.314726 0.709561
C3    C     C_R   0.903256 0.408136 0.208277 -0.103415
C4    C     C_R   0.793080 0.196696 0.701125 -0.047442
C5    C     C_R   0.298228 0.592086 0.992203 -0.119396
C6    C     C_R   0.929903 0.499528 0.299240 0.080600
C7    C     C_R   0.297906 0.501565 0.925986 -0.222418
C8    C     C_R   0.326996 0.777008 0.324007 -0.070735
C9    C     C_R   0.050057 0.225211 0.054268 -0.013028
C10   C     C_3   0.472291 0.403938 0.824775 -0.441334
C11   C     C_3   0.367264 0.400021 0.822014 -0.417828
C12   C     C_R   0.698379 0.133077 0.696511 0.135590
C13   C     C_3   0.559858 0.492523 0.030980 -0.493827
C14   C     C_3   0.578042 0.609984 0.940191 -0.399664
C15   C     C_3   0.573288 0.501950 0.935170 0.276726
C16   C     C_R   0.024042 0.591599 0.777741 0.700374
C17   C     C_3   0.396279 0.502153 0.924808 0.158099
C18   C     C_3   0.459704 0.498890 0.028524 0.654517
C19   C     C_3   0.470664 0.607132 0.927684 -0.305259
C20   C     C_R   0.620679 0.978679 0.513369 -0.160557
C21   C     C_R   0.620464 0.018106 0.612338 -0.168023
C22   C     C_R   0.535791 0.948260 0.620608 0.753021
C23   C     C_R   0.952947 0.501561 0.674340 -0.085362
C24   C     C_R   0.441679 0.856904 0.525171 -0.282225
C25   C     C_R   0.432925 0.836162 0.422793 0.062599
C26   C     C_R   0.528301 0.888887 0.419886 0.025116
C27   C     C_3   0.547470 0.936890 0.349339 -0.609500
C28   C     C_R   0.685541 0.408348 0.933378 -0.106203
C29   C     C_3   0.648463 0.035245 0.451626 1.342710
C30   C     C_R   0.956430 0.604433 0.480328 0.024262
C31   C     C_R   0.897864 0.504628 0.382321 -0.168226
C32   C     C_R   0.824453 0.410076 0.376352 0.762403
C33   C     C_R   0.831738 0.411756 0.473090 -0.305404
C34   C     C_R   0.675078 0.501228 0.949181 0.037493
C35   C     C_R   0.911405 0.507471 0.574468 -0.031419
C36   C     C_R   0.963454 0.606138 0.575097 0.211392
C37   C     C_3   0.081384 0.696103 0.641183 -0.297200
C38   C     C_3   0.073111 0.693976 0.537525 -0.478855
C39   C     C_R   0.036680 0.023449 0.149151 0.110709
C40   C     C_R   0.937867 0.408404 0.684580 -0.188051
C41   C     C_R   0.103894 0.989474 0.119044 -0.244616
C42   C     C_R   0.186577 0.064972 0.112960 0.644490
C43   C     C_R   0.179375 0.154472 0.105372 0.639592
C44   C     C_R   0.090248 0.167623 0.104728 -0.244527
C45   C     C_R   0.990166 0.590430 0.295747 -0.039846
C46   C     C_R   0.030004 0.111155 0.142188 0.073990
C47   C     C_3   0.909733 0.056698 0.103424 -0.394379
C48   C     C_3   0.916980 0.960450 0.110978 -0.434208
C49   C     C_R   0.777758 0.592991 0.025496 -0.124477
C50   C     C_R   0.698819 0.195814 0.789223 -0.098781
C51   C     C_R   0.101087 0.809618 0.014338 0.927477
C52   C     C_R   0.072713 0.873152 0.078180 -0.053267
C53   C     C_R   0.206805 0.410030 0.899449 0.803690
C54   C     C_R   0.313264 0.745423 0.220272 -0.189743
C55   C     C_R   0.976319 0.255369 0.069381 -0.264865
C56   C     C_R   0.064846 0.248422 0.975273 0.791883
F1    F     F_    0.157912 0.308340 0.812408 -0.668918
F2    F     F_    0.269046 0.049555 0.106888 -0.568560
F3    F     F_    0.253666 0.221485 0.090305 -0.596063
F4    F     F_    0.186460 0.849244 0.997819 -0.603584
F5    F     F_    0.122720 0.222385 0.928745 -0.618713
F6    F     F_    0.202144 0.777138 0.397369 -0.743864
F7    F     F_    0.492349 0.591779 0.122624 -0.691522
F8    F     F_    0.538025 0.973115 0.717525 -0.701777
F9    F     F_    0.046409 0.695891 0.806045 -0.712389
F10   F     F_    0.744089 0.047253 0.450979 -0.705728
F11   F     F_    0.642490 0.130964 0.478456 -0.717964
F12   F     F_    0.755136 0.313600 0.280689 -0.679724
H1    H     H_    0.985753 0.830993 0.163879 0.173165
H2    H     H_    0.406278 0.425257 0.028482 0.084778
H3    H     H_    0.646038 0.683125 0.019948 0.173361
H4    H     H_    0.491805 0.683663 0.997275 0.193444
H5    H     H_    0.633986 0.559403 0.110873 0.213874
H6    H     H_    0.372852 0.810491 0.531399 0.215335
H7    H     H_    0.784026 0.335553 0.468991 0.222794
H8    H     H_    0.094524 0.775353 0.699529 0.262461
H9    H     H_    0.138591 0.669154 0.676106 0.183345
H10   H     H_    0.080424 0.770911 0.537044 0.235711
H11   H     H_    0.125731 0.665771 0.513211 0.230334
H12   H     H_    0.948318 0.251904 0.126629 0.164262
H13   H     H_    0.901739 0.949313 0.175674 0.199312
H14   H     H_    0.886674 0.323221 0.620384 0.192052
H15   H     H_    0.799956 0.678694 0.061974 0.104702
H16   H     H_    0.005965 0.673015 0.340809 0.164563
H17   H     H_    0.373967 0.748140 0.196073 0.181008
H18   H     H_    0.828346 0.168356 0.653301 0.161314
H19   H     H_    0.592200 0.620482 0.874719 0.170016
H20   H     H_    0.427427 0.607439 0.851240 0.166308
H21   H     H_    0.565913 0.888633 0.290620 0.217544
H22   H     H_    0.484109 0.956943 0.313119 0.222055
H23   H     H_    0.844413 0.323416 0.176536 0.181261
H24   H     H_    0.621653 0.323032 0.885465 0.109928
H25   H     H_    0.890359 0.100675 0.163869 0.204730
H26   H     H_    0.858965 0.035599 0.018004 0.205765
H27   H     H_    0.870173 0.884388 0.029813 0.197846
H28   H     H_    0.644799 0.167878 0.819392 0.181061
H29   H     H_    0.352355 0.677665 0.021421 0.152721
H30   H     H_    0.466560 0.323844 0.812723 0.183659
H31   H     H_    0.478479 0.413476 0.755789 0.195026
H32   H     H_    0.316315 0.396877 0.746094 0.211293
H33   H     H_    0.320486 0.322673 0.820246 0.243151
H34   H     H_    0.550590 0.412746 0.025153 0.160969
N1    N     N_R   0.995640 0.706130 0.053910 -0.089503
N2    N     N_R   0.054010 0.556790 0.847890 -0.119482
N3    N     N_R   0.789940 0.443190 0.997130 -0.041208
N4    N     N_R   0.997630 0.443170 0.791110 -0.087420
N5    N     N_R   0.846320 0.556810 0.053910 -0.039959
N6    N     N_R   0.791080 0.293860 0.847890 -0.062388
N7    N     N_R   0.052880 0.706130 0.997130 -0.128115
N8    N     N_R   0.002370 0.556830 0.208890 -0.057690
N9    N     N_R   0.153680 0.443190 0.946090 -0.121676
N10   N     N_R   0.208920 0.706140 0.152110 -0.086161
N11   N     N_R   0.947120 0.293870 0.002870 -0.084664
N12   N     N_R   0.004360 0.293870 0.946090 -0.131596
N13   N     N_R   0.151690 0.706140 0.208890 -0.114575
N14   N     N_R   0.945990 0.443210 0.152110 -0.059993
N15   N     N_R   0.210060 0.556810 0.002870 -0.092313
N16   N     N_R   0.848310 0.293860 0.791110 -0.058783
Ni1   Ni    Ni4+2 0.999010 0.630300 0.130220 0.222146
Ni2   Ni    Ni4+2 0.000990 0.369700 0.869780 0.286477
Ni3   Ni    Ni4+2 0.130280 0.630280 0.000000 0.270174
Ni4   Ni    Ni4+2 0.869720 0.369720 0.000000 0.222504

loop_
_geom_bond_atom_site_label_1
_geom_bond_atom_site_label_2
_ccdc_geom_bond_type
C18   H2    S    
C48   H27   S    
C27   C29   S    
C41   C42   A    
C35   C36   A    
C3    C6    A    
C50   H28   S    
C42   F2    S    
N2    N4    A    
C39   C41   A    
N3    N5    A    
C26   C27   S    
N14   Ni4   S    
C13   C18   S    
C36   C37   S    
C6    C45   A    
C14   H19   S    
C3    N14   A    
C30   C31   A    
C18   F7    S    
C4    H18   S    
C38   H11   S    
C23   C40   A    
C48   H13   S    
C30   C38   S    
C27   H22   S    
C3    H23   S    
C14   H3    S    
C10   H30   S    
N15   Ni3   S    
C17   C19   S    
C29   F11   S    
C33   H7    S    
N11   Ni4   S    
C31   C32   A    
C7    C17   S    
C9    C55   A    
C4    C12   A    
C1    N1    A    
C15   C34   S    
C43   F3    S    
C32   F12   S    
C53   N9    A    
C6    C31   S    
C28   C34   A    
C51   N7    A    
N1    N7    A    
C21   C22   A    
C50   N6    A    
C8    C25   S    
C4    N16   A    
C19   H4    S    
N5    Ni1   S    
C44   C46   A    
C20   C29   S    
N1    Ni1   S    
C51   C52   A    
N6    N16   A    
C24   C25   A    
C28   H24   S    
C19   H20   S    
C8    C54   A    
C5    C7    A    
C53   F1    S    
C45   N8    A    
N2    Ni3   S    
C55   N11   A    
C25   C26   A    
C49   N5    A    
C12   C21   S    
C1    H1    S    
C5    N15   A    
C11   H32   S    
C43   C44   A    
C37   C38   S    
C40   H14   S    
C2    N13   A    
C47   C48   S    
C28   N3    A    
C17   C18   S    
C47   H25   S    
C54   N10   A    
C11   H33   S    
C9    C56   A    
C39   C46   A    
C37   H8    S    
C13   H5    S    
C16   C23   A    
C23   C35   S    
C16   N2    A    
C13   C15   S    
C22   C24   A    
C45   H16   S    
C42   C43   A    
C7    C53   A    
N8    N14   A    
C40   N4    A    
N11   N12   A    
C46   C47   S    
C11   C17   S    
C9    C44   S    
C41   C52   S    
N4    Ni2   S    
C10   C15   S    
C14   C15   S    
C14   C19   S    
C2    C8    A    
N6    Ni4   S    
C20   C26   A    
N8    Ni1   S    
C54   H17   S    
C12   C50   A    
C24   H6    S    
C16   F9    S    
C38   H10   S    
N13   Ni1   S    
C30   C36   A    
N9    N15   A    
C32   C33   A    
C49   H15   S    
N10   Ni3   S    
C55   H12   S    
N7    Ni3   S    
C37   H9    S    
C33   C35   A    
C47   H26   S    
N3    Ni4   S    
C27   H21   S    
C10   H31   S    
C1    C52   A    
N16   Ni2   S    
C10   C11   S    
C22   F8    S    
C29   F10   S    
C5    H29   S    
C20   C21   A    
C34   C49   A    
C56   N12   A    
C56   F5    S    
N9    Ni2   S    
C51   F4    S    
C13   H34   S    
N10   N13   A    
N12   Ni2   S    
C2    F6    S    
C39   C48   S    
