data_mof_unit_18676.cif
_audit_creation_date              2012-12-11T15:20:43-0500
_audit_creation_method            fapswitch 2.2
_symmetry_space_group_name_H-M    P1
_symmetry_Int_Tables_number       1
_space_group_crystal_system       triclinic
_cell_length_a                    12.899247
_cell_length_b                    13.063459
_cell_length_c                    15.308096
_cell_angle_alpha                 117.041116
_cell_angle_beta                  62.967545
_cell_angle_gamma                 97.570825
_cell_volume                      2037.40966557

loop_
_atom_site_label
_atom_site_type_symbol
_atom_type_description
_atom_site_fract_x
_atom_site_fract_y
_atom_site_fract_z
_atom_type_partial_charge
C1    C     C_R   0.027847 0.834144 0.026901 -0.133023
C2    C     C_R   0.321844 0.515504 0.779866 -0.143120
C3    C     C_R   0.242102 0.484403 0.110433 -0.208058
C4    C     C_R   0.700993 0.402599 0.209485 -0.143052
C5    C     C_R   0.984559 0.299695 0.696608 -0.135480
C6    C     C_R   0.332813 0.551301 0.084638 0.180556
C7    C     C_R   0.924461 0.204400 0.697093 0.050055
C8    C     C_R   0.331812 0.439565 0.676094 0.085809
C9    C     C_R   0.084528 0.144654 0.968943 0.043624
C10   C     C_R   0.927261 0.043648 0.425314 -0.168918
C11   C     C_R   0.920693 0.138416 0.519442 -0.165572
C12   C     C_R   0.706055 0.427163 0.305374 0.096050
C13   C     C_R   0.886845 0.126026 0.614861 0.137696
C14   C     C_R   0.835586 0.026861 0.621704 -0.173155
C15   C     C_R   0.842195 0.932221 0.527628 -0.170880
C16   C     C_R   0.737046 0.585886 0.958845 -0.102811
C17   C     C_R   0.900690 0.936907 0.426959 0.142087
C18   C     C_R   0.639724 0.431706 0.486545 -0.168652
C19   C     C_R   0.546845 0.430792 0.578967 -0.232731
C20   C     C_R   0.442224 0.389337 0.575111 -0.048477
C21   C     C_R   0.443782 0.320583 0.471428 0.623019
C22   C     C_R   0.535892 0.325492 0.379487 -0.313373
C23   C     C_R   0.634541 0.572247 0.038567 -0.052480
C24   C     C_R   0.629255 0.390117 0.389230 0.072388
C25   C     C_2   0.426366 0.567665 0.116955 -0.357635
C26   C     C_2   0.517332 0.628782 0.088472 0.592399
C27   C     C_2   0.896955 0.966697 0.027507 -0.227917
C28   C     C_R   0.939932 0.719938 0.316391 -0.123387
C29   C     C_2   0.880733 0.058044 0.122201 -0.134593
C30   C     C_R   0.660845 0.488230 0.057335 -0.166205
C31   C     C_R   0.027811 0.821356 0.222420 -0.116052
C32   C     C_R   0.802364 0.487857 0.304074 -0.147398
C33   C     C_R   0.929753 0.748776 0.928854 -0.160928
C34   C     C_R   0.950624 0.830553 0.325556 0.036038
C35   C     C_R   0.953681 0.855068 0.992545 0.148188
C36   C     C_3   0.347566 0.163805 0.477542 -0.290361
C37   C     C_3   0.546250 0.819689 0.157165 -0.242312
C38   C     C_R   0.320890 0.585160 0.016116 0.049875
C39   C     C_R   0.903049 0.200261 0.792358 -0.144762
C40   C     C_R   0.219716 0.435073 0.684198 -0.122013
C41   C     C_R   0.097746 0.251006 0.043705 -0.120476
C42   C     C_R   0.998500 0.166811 0.946806 -0.094577
H1    H     H_    0.075408 0.897602 0.065176 0.088767
H2    H     H_    0.953452 0.216545 0.513258 0.111988
H3    H     H_    0.801749 0.016864 0.695918 0.107564
H4    H     H_    0.647388 0.342628 0.176161 0.089788
H5    H     H_    0.812467 0.853168 0.533203 0.108053
H6    H     H_    0.713695 0.475867 0.495779 0.116340
H7    H     H_    0.553920 0.474813 0.654912 0.134812
H8    H     H_    0.529859 0.284359 0.302893 0.143346
H9    H     H_    0.434918 0.499834 0.136037 0.101450
H10   H     H_    0.857997 0.972506 0.980089 0.133628
H11   H     H_    0.912808 0.056012 0.175863 0.124395
H12   H     H_    0.844969 0.146928 0.827093 0.086390
H13   H     H_    0.743123 0.639501 0.920728 0.108888
H14   H     H_    0.889881 0.693381 0.379941 0.091750
H15   H     H_    0.603513 0.455709 0.114422 0.103472
H16   H     H_    0.065178 0.890925 0.202777 0.087210
H17   H     H_    0.843289 0.505735 0.356720 0.085015
H18   H     H_    0.886976 0.733756 0.878388 0.091446
H19   H     H_    0.329541 0.189584 0.563479 0.146926
H20   H     H_    0.430257 0.105889 0.418898 0.140440
H21   H     H_    0.275290 0.113853 0.463946 0.185929
H22   H     H_    0.643189 0.808400 0.120191 0.144962
H23   H     H_    0.192824 0.387712 0.620466 0.163382
H24   H     H_    0.506626 0.824088 0.240535 0.131272
H25   H     H_    0.522031 0.903965 0.166924 0.173156
H26   H     H_    0.313653 0.716148 0.981395 0.097169
H27   H     H_    0.449184 0.655603 0.929781 0.119440
H28   H     H_    0.158897 0.266622 0.077581 0.100648
H29   H     H_    0.967481 0.103830 0.890338 0.092843
H30   H     H_    0.391011 0.537383 0.803810 0.087816
H31   H     H_    0.218036 0.453915 0.171483 0.111949
H32   H     H_    0.001769 0.338691 0.643034 0.090703
H33   H     H_    0.963940 0.052154 0.350108 0.105556
N1    N     N_R   0.037310 0.720000 0.995790 -0.043696
N2    N     N_R   0.824890 0.517960 0.936420 -0.038909
N3    N     N_R   0.003210 0.648190 0.211380 -0.036998
N4    N     N_R   0.774330 0.457010 0.995840 -0.029539
N5    N     N_R   0.053760 0.709140 0.151960 -0.039761
N6    N     N_R   0.853860 0.498840 0.211410 -0.038462
N7    N     N_R   0.974240 0.667310 0.936390 -0.039468
N8    N     N_R   0.225670 0.542990 0.004160 -0.067364
N9    N     N_3   0.367867 0.683403 0.998708 -0.157669
N10   N     N_R   0.946240 0.290860 0.848040 -0.039169
N11   N     N_R   0.146140 0.501160 0.788590 -0.049752
N12   N     N_R   0.025760 0.332690 0.063610 -0.039329
N13   N     N_R   0.962690 0.280000 0.004210 -0.042645
N14   N     N_R   0.209210 0.553840 0.847990 -0.046485
N15   N     N_R   0.175110 0.482040 0.063580 -0.046911
N16   N     N_R   0.996790 0.351810 0.788620 -0.040953
N17   N     N_R   0.790790 0.446160 0.152010 -0.038629
Ni1   Ni    Ni4+2 0.130310 0.630310 0.999970 0.209017
Ni2   Ni    Ni4+2 0.869690 0.369690 0.000030 0.211526
Ni3   Ni    Ni4+2 0.985640 0.509470 0.863740 0.207698
Ni4   Ni    Ni4+2 0.014360 0.490530 0.136260 0.210693
O1    O     O_3   0.350808 0.260834 0.459118 -0.641613
O2    O     O_3   0.503074 0.732072 0.088720 -0.617463

loop_
_geom_bond_atom_site_label_1
_geom_bond_atom_site_label_2
_ccdc_geom_bond_type
N12   N13   A    
C38   N8    A    
C27   C29   D    
C19   C20   A    
C15   H5    S    
C3    C6    A    
N10   N16   A    
C31   N5    A    
C4    H4    S    
C32   N6    A    
C9    C42   A    
C8    C20   S    
C3    N15   A    
C18   C24   A    
C31   H16   S    
C18   C19   A    
C36   H20   S    
C6    C25   S    
C10   C17   A    
N8    Ni1   S    
C30   H15   S    
C16   N2    A    
C10   H33   S    
C23   C26   S    
C40   N11   A    
C5    H32   S    
N6    N17   A    
C1    H1    S    
N3    Ni4   S    
C6    C38   A    
C36   O1    S    
C4    C12   A    
C36   H21   S    
C28   N3    A    
C33   N7    A    
C22   H8    S    
C28   C34   A    
C13   C14   A    
C12   C32   A    
C2    H30   S    
C37   O2    S    
C14   H3    S    
N2    N4    A    
C28   H14   S    
C41   N12   A    
N13   Ni2   S    
H26   N9    S    
C23   C30   A    
N4    Ni2   S    
N11   Ni3   S    
N1    N7    A    
C5    C7    A    
N6    Ni4   S    
C27   C35   S    
C25   C26   D    
N2    Ni3   S    
C2    N14   A    
C25   H9    S    
N1    Ni1   S    
C21   O1    S    
N10   Ni2   S    
C19   H7    S    
N12   Ni4   S    
N17   Ni2   S    
C31   C34   A    
C11   H2    S    
C5    N16   A    
C26   O2    S    
C30   N4    A    
C16   C23   A    
C40   H23   S    
C22   C24   A    
C42   N13   A    
C17   C34   S    
C39   N10   A    
C36   H19   S    
C37   H22   S    
C27   H10   S    
C1    C35   A    
C15   C17   A    
N8    N15   A    
N7    Ni3   S    
C38   N9    S    
C1    N1    A    
C2    C8    A    
N11   N14   A    
C18   H6    S    
N15   Ni4   S    
C33   H18   S    
C12   C24   S    
C9    C41   A    
C16   H13   S    
H27   N9    S    
C11   C13   A    
C29   H11   S    
C37   H25   S    
C42   H29   S    
C33   C35   A    
N3    N5    A    
C37   H24   S    
N14   Ni1   S    
C3    H31   S    
C10   C11   A    
N16   Ni3   S    
C39   H12   S    
C7    C13   S    
C20   C21   A    
C7    C39   A    
C14   C15   A    
C8    C40   A    
C32   H17   S    
N5    Ni1   S    
C21   C22   A    
C41   H28   S    
C4    N17   A    
