data_mof_unit_34230.cif
_audit_creation_date              2012-12-11T15:43:01-0500
_audit_creation_method            fapswitch 2.2
_symmetry_space_group_name_H-M    P1
_symmetry_Int_Tables_number       1
_space_group_crystal_system       triclinic
_cell_length_a                    19.031088
_cell_length_b                    10.947939
_cell_length_c                    18.8161
_cell_angle_alpha                 90.04045
_cell_angle_beta                  90.085681
_cell_angle_gamma                 89.847021
_cell_volume                      3920.33751288

loop_
_atom_site_label
_atom_site_type_symbol
_atom_type_description
_atom_site_fract_x
_atom_site_fract_y
_atom_site_fract_z
_atom_type_partial_charge
C1    C     C_R   0.711770 0.330357 0.138527 0.551618
C2    C     C_R   0.269747 0.376729 0.853947 0.541585
C3    C     C_R   0.211774 0.830368 0.138526 0.554190
C4    C     C_R   0.769746 0.876738 0.853944 0.539821
C5    C     C_R   0.486374 0.397158 0.933400 -0.086357
C6    C     C_R   0.468106 0.374662 0.079580 -0.092666
C7    C     C_R   0.986422 0.897157 0.933375 -0.086400
C8    C     C_R   0.968154 0.874695 0.079555 -0.094023
C9    C     C_R   0.971389 0.999958 0.974479 -0.140132
C10   C     C_R   0.960447 0.988177 0.047108 -0.126918
C11   C     C_R   0.471326 0.499945 0.974513 -0.139704
C12   C     C_R   0.460383 0.488146 0.047140 -0.128016
C13   C     C_R   0.746305 0.923902 0.921836 0.020120
C14   C     C_R   0.222263 0.846512 0.062236 0.011893
C15   C     C_R   0.246311 0.423851 0.921850 0.019456
C16   C     C_R   0.722252 0.346481 0.062233 0.011793
C17   C     C_R   0.697124 0.860161 0.963128 0.005541
C18   C     C_R   0.287481 0.826837 0.030134 0.005020
C19   C     C_R   0.197178 0.360024 0.963156 0.004519
C20   C     C_R   0.787464 0.326767 0.030124 0.004470
C21   C     C_R   0.694674 0.875782 0.036108 0.007722
C22   C     C_R   0.297885 0.853264 0.959021 0.004937
C23   C     C_R   0.194731 0.375647 0.036136 0.006368
C24   C     C_R   0.797869 0.353206 0.959013 0.005082
C25   C     C_R   0.785541 0.027553 0.027469 -0.141820
C26   C     C_R   0.175232 0.902738 0.946465 -0.154544
C27   C     C_R   0.285513 0.527569 0.027471 -0.142292
C28   C     C_R   0.675225 0.402756 0.946469 -0.154391
C29   C     C_R   0.785442 0.016757 0.954070 -0.140729
C30   C     C_R   0.164998 0.876748 0.018501 -0.154482
C31   C     C_R   0.285411 0.516761 0.954073 -0.140445
C32   C     C_R   0.664989 0.376750 0.018503 -0.154007
C33   C     C_3   0.683413 0.726087 0.969346 -0.246613
C34   C     C_3   0.358397 0.872856 0.050748 -0.264074
C35   C     C_3   0.183565 0.225920 0.969386 -0.248076
C36   C     C_3   0.858397 0.372715 0.050733 -0.263435
C37   C     C_3   0.679852 0.743970 0.049141 -0.274775
C38   C     C_3   0.369742 0.902396 0.972847 -0.259792
C39   C     C_3   0.180007 0.243806 0.049180 -0.271632
C40   C     C_3   0.869743 0.402268 0.972834 -0.259829
C41   C     C_R   0.743701 0.950636 0.069747 0.020601
C42   C     C_R   0.243322 0.900696 0.917413 0.009866
C43   C     C_R   0.243717 0.450595 0.069761 0.020729
C44   C     C_R   0.743315 0.400690 0.917413 0.010468
C45   C     C_R   0.532246 0.154721 0.146224 0.540549
C46   C     C_R   0.469067 0.156571 0.852898 0.536425
C47   C     C_R   0.032255 0.654722 0.146217 0.529988
C48   C     C_R   0.969074 0.656570 0.852893 0.533003
C49   C     C_R   0.489859 0.167934 0.572251 -0.027007
C50   C     C_R   0.502968 0.161246 0.423703 0.026155
C51   C     C_R   0.985870 0.669806 0.571234 -0.029134
C52   C     C_R   0.998867 0.664257 0.422535 -0.001619
C53   C     C_R   0.507866 0.060390 0.537173 -0.014592
C54   C     C_R   0.516238 0.058084 0.465170 -0.021618
C55   C     C_R   0.992014 0.560715 0.535007 -0.042085
C56   C     C_R   0.999990 0.557911 0.463230 0.041562
C57   C     C_R   0.483766 0.271077 0.456853 0.225930
C58   C     C_R   0.480931 0.276535 0.531538 0.196931
C59   C     C_R   0.981382 0.775521 0.456234 0.201092
C60   C     C_R   0.978277 0.779697 0.531279 0.214925
C61   C     C_3   0.472600 0.937895 0.537384 -0.230343
C62   C     C_3   0.484132 0.934137 0.458155 -0.241681
C63   C     C_3   0.043609 0.461067 0.547719 -0.230168
C64   C     C_3   0.054227 0.458917 0.468321 -0.202801
C65   C     C_R   0.752099 0.912763 0.575388 0.016250
C66   C     C_R   0.249488 0.920651 0.422036 0.048058
C67   C     C_R   0.255735 0.399196 0.571740 -0.012731
C68   C     C_R   0.750204 0.435943 0.418915 0.022065
C69   C     C_R   0.803945 0.976558 0.539772 0.047934
C70   C     C_R   0.223852 0.849965 0.477516 -0.061278
C71   C     C_R   0.305279 0.469505 0.537155 0.057873
C72   C     C_R   0.696234 0.489289 0.458831 -0.022069
C73   C     C_R   0.804723 0.983465 0.467155 0.074401
C74   C     C_R   0.233372 0.881725 0.547194 0.007261
C75   C     C_R   0.308322 0.476459 0.464942 0.115868
C76   C     C_R   0.700989 0.496929 0.531073 0.045891
C77   C     C_R   0.700629 0.859052 0.460780 -0.129161
C78   C     C_R   0.299669 0.057755 0.510394 -0.124585
C79   C     C_R   0.211702 0.336139 0.455083 -0.113247
C80   C     C_R   0.820120 0.425960 0.526824 -0.139106
C81   C     C_R   0.699957 0.851546 0.535001 0.198247
C82   C     C_R   0.290517 0.023890 0.438509 0.193926
C83   C     C_R   0.210238 0.325279 0.529327 0.163245
C84   C     C_R   0.815581 0.416219 0.452222 0.181577
C85   C     C_3   0.823481 0.107106 0.549649 -0.267957
C86   C     C_3   0.152486 0.800347 0.490434 -0.267137
C87   C     C_3   0.324559 0.599733 0.548351 -0.266375
C88   C     C_3   0.620472 0.454109 0.464015 -0.208893
C89   C     C_R   0.739955 0.975004 0.145353 0.537651
C90   C     C_R   0.258140 0.967558 0.851978 0.537757
C91   C     C_R   0.239963 0.474978 0.145363 0.548859
C92   C     C_R   0.758142 0.467565 0.851984 0.531666
C93   C     C_3   0.825605 0.114970 0.469814 -0.196325
C94   C     C_3   0.162532 0.835519 0.567852 -0.226803
C95   C     C_3   0.331700 0.607048 0.468445 -0.233530
C96   C     C_3   0.627241 0.460722 0.543568 -0.209723
C97   C     C_R   0.752073 0.928794 0.426419 -0.023606
C98   C     C_R   0.267666 0.988971 0.564834 0.024030
C99   C     C_R   0.257085 0.419882 0.423056 0.012045
C100  C     C_R   0.759640 0.456441 0.566848 -0.035518
C101  C     C_R   0.730563 0.381901 0.351023 0.569398
C102  C     C_R   0.270756 0.374782 0.646131 0.552810
C103  C     C_R   0.231193 0.882557 0.350574 0.600541
C104  C     C_R   0.769704 0.878356 0.647660 0.568538
C105  C     C_R   0.530643 0.156770 0.352256 0.611175
C106  C     C_R   0.464874 0.157439 0.644815 0.563460
C107  C     C_R   0.031350 0.657293 0.352851 0.577432
C108  C     C_R   0.966088 0.658205 0.645420 0.565394
C109  C     C_R   0.741363 0.972637 0.354759 0.552640
C110  C     C_R   0.272813 0.024040 0.638726 0.566558
C111  C     C_R   0.242416 0.470269 0.353602 0.571497
C112  C     C_R   0.761464 0.479801 0.642529 0.551700
C113  C     C_R   0.500176 0.170271 0.923844 -0.004573
C114  C     C_R   0.508188 0.160108 0.072424 -0.002681
C115  C     C_R   0.000195 0.670267 0.923833 -0.003961
C116  C     C_R   0.008206 0.660116 0.072414 -0.004388
C117  C     C_R   0.491364 0.279565 0.964548 0.024232
C118  C     C_R   0.488397 0.271017 0.039611 0.003720
C119  C     C_R   0.991398 0.779568 0.964530 0.024689
C120  C     C_R   0.988431 0.771032 0.039594 0.003262
C121  C     C_R   0.523806 0.057351 0.030419 -0.152617
C122  C     C_R   0.520239 0.062598 0.957651 -0.165167
C123  C     C_R   0.023818 0.557352 0.030412 -0.151936
C124  C     C_R   0.020249 0.562591 0.957644 -0.165297
Cr1   Cr    Cr6+3 0.772010 0.169670 0.250090 1.074637
Cr2   Cr    Cr6+3 0.227990 0.169670 0.749910 1.062386
Cr3   Cr    Cr6+3 0.272010 0.669670 0.250090 1.039850
Cr4   Cr    Cr6+3 0.727990 0.669670 0.749910 1.070466
Cr5   Cr    Cr6+3 0.615000 0.323260 0.249260 1.048343
Cr6   Cr    Cr6+3 0.385000 0.323260 0.750740 1.053563
Cr7   Cr    Cr6+3 0.115000 0.823260 0.249260 1.073520
Cr8   Cr    Cr6+3 0.885000 0.823260 0.750740 1.060743
Cr9   Cr    Cr6+3 0.616710 0.010760 0.250840 1.021816
Cr10  Cr    Cr6+3 0.383290 0.010760 0.749160 1.019515
Cr11  Cr    Cr6+3 0.116710 0.510760 0.250840 1.047672
Cr12  Cr    Cr6+3 0.883290 0.510760 0.749160 1.021197
H1    H     H_    0.540631 0.971496 0.053542 0.150954
H2    H     H_    0.529576 0.979317 0.927888 0.139781
H3    H     H_    0.040636 0.471495 0.053538 0.151641
H4    H     H_    0.029575 0.479304 0.927883 0.138949
H5    H     H_    0.017838 0.377387 0.568472 0.210520
H6    H     H_    0.106774 0.492457 0.452298 0.120930
H7    H     H_    0.416288 0.942177 0.551962 0.144019
H8    H     H_    0.523250 0.864067 0.441724 0.171924
H9    H     H_    0.502308 0.867722 0.567052 0.223205
H10   H     H_    0.434593 0.934252 0.426845 0.174549
H11   H     H_    0.090642 0.492213 0.577821 0.144990
H12   H     H_    0.037388 0.371924 0.443183 0.226155
H13   H     H_    0.658365 0.817675 0.430640 0.159809
H14   H     H_    0.329336 0.139078 0.523482 0.135197
H15   H     H_    0.173355 0.287524 0.423279 0.184707
H16   H     H_    0.869525 0.406354 0.553060 0.170643
H17   H     H_    0.875756 0.119121 0.574893 0.218100
H18   H     H_    0.150039 0.700111 0.481619 0.103880
H19   H     H_    0.374944 0.612705 0.576992 0.217872
H20   H     H_    0.611321 0.359592 0.445006 0.158627
H21   H     H_    0.780486 0.162292 0.573735 0.111383
H22   H     H_    0.111956 0.855797 0.462991 0.220259
H23   H     H_    0.279954 0.653128 0.570030 0.121108
H24   H     H_    0.585471 0.525815 0.441567 0.216004
H25   H     H_    0.784128 0.175717 0.447995 0.148355
H26   H     H_    0.126656 0.909654 0.585578 0.240714
H27   H     H_    0.293938 0.668874 0.442662 0.144164
H28   H     H_    0.595611 0.534616 0.567901 0.256563
H29   H     H_    0.879400 0.128853 0.448595 0.255509
H30   H     H_    0.165611 0.755364 0.603954 0.121995
H31   H     H_    0.386922 0.619140 0.450758 0.210103
H32   H     H_    0.623033 0.370246 0.570117 0.135997
H33   H     H_    0.497801 0.412914 0.877995 0.139555
H34   H     H_    0.458311 0.369167 0.136075 0.153039
H35   H     H_    0.997851 0.912894 0.877968 0.139885
H36   H     H_    0.958357 0.869220 0.136049 0.148168
H37   H     H_    0.967816 0.089049 0.949775 0.101680
H38   H     H_    0.947211 0.067629 0.078673 0.114629
H39   H     H_    0.467741 0.589040 0.949814 0.101956
H40   H     H_    0.447136 0.567586 0.078711 0.112067
H41   H     H_    0.820329 0.093945 0.051106 0.142849
H42   H     H_    0.131225 0.936083 0.915567 0.135559
H43   H     H_    0.320271 0.594017 0.051101 0.142755
H44   H     H_    0.631221 0.436130 0.915577 0.135158
H45   H     H_    0.821907 0.071825 0.923762 0.140650
H46   H     H_    0.113418 0.888919 0.041150 0.152477
H47   H     H_    0.321843 0.571879 0.923755 0.140981
H48   H     H_    0.613410 0.388936 0.041154 0.152405
H49   H     H_    0.229412 0.169634 0.952922 0.159626
H50   H     H_    0.893257 0.298408 0.070382 0.132760
H51   H     H_    0.729223 0.669703 0.952891 0.159535
H52   H     H_    0.393277 0.798585 0.070407 0.129982
H53   H     H_    0.632229 0.699456 0.945457 0.140139
H54   H     H_    0.355919 0.955358 0.085200 0.161385
H55   H     H_    0.132395 0.199174 0.945508 0.140016
H56   H     H_    0.855948 0.455210 0.085192 0.157729
H57   H     H_    0.626347 0.729473 0.071162 0.142614
H58   H     H_    0.373316 0.002106 0.962297 0.157336
H59   H     H_    0.126517 0.229195 0.071213 0.145049
H60   H     H_    0.873346 0.501977 0.962293 0.157477
H61   H     H_    0.722918 0.696850 0.078399 0.148387
H62   H     H_    0.411346 0.845544 0.947734 0.136121
H63   H     H_    0.223112 0.196784 0.078433 0.154570
H64   H     H_    0.911328 0.345385 0.947711 0.135741
O1    O     O_R   0.787520 0.042810 0.170440 -0.529822
O2    O     O_R   0.212480 0.042810 0.829560 -0.529271
O3    O     O_R   0.287520 0.542810 0.170440 -0.528834
O4    O     O_R   0.712480 0.542810 0.829560 -0.531679
O5    O     O_R   0.556610 0.252880 0.323980 -0.463272
O6    O     O_R   0.443390 0.252880 0.676020 -0.443648
O7    O     O_R   0.056610 0.752880 0.323980 -0.459398
O8    O     O_R   0.943390 0.752880 0.676020 -0.444723
O9    O     O_R   0.545950 0.051210 0.330860 -0.515972
O10   O     O_R   0.454050 0.051210 0.669140 -0.525623
O11   O     O_R   0.045950 0.551210 0.330860 -0.495392
O12   O     O_R   0.954050 0.551210 0.669140 -0.523060
O13   O     O_R   0.681390 0.959480 0.325510 -0.513806
O14   O     O_R   0.318610 0.959480 0.674490 -0.518672
O15   O     O_R   0.181390 0.459480 0.325510 -0.514278
O16   O     O_R   0.818610 0.459480 0.674490 -0.515907
O17   O     O_3   0.667900 0.167900 0.250060 -0.293941
O18   O     O_3   0.332100 0.167900 0.749940 -0.289222
O19   O     O_3   0.167900 0.667900 0.250060 -0.296514
O20   O     O_3   0.832100 0.667900 0.749940 -0.268128
O21   O     O_R   0.765640 0.292100 0.175020 -0.494425
O22   O     O_R   0.234360 0.292100 0.824980 -0.505186
O23   O     O_R   0.265640 0.792100 0.175020 -0.497274
O24   O     O_R   0.734360 0.792100 0.824980 -0.504652
O25   O     O_R   0.670190 0.408840 0.168540 -0.516560
O26   O     O_R   0.329810 0.408840 0.831460 -0.522692
O27   O     O_R   0.170190 0.908840 0.168540 -0.507975
O28   O     O_R   0.829810 0.908840 0.831460 -0.525514
O29   O     O_R   0.556620 0.251410 0.175160 -0.521148
O30   O     O_R   0.443380 0.251410 0.824840 -0.510508
O31   O     O_R   0.056620 0.751410 0.175160 -0.525209
O32   O     O_R   0.943380 0.751410 0.824840 -0.512530
O33   O     O_R   0.545960 0.049620 0.170320 -0.518033
O34   O     O_R   0.454040 0.049620 0.829680 -0.519813
O35   O     O_R   0.045960 0.549620 0.170320 -0.514673
O36   O     O_R   0.954040 0.549620 0.829680 -0.523327
O37   O     O_R   0.681390 0.958010 0.176690 -0.499762
O38   O     O_R   0.318610 0.958010 0.823310 -0.493915
O39   O     O_R   0.181390 0.458010 0.176690 -0.493730
O40   O     O_R   0.818610 0.458010 0.823310 -0.497820
O41   O     O_R   0.787510 0.044390 0.330970 -0.477574
O42   O     O_R   0.212490 0.044390 0.669030 -0.450647
O43   O     O_R   0.287510 0.544390 0.330970 -0.488599
O44   O     O_R   0.712490 0.544390 0.669030 -0.470149
O45   O     O_R   0.765630 0.293570 0.323840 -0.452371
O46   O     O_R   0.234370 0.293570 0.676160 -0.465835
O47   O     O_R   0.265630 0.793570 0.323840 -0.510005
O48   O     O_R   0.734370 0.793570 0.676160 -0.441931
O49   O     O_R   0.670190 0.410420 0.329080 -0.520293
O50   O     O_R   0.329810 0.410420 0.670920 -0.477820
O51   O     O_R   0.170190 0.910420 0.329080 -0.473010
O52   O     O_R   0.829810 0.910420 0.670920 -0.487797
Cl1   Cl    Cl    0.460309 0.399253 0.404776 -0.574618
Cl2   Cl    Cl    0.465689 0.419711 0.571451 -0.616216
Cl3   Cl    Cl    0.969889 0.911115 0.406423 -0.539786
Cl4   Cl    Cl    0.974537 0.924292 0.572878 -0.556921
Cl5   Cl    Cl    0.629970 0.772953 0.574310 -0.666240
Cl6   Cl    Cl    0.326283 0.115618 0.371076 -0.612583
Cl7   Cl    Cl    0.147214 0.224105 0.564235 -0.594162
Cl8   Cl    Cl    0.889661 0.371328 0.402867 -0.631275

loop_
_geom_bond_atom_site_label_1
_geom_bond_atom_site_label_2
_ccdc_geom_bond_type
C10   H38   S    
Cr11  O11   S    
C55   C56   A    
C88   C96   S    
C67   C83   A    
Cr10  O10   S    
C116  C123  A    
C7    H35   S    
Cr2   O46   S    
Cr9   O9    S    
C5    C117  A    
C14   C18   A    
C89   O1    A    
C102  O46   A    
C73   C93   S    
C90   O2    A    
C108  O8    A    
Cr7   O7    S    
C94   H30   S    
C75   C95   S    
C123  C124  A    
C74   C98   A    
C22   C42   A    
C53   C54   A    
Cr2   O2    S    
C15   C19   A    
C26   C42   A    
Cr11  O19   S    
C50   C54   A    
C29   H45   S    
C104  O52   A    
Cr2   O42   S    
C46   O34   A    
C112  O16   A    
C13   C29   A    
C69   C73   A    
C110  O14   A    
C111  O15   A    
Cr8   O52   S    
C5    C11   A    
C6    H34   S    
C95   H27   S    
Cr8   O28   S    
C6    C12   A    
C27   H43   S    
C65   C69   A    
C107  O11   A    
Cr6   O30   S    
C37   H57   S    
C1    O25   A    
C22   C38   S    
C123  H3    S    
Cr2   O22   S    
C60   Cl4   S    
C91   O3    A    
Cr5   O5    S    
C82   Cl6   S    
C53   C61   S    
Cr7   O19   S    
Cr4   O4    S    
C121  H1    S    
C4    C13   S    
Cr6   O18   S    
C78   C82   A    
C43   C91   S    
C1    O21   A    
Cr5   O17   S    
C35   H49   S    
C86   C94   S    
C108  O12   A    
Cr12  O12   S    
C114  C121  A    
C85   C93   S    
C45   C114  S    
C61   H7    S    
Cr11  O15   S    
C113  C122  A    
C20   C24   A    
C52   C107  S    
Cr7   O51   S    
C51   C108  S    
C104  O48   A    
C55   C63   S    
C75   C99   A    
C78   C98   A    
C50   C105  S    
C35   H55   S    
C96   H32   S    
Cr1   O41   S    
C37   H61   S    
C38   H58   S    
C9    C10   A    
Cr4   O20   S    
C107  O7    A    
C44   C92   S    
C2    O22   A    
Cr3   O23   S    
C12   H40   S    
C26   H42   S    
C109  O41   A    
C76   C96   S    
C93   H29   S    
C59   C60   A    
C18   C22   A    
C64   H12   S    
Cr12  O16   S    
Cr10  O38   S    
Cr4   O24   S    
C38   H62   S    
C17   C33   S    
C98   C110  S    
C14   C30   A    
C2    O26   A    
Cr8   O32   S    
C63   H11   S    
C72   C88   S    
C32   H48   S    
C47   O35   A    
C67   C102  S    
Cr6   O50   S    
C36   H56   S    
C25   C29   A    
C47   C116  S    
Cr5   O49   S    
Cr4   O44   S    
C100  C112  S    
C90   O38   A    
Cr3   O19   S    
C80   C84   A    
C68   C84   A    
C89   O37   A    
C76   C100  A    
C28   C32   A    
Cr3   O43   S    
C68   C101  S    
C122  H2    S    
C3    O27   A    
C77   H13   S    
C95   H31   S    
C64   H6    S    
C19   C23   A    
C34   C38   S    
C20   C36   S    
Cr9   O33   S    
C54   C62   S    
C51   C55   A    
C27   C43   A    
Cr10  O18   S    
C59   Cl3   S    
C15   C31   A    
C28   C44   A    
C103  O47   A    
C49   C58   A    
C96   H28   S    
C87   C95   S    
C68   C72   A    
C42   C90   S    
Cr3   O3    S    
Cr4   O48   S    
C47   O31   A    
C35   C39   S    
C70   C74   A    
Cr6   O6    S    
C52   C59   A    
C7    C119  A    
C66   C82   A    
C97   C109  S    
C101  O45   A    
C110  O42   A    
C65   C81   A    
C84   Cl8   S    
C34   H54   S    
C16   C20   A    
C99   C111  S    
Cr7   O27   S    
C56   C64   S    
C63   H5    S    
C79   C99   A    
C72   C76   A    
C33   H51   S    
C1    C16   S    
C85   H17   S    
C113  C117  A    
Cr5   O29   S    
C9    H37   S    
C2    C15   S    
C28   H44   S    
C121  C122  A    
C114  C118  A    
C3    C14   S    
C39   H63   S    
C48   C115  S    
C71   C87   S    
C48   O32   A    
C93   H25   S    
C73   C97   A    
C30   H46   S    
Cr12  O20   S    
Cr12  O40   S    
C27   C31   A    
C24   C44   A    
Cr2   O18   S    
C21   C41   A    
C51   C60   A    
Cr3   O47   S    
C105  O9    A    
C91   O39   A    
C87   H23   S    
C70   C86   S    
C88   H20   S    
C36   C40   S    
C69   C85   S    
C78   H14   S    
Cr8   O8    S    
C33   C37   S    
C40   H60   S    
C79   H15   S    
Cr7   O31   S    
C7    C9    A    
C8    C120  A    
C94   H26   S    
C92   O40   A    
C111  O43   A    
C115  C124  A    
C45   O29   A    
C46   C113  S    
C31   H47   S    
C41   C89   S    
C46   O30   A    
C50   C57   A    
C81   Cl5   S    
C66   C103  S    
C124  H4    S    
C101  O49   A    
C71   C75   A    
Cr11  O35   S    
C45   O33   A    
C92   O4    A    
C106  O6    A    
C88   H24   S    
C119  C120  A    
C86   H22   S    
C105  O5    A    
C49   C106  S    
C34   H52   S    
C87   H19   S    
Cr1   O21   S    
C16   C32   A    
C83   Cl7   S    
C40   H64   S    
C115  C119  A    
Cr10  O14   S    
C13   C17   A    
C103  O51   A    
C86   H18   S    
Cr9   O13   S    
C4    O24   A    
C117  C118  A    
Cr1   O1    S    
C79   C83   A    
C57   C58   A    
C66   C70   A    
C39   H59   S    
C18   C34   S    
C102  O50   A    
C23   C39   S    
C52   C56   A    
Cr12  O36   S    
C36   H50   S    
C61   H9    S    
C11   H39   S    
C48   O36   A    
Cr11  O39   S    
C58   Cl2   S    
C67   C71   A    
C4    O28   A    
C57   Cl1   S    
C61   C62   S    
C77   C81   A    
C17   C21   A    
C24   C40   S    
C49   C53   A    
Cr1   O17   S    
C109  O13   A    
C63   C64   S    
Cr9   O37   S    
C116  C120  A    
C112  O44   A    
C21   C37   S    
Cr6   O26   S    
C8    C10   A    
Cr1   O45   S    
C62   H10   S    
Cr5   O25   S    
C74   C94   S    
C85   H21   S    
C3    O23   A    
C5    H33   S    
C25   C41   A    
C19   C35   S    
C77   C97   A    
C65   C104  S    
Cr8   O20   S    
C80   H16   S    
C23   C43   A    
C25   H41   S    
C33   H53   S    
C6    C118  A    
C80   C100  A    
C8    H36   S    
C11   C12   A    
C62   H8    S    
Cr9   O17   S    
Cr10  O34   S    
C26   C30   A    
C106  O10   A    
