data_mof_unit_14146.cif
_audit_creation_date              2013-03-05T15:47:57-0500
_audit_creation_method            fapswitch 2.2
_symmetry_space_group_name_H-M    P1
_symmetry_Int_Tables_number       1
_space_group_crystal_system       triclinic
_cell_length_a                    26.859567
_cell_length_b                    7.137936
_cell_length_c                    12.79694
_cell_angle_alpha                 91.197271
_cell_angle_beta                  106.474792
_cell_angle_gamma                 89.658595
_cell_volume                      2352.21211137

loop_
_atom_site_label
_atom_site_type_symbol
_atom_site_description
_atom_site_fract_x
_atom_site_fract_y
_atom_site_fract_z
_atom_type_partial_charge
O1    O     O_R   0.437360 0.505910 0.042120 -0.569048
O2    O     O_R   0.562640 0.005910 0.957880 -0.565872
O3    O     O_R   0.542480 0.176660 0.157100 -0.576076
O4    O     O_R   0.457520 0.676660 0.842900 -0.560619
C1    C     C_R   0.557208 0.344808 0.196029 0.998487
C2    C     C_R   0.442523 0.843060 0.804436 0.952364
O5    O     O_R   0.436520 0.176250 0.054800 -0.616771
O6    O     O_R   0.563480 0.676250 0.945200 -0.571906
O7    O     O_R   0.455920 0.005040 0.854840 -0.602186
O8    O     O_R   0.544080 0.505040 0.145160 -0.600907
C3    C     C_R   0.418032 0.345292 0.061370 1.103119
C4    C     C_R   0.581101 0.844224 0.934619 1.049597
O9    O     O_3   0.506490 0.338900 0.934520 -0.268770
O10   O     O_3   0.493510 0.838900 0.065480 -0.291817
V1    V     V_3+5 0.498800 0.064400 0.012150 1.291106
V2    V     V_3+5 0.501200 0.564400 0.987850 1.323410
C5    C     C_R   0.677454 0.747971 0.777949 -0.293435
C6    C     C_R   0.321714 0.225622 0.206523 -0.326639
H1    H     H_    0.768704 0.721216 0.749488 0.140847
H2    H     H_    0.232256 0.119749 0.219752 0.177224
H3    H     H_    0.678252 0.684792 0.700556 0.163566
H4    H     H_    0.321268 0.174294 0.285470 0.176053
C7    C     C_R   0.628976 0.847641 0.901636 -0.430839
C8    C     C_R   0.369036 0.347576 0.089023 -0.408116
C9    C     C_R   0.869707 0.911241 0.198393 -0.351911
C10   C     C_R   0.126552 0.410421 0.796530 -0.341552
C11   C     C_R   0.823768 0.937965 0.226383 0.631371
C12   C     C_R   0.170159 0.395501 0.757501 0.609484
C13   C     C_R   0.776789 0.953231 0.145460 -0.294911
C14   C     C_R   0.218898 0.362347 0.829246 -0.264115
C15   C     C_R   0.772710 0.911521 0.036042 0.063714
C16   C     C_R   0.224786 0.330811 0.940266 0.069433
C17   C     C_R   0.819645 0.870537 0.009005 0.052131
C18   C     C_R   0.178587 0.303331 0.971825 0.068787
C19   C     C_R   0.723530 0.888349 0.955085 -0.019477
C20   C     C_R   0.274325 0.314489 0.020074 -0.024736
C21   C     C_R   0.723499 0.805498 0.853778 0.058980
C22   C     C_R   0.275449 0.240502 0.122849 0.088909
C23   C     C_R   0.769701 0.778367 0.828091 -0.099559
C24   C     C_R   0.229971 0.187200 0.144367 -0.136730
C25   C     C_R   0.817025 0.820396 0.902069 -0.130950
C26   C     C_R   0.182135 0.220947 0.071343 -0.216112
C27   C     C_R   0.674363 0.929449 0.972133 0.273114
C28   C     C_R   0.322441 0.375296 0.005596 0.245483
C29   C     C_R   0.630486 0.760288 0.802737 0.358495
C30   C     C_R   0.368471 0.280256 0.190983 0.347466
C31   C     C_R   0.868236 0.875830 0.089990 -0.227258
C32   C     C_R   0.129815 0.356706 0.902140 -0.233585
H5    H     H_    0.906315 0.912301 0.261452 0.170893
H6    H     H_    0.089386 0.450182 0.742199 0.171825
H7    H     H_    0.743832 0.977783 0.174081 0.209393
H8    H     H_    0.250658 0.347052 0.794004 0.194195
H9    H     H_    0.851928 0.801177 0.877635 0.130789
H10   H     H_    0.147826 0.177070 0.091560 0.164328
C33   C     C_R   0.087570 0.862009 0.310694 -0.441070
C34   C     C_R   0.911604 0.343966 0.690240 -0.435560
C35   C     C_R   0.406573 0.844233 0.694420 -0.127838
C36   C     C_R   0.593003 0.343715 0.306962 -0.129942
C37   C     C_R   0.098040 0.816661 0.502490 -0.407238
C38   C     C_R   0.900162 0.337974 0.495944 -0.397468
C39   C     C_R   0.065108 0.828504 0.395084 0.541847
C40   C     C_R   0.933047 0.333120 0.602493 0.553904
C41   C     C_R   0.141242 0.890780 0.335076 0.445168
C42   C     C_R   0.858714 0.303641 0.672368 0.398570
C43   C     C_R   0.173987 0.827775 0.433970 -0.019827
C44   C     C_R   0.825094 0.294875 0.563156 -0.028344
C45   C     C_R   0.152403 0.813743 0.521877 0.076735
C46   C     C_R   0.846468 0.325340 0.476072 0.094689
C47   C     C_R   0.228348 0.806333 0.450789 -0.061718
C48   C     C_R   0.771287 0.250785 0.536099 -0.124250
C49   C     C_R   0.261875 0.824702 0.559312 -0.010990
C50   C     C_R   0.737737 0.299695 0.433106 -0.027136
C51   C     C_R   0.239063 0.830622 0.646520 -0.143959
C52   C     C_R   0.760400 0.328670 0.348235 -0.165223
C53   C     C_R   0.185454 0.815668 0.627931 -0.077043
C54   C     C_R   0.814263 0.327917 0.368986 -0.093924
C55   C     C_R   0.249124 0.751363 0.363668 0.620710
C56   C     C_R   0.751575 0.126550 0.598443 0.594670
C57   C     C_R   0.303240 0.739292 0.385724 -0.381528
C58   C     C_R   0.698329 0.121709 0.585501 -0.397011
C59   C     C_R   0.336713 0.786069 0.487540 0.069091
C60   C     C_R   0.664009 0.212736 0.498083 0.086015
C61   C     C_R   0.316789 0.826777 0.576748 0.100671
C62   C     C_R   0.683018 0.294936 0.416765 0.089716
C63   C     C_R   0.390522 0.776262 0.502371 -0.019793
C64   C     C_R   0.610574 0.204892 0.485381 -0.060879
C65   C     C_R   0.425125 0.803404 0.605229 -0.115099
C66   C     C_R   0.575515 0.267318 0.390174 -0.088414
C67   C     C_R   0.352926 0.859594 0.680323 -0.124344
C68   C     C_R   0.646623 0.362626 0.321719 -0.148098
H11   H     H_    0.169680 0.814118 0.697050 0.126066
H12   H     H_    0.830771 0.340656 0.301346 0.114117
H13   H     H_    0.340698 0.892502 0.751907 0.137609
H14   H     H_    0.658990 0.421170 0.256004 0.137899
H15   H     H_    0.466395 0.788038 0.615809 0.177431
H16   H     H_    0.534596 0.243095 0.378333 0.193438
H17   H     H_    0.320235 0.676376 0.326665 0.183056
H18   H     H_    0.683626 0.037683 0.639602 0.181906
H19   H     H_    0.081580 0.810722 0.570315 0.152808
H20   H     H_    0.916719 0.339887 0.428488 0.153928
H21   H     H_    0.261792 0.838227 0.730483 0.174466
H22   H     H_    0.737398 0.342861 0.264701 0.174884
H23   H     H_    0.405873 0.742119 0.434551 0.169022
H24   H     H_    0.595778 0.139897 0.546352 0.164457
O11   O     O_R   0.955980 0.206520 0.854760 -0.586260
O12   O     O_R   0.044020 0.706520 0.145240 -0.619077
O13   O     O_R   0.063490 0.536770 0.945200 -0.596325
O14   O     O_R   0.936510 0.036770 0.054800 -0.586145
C69   C     C_R   0.082404 0.367211 0.938564 0.951747
C70   C     C_R   0.917684 0.870490 0.061669 0.979360
O15   O     O_R   0.957530 0.536190 0.842880 -0.619021
O16   O     O_R   0.042470 0.036190 0.157120 -0.605227
O17   O     O_R   0.937350 0.707210 0.042130 -0.614112
O18   O     O_R   0.062650 0.207210 0.957870 -0.615098
C71   C     C_R   0.945067 0.364243 0.802692 1.084673
C72   C     C_R   0.055620 0.869027 0.197030 1.077147
O19   O     O_3   0.993540 0.373870 0.065440 -0.299648
O20   O     O_3   0.006460 0.873870 0.934560 -0.299084
V3    V     V_3+5 0.001200 0.648440 0.987860 1.149249
V4    V     V_3+5 0.998800 0.148440 0.012140 1.172307
N1    N     N_R   0.584296 0.695522 0.723009 0.215070
O21   O     O_R   0.575487 0.745143 0.622112 -0.421991
O22   O     O_R   0.557511 0.558349 0.745044 -0.380598
N2    N     N_R   0.415133 0.272927 0.280155 0.227845
O23   O     O_R   0.449363 0.406214 0.294023 -0.456124
O24   O     O_R   0.420028 0.150122 0.356186 -0.407177
O25   O     O_3   0.011583 0.845442 0.373501 -0.671359
C73   C     C_3   0.989411 0.680103 0.399573 0.176190
H25   H     H_    0.948965 0.711817 0.399879 0.128685
H26   H     H_    0.008566 0.634591 0.483276 0.121394
C74   C     C_3   0.987315 0.524162 0.314375 -0.847068
H27   H     H_    0.975409 0.390040 0.341749 0.214596
H28   H     H_    0.958931 0.561422 0.236243 0.262943
H29   H     H_    0.025847 0.501409 0.300700 0.254658
O26   O     O_3   0.985593 0.299485 0.620970 -0.671701
C75   C     C_3   0.993056 0.109632 0.592231 0.176586
H30   H     H_    0.027429 0.101939 0.562013 0.158379
H31   H     H_    0.960661 0.048813 0.525336 0.129402
C76   C     C_3   0.003989 0.984043 0.690731 -0.854398
H32   H     H_    0.968548 0.968554 0.717328 0.265752
H33   H     H_    0.015588 0.842366 0.668793 0.201008
H34   H     H_    0.035921 0.043833 0.758102 0.270985
O27   O     O_3   0.159903 0.021167 0.277086 -0.696924
C77   C     C_3   0.153522 0.205555 0.315823 0.231047
H35   H     H_    0.120255 0.217167 0.349886 0.102854
H36   H     H_    0.143420 0.302531 0.246639 0.140296
C78   C     C_3   0.203273 0.279737 0.397502 -0.864274
H37   H     H_    0.233684 0.310083 0.357391 0.267787
H38   H     H_    0.194517 0.412122 0.435714 0.256734
H39   H     H_    0.219584 0.179074 0.462756 0.238462
O28   O     O_3   0.843875 0.239236 0.760567 -0.585241
C79   C     C_3   0.818409 0.380861 0.802199 0.247976
H40   H     H_    0.784724 0.432454 0.737255 0.071375
H41   H     H_    0.846589 0.492407 0.839163 0.076391
C80   C     C_3   0.798049 0.303673 0.891888 -0.750416
H42   H     H_    0.830649 0.246424 0.957490 0.246233
H43   H     H_    0.779000 0.416718 0.927434 0.209475
H44   H     H_    0.769009 0.192431 0.857827 0.264774
O29   O     O_3   0.218689 0.641709 0.277931 -0.665349
C81   C     C_3   0.211824 0.713656 0.171935 0.250650
H45   H     H_    0.189581 0.844045 0.158722 0.154287
H46   H     H_    0.186409 0.613156 0.114048 0.137235
C82   C     C_3   0.260872 0.735240 0.135399 -0.953589
H47   H     H_    0.284278 0.855985 0.177117 0.250097
H48   H     H_    0.284927 0.608140 0.152398 0.271159
H49   H     H_    0.249853 0.760195 0.046420 0.268051
O30   O     O_3   0.783260 0.995741 0.664010 -0.598474
C83   C     C_3   0.806366 0.874590 0.601389 0.239921
H50   H     H_    0.811531 0.940111 0.527935 0.157865
H51   H     H_    0.781776 0.748054 0.576203 0.085761
C84   C     C_3   0.860505 0.813281 0.666285 -0.892676
H52   H     H_    0.857920 0.691895 0.715881 0.204317
H53   H     H_    0.883395 0.769016 0.610060 0.208431
H54   H     H_    0.881500 0.927802 0.720111 0.298845
N3    N     N_R   0.669044 0.070541 0.049983 0.222617
O31   O     O_R   0.687553 0.237767 0.046939 -0.436937
O32   O     O_R   0.648842 0.029843 0.127956 -0.451463
N4    N     N_R   0.324582 0.484141 0.914097 0.221651
O33   O     O_R   0.306447 0.654182 0.905129 -0.450660
O34   O     O_R   0.349251 0.421899 0.846344 -0.432955
O35   O     O_3   0.823743 0.924395 0.333607 -0.655506
C85   C     C_3   0.798696 0.754691 0.344979 0.198379
H55   H     H_    0.820762 0.693110 0.422989 0.127275
H56   H     H_    0.799406 0.647600 0.280788 0.099721
C86   C     C_3   0.742080 0.785961 0.345168 -0.946437
H57   H     H_    0.715217 0.754553 0.263335 0.260452
H58   H     H_    0.731497 0.690168 0.402356 0.226531
H59   H     H_    0.735700 0.931675 0.369469 0.282752
O36   O     O_3   0.165982 0.410552 0.648326 -0.633406
C87   C     C_3   0.133878 0.265872 0.588822 0.251074
H60   H     H_    0.119779 0.162628 0.638441 0.080051
H61   H     H_    0.156467 0.184184 0.544781 0.139233
C88   C     C_3   0.087880 0.352046 0.507589 -0.961697
H62   H     H_    0.101404 0.454077 0.457745 0.267141
H63   H     H_    0.064608 0.243122 0.452311 0.226106
H64   H     H_    0.063649 0.422658 0.552929 0.278595

loop_
_geom_bond_atom_site_label_1
_geom_bond_atom_site_label_2
_geom_bond_distance
_ccdc_geom_bond_type
C44   C46   1.411844 A    
C84   H52   1.098659 S    
C66   H16   1.080533 S    
C87   H60   1.117556 S    
C7    C29   1.409971 A    
O12   V3    2.051286 S    
C80   H43   1.109751 S    
C50   C52   1.406676 A    
O13   C69   1.320215 A    
O14   V4    2.069953 S    
C47   C55   1.428401 A    
C78   H37   1.105527 S    
O1    C3    1.317596 A    
C74   H29   1.108005 S    
O2    C4    1.314906 A    
C12   O36   1.375952 S    
C2    O7    1.313190 A    
C41   C43   1.401828 A    
N4    O33   1.300255 A    
C35   C67   1.404411 A    
O26   C75   1.424652 S    
C23   C25   1.382762 A    
O35   C85   1.419040 S    
O5    C3    1.312202 A    
C84   H53   1.111147 S    
C4    C7    1.463204 S    
C56   O30   1.385045 S    
C52   C54   1.394880 A    
C1    C36   1.471708 S    
C16   C20   1.435082 A    
O15   V3    2.043212 S    
C82   H48   1.099711 S    
C5    C29   1.387202 A    
N2    O24   1.301557 A    
C10   H6    1.082427 S    
H2    C24   1.073169 S    
C76   H34   1.109329 S    
C56   C58   1.392857 A    
C83   H51   1.109096 S    
C86   H58   1.106859 S    
C48   C56   1.406379 A    
C33   C72   1.466027 S    
O27   C77   1.423228 S    
C3    C8    1.456372 S    
C7    C27   1.415510 A    
C11   C13   1.392281 A    
C38   C40   1.399653 A    
C47   C49   1.428721 A    
O20   V3    1.782594 S    
C87   C88   1.508180 S    
C37   C45   1.410105 A    
O17   V3    2.062584 S    
C27   N3    1.436758 S    
C83   C84   1.522629 S    
N3    O31   1.301326 A    
C18   C26   1.392322 A    
C43   C45   1.409598 A    
C9    H5    1.080670 S    
C33   C41   1.401244 A    
O28   C79   1.396272 S    
C34   C42   1.403972 A    
O11   V4    2.065477 S    
C19   C27   1.426114 A    
C9    C31   1.394351 A    
C63   H23   1.084223 S    
C53   H11   1.083981 S    
C52   H22   1.078835 S    
C58   H18   1.081773 S    
C51   H21   1.075196 S    
C32   C69   1.476005 S    
C64   H24   1.084045 S    
O6    V2    2.070162 S    
C22   C24   1.383228 A    
C73   H25   1.109452 S    
C80   H44   1.108593 S    
C67   H13   1.078399 S    
C51   C53   1.395630 A    
C2    C35   1.464205 S    
C30   N2    1.437445 S    
C62   C68   1.418793 A    
C77   C78   1.533506 S    
C6    C30   1.385500 A    
O13   V3    2.053424 S    
C59   C61   1.415925 A    
O11   C71   1.309197 A    
C59   C63   1.404840 A    
C68   H14   1.080243 S    
C49   C61   1.427924 A    
C63   C65   1.389798 A    
C38   H20   1.077693 S    
C61   C67   1.419090 A    
C84   H54   1.105591 S    
C37   C39   1.411788 A    
C42   O28   1.386775 S    
C81   C82   1.527325 S    
C82   H49   1.110209 S    
N3    O32   1.302131 A    
O19   V4    1.755134 S    
C28   N4    1.433418 S    
O30   C83   1.421922 S    
O16   V4    2.067984 S    
C88   H63   1.107991 S    
C75   H30   1.098142 S    
C86   H59   1.105646 S    
C29   N1    1.436334 S    
C16   C18   1.425418 A    
C60   C64   1.399170 A    
C5    H3    1.085330 S    
C35   C65   1.393883 A    
C65   H15   1.083133 S    
C85   C86   1.536346 S    
C75   C76   1.520799 S    
C40   O26   1.383662 S    
O4    V2    2.067812 S    
C11   O35   1.377759 S    
C77   H36   1.106223 S    
O15   C71   1.328079 A    
C24   C26   1.380881 A    
O29   C81   1.422593 S    
C79   C80   1.518535 S    
O6    C4    1.315219 A    
C88   H64   1.101046 S    
C78   H39   1.104241 S    
C15   C17   1.425945 A    
C55   C57   1.402379 A    
C39   O25   1.389916 S    
O1    V2    2.071946 S    
C5    C21   1.395894 A    
O2    V1    2.061957 S    
C36   C68   1.405390 A    
C70   O17   1.324872 A    
C25   H9    1.076294 S    
N1    O21   1.301304 A    
C50   C62   1.425130 A    
H1    C23   1.070812 S    
C69   O18   1.319188 A    
C54   H12   1.084224 S    
C58   C60   1.400609 A    
C83   H50   1.102122 S    
C55   O29   1.395601 S    
C60   C62   1.420667 A    
C9    C11   1.390049 A    
C17   C31   1.417956 A    
C34   C40   1.400450 A    
C20   C28   1.427874 A    
O4    C2    1.312085 A    
C45   C53   1.395058 A    
C74   H27   1.105756 S    
C73   C74   1.531694 S    
O3    C1    1.309239 A    
O16   C72   1.314324 A    
O3    V1    2.043042 S    
C19   C21   1.413424 A    
C75   H31   1.115741 S    
C49   C51   1.417118 A    
C13   H7    1.061967 S    
C43   C47   1.422026 A    
C14   H8    1.076143 S    
C87   H61   1.096254 S    
C85   H56   1.114423 S    
C78   H38   1.109339 S    
C6    H4    1.085091 S    
C10   C12   1.400273 A    
C57   H17   1.077164 S    
C79   H41   1.104079 S    
C77   H35   1.101753 S    
C74   H28   1.108152 S    
C73   H26   1.103429 S    
N4    O34   1.301699 A    
C76   H32   1.104920 S    
O25   C73   1.412910 S    
C10   C32   1.391140 A    
C46   C54   1.398235 A    
C31   C70   1.472637 S    
C57   C59   1.392269 A    
C8    C30   1.403948 A    
C81   H45   1.092888 S    
O19   V3    2.251886 S    
O7    V1    2.052723 S    
C17   C25   1.389573 A    
C12   C14   1.391547 A    
C13   C15   1.399004 A    
C42   C44   1.433103 A    
O8    V2    2.067203 S    
C26   H10   1.075309 S    
C20   C22   1.419826 A    
C14   C16   1.406987 A    
C76   H33   1.110202 S    
C86   H57   1.109534 S    
C44   C48   1.422905 A    
C8    C28   1.411822 A    
C37   H19   1.081682 S    
C33   C39   1.403398 A    
C15   C19   1.436939 A    
O5    V1    2.053611 S    
C34   C71   1.469307 S    
O14   C70   1.307230 A    
C64   C66   1.391633 A    
C6    C22   1.396605 A    
O36   C87   1.412530 S    
O20   V4    2.213313 S    
N1    O22   1.300311 A    
C82   H47   1.104503 S    
C1    O8    1.323754 A    
C18   C32   1.414984 A    
C79   H40   1.107813 S    
C38   C46   1.394741 A    
C21   C23   1.382535 A    
C88   H62   1.105981 S    
O9    V2    1.755886 S    
O12   C72   1.317913 A    
C80   H42   1.109784 S    
C41   O27   1.383299 S    
O10   V1    1.783367 S    
C48   C50   1.418761 A    
C36   C66   1.401052 A    
O18   V4    2.072620 S    
C85   H55   1.104852 S    
C81   H46   1.107322 S    
N2    O23   1.301068 A    
