data_mof_unit_39470.cif
_audit_creation_date              2012-12-11T16:28:29-0500
_audit_creation_method            fapswitch 2.2
_symmetry_space_group_name_H-M    P1
_symmetry_Int_Tables_number       1
_space_group_crystal_system       triclinic
_cell_length_a                    16.70183
_cell_length_b                    7.254483
_cell_length_c                    15.099761
_cell_angle_alpha                 89.998411
_cell_angle_beta                  94.400482
_cell_angle_gamma                 89.99965
_cell_volume                      1824.14121021

loop_
_atom_site_label
_atom_site_type_symbol
_atom_type_description
_atom_site_fract_x
_atom_site_fract_y
_atom_site_fract_z
_atom_type_partial_charge
O1    O     O_R   0.663460 0.361760 0.165970 -0.538063
O2    O     O_R   0.336540 0.638240 0.834030 -0.546229
O3    O     O_R   0.836540 0.861760 0.334030 -0.538046
O4    O     O_R   0.163460 0.138240 0.665970 -0.546201
O5    O     O_R   0.827100 0.689870 0.163730 -0.538292
O6    O     O_R   0.172900 0.310130 0.836270 -0.537214
O7    O     O_R   0.672900 0.189870 0.336270 -0.538310
O8    O     O_R   0.327100 0.810130 0.663730 -0.537232
C1    C     C_R   0.853848 0.522943 0.144322 0.746849
C2    C     C_R   0.146865 0.476815 0.856574 0.750162
C3    C     C_R   0.646149 0.022942 0.355674 0.746965
C4    C     C_R   0.353137 0.976817 0.643429 0.750206
O9    O     O_R   0.663490 0.691370 0.155500 -0.531027
O10   O     O_R   0.336510 0.308630 0.844500 -0.527766
O11   O     O_R   0.836510 0.191370 0.344500 -0.531045
O12   O     O_R   0.163490 0.808630 0.655500 -0.527800
O13   O     O_R   0.671770 0.863320 0.325740 -0.528649
O14   O     O_R   0.328230 0.136680 0.674260 -0.526741
O15   O     O_R   0.828230 0.363320 0.174260 -0.528650
O16   O     O_R   0.171770 0.636680 0.825740 -0.526720
C5    C     C_R   0.637182 0.524147 0.132057 0.816220
C6    C     C_R   0.362869 0.476220 0.867828 0.790749
C7    C     C_R   0.862823 0.024141 0.367936 0.816179
C8    C     C_R   0.137133 0.976227 0.632172 0.790707
H1    H     H_    0.126197 0.137034 0.236396 0.174956
H2    H     H_    0.874284 0.899696 0.771234 0.167333
H3    H     H_    0.373791 0.636337 0.263662 0.174782
H4    H     H_    0.625754 0.400578 0.728706 0.167288
O17   O     O_3   0.752910 0.528800 0.305860 -0.380205
O18   O     O_3   0.247090 0.471200 0.694140 -0.378134
O19   O     O_3   0.747090 0.028800 0.194140 -0.380233
O20   O     O_3   0.252910 0.971200 0.805860 -0.378146
V1    V     V_3+5 0.749460 0.803010 0.239640 1.427550
V2    V     V_3+5 0.250540 0.196990 0.760360 1.439141
V3    V     V_3+5 0.750540 0.303010 0.260360 1.427552
V4    V     V_3+5 0.249460 0.696990 0.739640 1.439120
C9    C     C_1   0.467542 0.992810 0.528436 0.000428
C10   C     C_1   0.529399 0.003730 0.467661 0.009255
C11   C     C_1   0.032461 0.492802 0.971568 0.000447
C12   C     C_1   0.970600 0.503730 0.032337 0.009314
C13   C     C_R   0.031708 0.076994 0.321403 0.155633
C14   C     C_R   0.968918 0.965093 0.685123 0.172681
C15   C     C_R   0.468293 0.576669 0.178617 0.155668
C16   C     C_R   0.531091 0.465422 0.814859 0.172621
C17   C     C_R   0.111614 0.085413 0.300542 -0.256546
C18   C     C_R   0.889276 0.934880 0.704958 -0.230796
C19   C     C_R   0.388388 0.584835 0.199501 -0.256410
C20   C     C_R   0.610750 0.435581 0.794999 -0.230779
C21   C     C_R   0.172445 0.014621 0.357557 0.628039
C22   C     C_R   0.826192 0.971137 0.643154 0.620027
C23   C     C_R   0.327581 0.513972 0.142481 0.628023
C24   C     C_R   0.673817 0.471971 0.856799 0.620065
C25   C     C_R   0.154872 0.942130 0.440443 0.130211
C26   C     C_R   0.841478 0.043567 0.559805 0.136316
C27   C     C_R   0.345165 0.441698 0.059557 0.130149
C28   C     C_R   0.658499 0.544130 0.940190 0.136177
C29   C     C_R   0.078277 0.983250 0.472724 -0.131413
C30   C     C_R   0.919712 0.016600 0.528968 -0.132549
C31   C     C_R   0.421739 0.483037 0.027276 -0.131427
C32   C     C_R   0.580284 0.516856 0.971023 -0.132573
C33   C     C_R   0.013044 0.027576 0.409438 0.007418
C34   C     C_R   0.986047 0.988820 0.593829 -0.018296
C35   C     C_R   0.486961 0.527402 0.090567 0.007313
C36   C     C_R   0.513956 0.489005 0.906160 -0.018253
C37   C     C_R   0.065987 0.980159 0.565469 -0.096948
C38   C     C_R   0.932829 0.024357 0.436376 -0.099484
C39   C     C_R   0.434021 0.480133 0.934526 -0.096892
C40   C     C_R   0.567172 0.524388 0.063620 -0.099454
C41   C     C_1   0.415287 0.984802 0.580581 -0.204221
C42   C     C_1   0.582445 0.013165 0.416566 -0.208112
C43   C     C_1   0.084716 0.484794 0.919424 -0.204293
C44   C     C_1   0.917552 0.513169 0.083430 -0.208254
N1    N     N_2   0.205382 0.804999 0.484874 -0.522593
H5    H     H_    0.172094 0.698855 0.508805 0.265719
C45   C     C_3   0.274912 0.732477 0.444749 -0.410150
H6    H     H_    0.303371 0.623266 0.488113 0.161669
H7    H     H_    0.320505 0.841571 0.438708 0.241591
H8    H     H_    0.256856 0.670440 0.378932 0.230899
N2    N     N_2   0.786805 0.172134 0.515014 -0.523876
H9    H     H_    0.817114 0.281870 0.490013 0.266357
C46   C     C_3   0.717767 0.239970 0.557821 -0.422512
H10   H     H_    0.686441 0.346758 0.515284 0.160350
H11   H     H_    0.736980 0.303754 0.622931 0.228422
H12   H     H_    0.674022 0.127880 0.566043 0.247040
N3    N     N_2   0.294700 0.304556 0.015079 -0.522536
H13   H     H_    0.328018 0.198448 0.991162 0.265707
C47   C     C_3   0.225128 0.232004 0.055114 -0.410023
H14   H     H_    0.196686 0.122882 0.011686 0.161624
H15   H     H_    0.179544 0.341117 0.061155 0.241492
H16   H     H_    0.243131 0.169841 0.120917 0.230962
N4    N     N_2   0.713102 0.672753 0.985043 -0.523801
H17   H     H_    0.682738 0.782432 0.010018 0.266350
C48   C     C_3   0.782187 0.740671 0.942349 -0.422348
H18   H     H_    0.813473 0.847385 0.984962 0.160299
H19   H     H_    0.763035 0.804576 0.877248 0.228472
H20   H     H_    0.825941 0.628595 0.934136 0.246942
F1    F     F_    0.750757 0.951467 0.669257 -0.694191
F2    F     F_    0.247419 0.012680 0.328910 -0.695578
F3    F     F_    0.749257 0.452665 0.830658 -0.694230
F4    F     F_    0.252619 0.511774 0.171157 -0.695637
N5    N     N_2   0.972142 0.133853 0.254832 -0.507812
H21   H     H_    0.978169 0.270397 0.237603 0.258420
C49   C     C_3   0.963783 0.014667 0.177728 -0.466163
H22   H     H_    0.907895 0.049901 0.136773 0.205848
H23   H     H_    0.960455 0.868243 0.198528 0.198187
H24   H     H_    0.015412 0.032559 0.136297 0.167860
N6    N     N_2   0.029773 0.986622 0.756354 -0.502683
H25   H     H_    0.050278 0.120350 0.761530 0.264944
C50   C     C_3   0.018251 0.907262 0.842407 -0.502660
H26   H     H_    0.076125 0.908837 0.883773 0.205302
H27   H     H_    0.997253 0.762712 0.834661 0.204477
H28   H     H_    0.974229 0.989820 0.877223 0.178949
N7    N     N_2   0.527845 0.633690 0.245169 -0.507864
H29   H     H_    0.521819 0.770285 0.262306 0.258407
C51   C     C_3   0.536217 0.514698 0.322346 -0.466071
H30   H     H_    0.592131 0.549963 0.363245 0.205899
H31   H     H_    0.539502 0.368214 0.301637 0.198185
H32   H     H_    0.484616 0.532777 0.363801 0.167843
N8    N     N_2   0.470211 0.486713 0.743637 -0.502710
H33   H     H_    0.449680 0.620412 0.738386 0.264979
C52   C     C_3   0.481736 0.407156 0.657628 -0.502670
H34   H     H_    0.423850 0.408523 0.616285 0.205388
H35   H     H_    0.502801 0.262667 0.665458 0.204445
H36   H     H_    0.525704 0.489718 0.622734 0.178937

loop_
_geom_bond_atom_site_label_1
_geom_bond_atom_site_label_2
_ccdc_geom_bond_type
C30   C34   A    
C16   C20   A    
C47   H14   S    
C10   C42   T    
O1    C5    A    
C48   H18   S    
C27   C31   A    
N6    C50   S    
N1    H5    S    
O3    C7    A    
C1    C44   S    
C13   C33   A    
C4    C41   S    
C46   H10   S    
C3    C42   S    
C15   C35   A    
N3    H13   S    
C16   C36   A    
O7    C3    A    
C22   C26   A    
C7    C38   S    
C26   N2    S    
C9    C41   T    
C50   H27   S    
C14   C18   A    
O4    C8    A    
O3    V1    S    
H3    C19   S    
C51   H30   S    
O8    V4    S    
C52   H36   S    
C31   C39   A    
C21   F2    S    
C33   C38   A    
C30   C38   A    
C28   N4    S    
C3    O13   A    
C2    O16   A    
C51   H31   S    
O5    V1    S    
O2    C6    A    
N6    H25   S    
O19   V1    S    
C14   N6    S    
C14   C34   A    
C2    C43   S    
O11   C7    A    
O12   C8    A    
N1    C45   S    
O13   V1    S    
O11   V3    S    
C46   H11   S    
C1    O15   A    
N8    C52   S    
O4    V2    S    
N3    C47   S    
N5    H21   S    
C50   H28   S    
C11   C12   S    
N2    C46   S    
C25   C29   A    
C19   C23   A    
C16   N8    S    
O6    V2    S    
O20   V2    S    
C27   N3    S    
C45   H6    S    
C36   C39   A    
O5    C1    A    
C9    C10   S    
N4    C48   S    
C45   H7    S    
C17   C21   A    
O8    C4    A    
C51   H32   S    
O9    C5    A    
C49   H23   S    
O14   V2    S    
C52   H34   S    
C8    C37   S    
C48   H20   S    
C47   H15   S    
C5    C40   S    
H1    C17   S    
N4    H17   S    
C46   H12   S    
O1    V3    S    
N7    H29   S    
C26   C30   A    
O2    V4    S    
C23   F4    S    
O17   V3    S    
C35   C40   A    
H4    C20   S    
C22   F1    S    
C11   C43   T    
C12   C44   T    
C34   C37   A    
O7    V3    S    
C25   N1    S    
C29   C37   A    
O10   V2    S    
N8    H33   S    
C29   C33   A    
C18   C22   A    
C24   F3    S    
C31   C35   A    
N5    C49   S    
O18   V4    S    
C32   C36   A    
O10   C6    A    
O15   V3    S    
C50   H26   S    
O12   V4    S    
C21   C25   A    
C13   N5    S    
C49   H24   S    
C23   C27   A    
C45   H8    S    
C6    C39   S    
C52   H35   S    
O6    C2    A    
H2    C18   S    
N2    H9    S    
O16   V4    S    
C28   C32   A    
C20   C24   A    
C32   C40   A    
C48   H19   S    
O9    V1    S    
C47   H16   S    
C4    O14   A    
C49   H22   S    
C13   C17   A    
C15   C19   A    
C15   N7    S    
C24   C28   A    
N7    C51   S    
