data_mof_unit_31919.cif
_audit_creation_date              2012-12-11T20:41:37-0500
_audit_creation_method            fapswitch 2.2
_symmetry_space_group_name_H-M    P1
_symmetry_Int_Tables_number       1
_space_group_crystal_system       triclinic
_cell_length_a                    8.545123
_cell_length_b                    18.894252
_cell_length_c                    27.038517
_cell_angle_alpha                 97.44365
_cell_angle_beta                  92.112336
_cell_angle_gamma                 85.225472
_cell_volume                      4312.15702141

loop_
_atom_site_label
_atom_site_type_symbol
_atom_type_description
_atom_site_fract_x
_atom_site_fract_y
_atom_site_fract_z
_atom_type_partial_charge
Ba1   Ba    Ba6+2 0.852670 0.466460 0.522850 1.800500
Ba2   Ba    Ba6+2 0.337150 0.533490 0.477140 1.730967
C1    C     C_3   0.631538 0.239590 0.707699 -0.355548
C2    C     C_R   0.833161 0.504412 0.168877 0.611263
C3    C     C_2   0.801497 0.568430 0.276178 -0.028614
C4    C     C_3   0.071483 0.283255 0.651421 0.652961
C5    C     C_3   0.763461 0.581541 0.331684 -0.120045
C6    C     C_1   0.975948 0.488400 0.344758 0.020479
C7    C     C_2   0.994532 0.470682 0.296047 -0.094306
C8    C     C_2   0.910869 0.514028 0.258709 0.204353
C9    C     C_R   0.024000 0.501458 0.104698 -0.083163
C10   C     C_R   0.141241 0.480165 0.138899 -0.043396
C11   C     C_R   0.291178 0.456033 0.121017 -0.037085
C12   C     C_3   0.652893 0.275236 0.660238 0.609764
C13   C     C_R   0.870026 0.517057 0.120649 -0.039758
C14   C     C_2   0.865637 0.536319 0.364031 -0.249812
C15   C     C_2   0.351336 0.487877 0.644603 -0.198455
C16   C     C_3   0.037075 0.235940 0.692527 0.352679
C17   C     C_R   0.226946 0.464180 0.983247 0.037287
C18   C     C_R   0.001353 0.550876 0.974204 -0.036450
C19   C     C_R   0.128881 0.506102 0.952964 0.060553
C20   C     C_R   0.341382 0.414059 0.959973 -0.099002
C21   C     C_R   0.357285 0.405570 0.908304 -0.061818
C22   C     C_R   0.268245 0.450621 0.878501 -0.043175
C23   C     C_3   0.564353 0.638553 0.630219 0.258674
C24   C     C_R   0.159228 0.503455 0.901191 -0.141858
C25   C     C_R   0.079060 0.552497 0.872132 -0.137398
C26   C     C_R   0.103825 0.543161 0.819578 0.721615
C27   C     C_R   0.288854 0.444409 0.826592 0.652489
C28   C     C_3   0.217733 0.315118 0.405001 0.347246
C29   C     C_2   0.440585 0.477525 0.734820 -0.012232
C30   C     C_3   0.488009 0.474271 0.680400 -0.059036
C31   C     C_1   0.222100 0.526351 0.661008 -0.024794
C32   C     C_2   0.201720 0.546644 0.710128 0.338812
C33   C     C_2   0.287647 0.501656 0.747518 0.200930
C34   C     C_3   0.616407 0.655960 0.684504 -0.220384
C35   C     C_R   0.204433 0.472686 0.035557 0.019596
C36   C     C_R   0.059707 0.505293 0.054217 0.049346
C37   C     C_R   0.950803 0.541334 0.022903 0.018573
C38   C     C_R   0.320261 0.449367 0.069890 -0.100964
C39   C     C_R   0.757420 0.546617 0.088864 -0.085357
C40   C     C_3   0.225320 0.234265 0.389134 0.307927
C41   C     C_R   0.937015 0.605352 0.946884 -0.177155
C42   C     C_R   0.977883 0.608662 0.897265 0.381911
C43   C     C_R   0.797565 0.563715 0.042129 -0.010646
C44   C     C_2   0.408355 0.293999 0.510428 -0.350309
C45   C     C_3   0.007067 0.727139 0.347586 0.324450
C46   C     C_3   0.319896 0.246566 0.538077 0.200507
C47   C     C_2   0.339237 0.168987 0.517035 -0.134039
C48   C     C_2   0.464174 0.143474 0.489011 -0.085610
C49   C     C_2   0.565708 0.196047 0.469753 0.384086
C50   C     C_1   0.528271 0.266995 0.481868 -0.005467
C51   C     C_R   0.622259 0.925734 0.483354 0.445682
C52   C     C_3   0.997353 0.679903 0.579272 0.315311
C53   C     C_R   0.509890 0.064936 0.485249 0.547434
C54   C     C_R   0.600394 0.803840 0.505597 -0.122971
C55   C     C_R   0.655587 0.732160 0.504283 0.053070
C56   C     C_3   0.937486 0.796666 0.329672 -0.414703
C57   C     C_R   0.885771 0.753572 0.460751 -0.012926
C58   C     C_R   0.830244 0.825788 0.461359 -0.146082
C59   C     C_R   0.684485 0.850662 0.482680 -0.054759
C60   C     C_R   0.793071 0.706376 0.479462 -0.267974
C61   C     C_3   0.967276 0.760512 0.593168 -0.331209
C62   C     C_3   0.668596 0.390141 0.376067 0.303712
C63   C     C_3   0.672399 0.377041 0.319393 -0.292677
C64   C     C_R   0.440510 0.823444 0.303151 0.058167
C65   C     C_R   0.320393 0.793911 0.272352 -0.043266
C66   C     C_R   0.281734 0.818358 0.226466 -0.095299
C67   C     C_3   0.555489 0.726211 0.353102 0.310213
C68   C     C_R   0.365524 0.871144 0.210367 -0.044745
C69   C     C_R   0.487291 0.899927 0.240317 -0.028654
C70   C     C_R   0.524229 0.876567 0.286654 -0.044747
C71   C     C_R   0.566628 0.477754 0.774248 0.006297
C72   C     C_R   0.658879 0.414925 0.781422 0.098657
C73   C     C_R   0.749980 0.410808 0.825054 -0.005678
C74   C     C_R   0.754598 0.470453 0.860942 -0.125768
C75   C     C_R   0.670998 0.534598 0.852606 -0.024566
C76   C     C_R   0.578467 0.538585 0.809457 -0.044990
C77   C     C_R   0.743502 0.624436 0.244461 0.037197
C78   C     C_3   0.473633 0.801525 0.354414 -0.203696
C79   C     C_R   0.584031 0.632471 0.229928 0.029840
C80   C     C_R   0.533638 0.679208 0.195534 -0.071663
C81   C     C_R   0.640358 0.720346 0.176721 -0.059119
C82   C     C_R   0.798839 0.713246 0.191161 -0.072374
C83   C     C_R   0.850718 0.664890 0.224363 -0.109764
C84   C     C_R   0.670546 0.602654 0.015709 0.032536
C85   C     C_R   0.586398 0.567756 0.975677 -0.080821
C86   C     C_R   0.463304 0.605426 0.952254 -0.073098
C87   C     C_R   0.420826 0.677108 0.969379 -0.042579
C88   C     C_R   0.502048 0.711673 0.010023 -0.063994
C89   C     C_R   0.105433 0.485715 0.190259 0.597274
C90   C     C_R   0.626382 0.674618 0.033203 -0.070473
H1    H     H_    0.305196 0.206474 0.414471 -0.100327
H2    H     H_    0.726536 0.249017 0.735521 0.151438
H3    H     H_    0.768303 0.335722 0.307403 0.136139
H4    H     H_    0.691727 0.427134 0.304180 0.054339
H5    H     H_    0.558357 0.358768 0.303918 0.185218
H6    H     H_    0.545194 0.296479 0.646559 0.149936
H7    H     H_    0.623555 0.180933 0.699126 0.137022
H8    H     H_    0.441261 0.623849 0.627441 0.040016
H9    H     H_    0.641216 0.591601 0.614523 0.057507
H10   H     H_    0.554021 0.706525 0.701675 0.187101
H11   H     H_    0.593429 0.611840 0.705941 0.076032
H12   H     H_    0.108283 0.214594 0.391711 0.071491
H13   H     H_    0.743880 0.662749 0.686263 0.158370
H14   H     H_    0.526432 0.262893 0.727971 0.189568
H15   H     H_    0.102956 0.182706 0.686159 0.056424
H16   H     H_    0.056377 0.691001 0.315409 0.051518
H17   H     H_    0.911467 0.699399 0.361589 -0.070155
H18   H     H_    0.859806 0.784913 0.296397 0.086026
H19   H     H_    0.866695 0.828959 0.359259 0.109433
H20   H     H_    0.031731 0.828799 0.319729 0.141977
H21   H     H_    0.655451 0.721645 0.327642 -0.028932
H22   H     H_    0.601599 0.721259 0.391643 -0.008907
H23   H     H_    0.885776 0.656449 0.567391 -0.021968
H24   H     H_    0.551730 0.839252 0.375911 0.051744
H25   H     H_    0.363755 0.806268 0.375407 0.156332
H26   H     H_    0.003907 0.335736 0.654564 0.066078
H27   H     H_    0.063985 0.421634 0.282701 0.137913
H28   H     H_    0.384833 0.439742 0.146239 0.159806
H29   H     H_    0.443945 0.365018 0.891889 0.115413
H30   H     H_    0.414343 0.378317 0.980890 0.081560
H31   H     H_    0.436635 0.428860 0.058069 0.081960
H32   H     H_    0.638706 0.560748 0.101761 0.113435
H33   H     H_    0.863272 0.649028 0.965166 0.126007
H34   H     H_    0.082485 0.669427 0.548654 0.060711
H35   H     H_    0.851418 0.547325 0.404056 0.069863
H36   H     H_    0.371959 0.476207 0.604899 0.079441
H37   H     H_    0.267552 0.132391 0.532118 0.133090
H38   H     H_    0.492775 0.823054 0.524659 0.106598
H39   H     H_    0.901824 0.862653 0.446869 0.102746
H40   H     H_    0.386085 0.351209 0.521305 0.088220
H41   H     H_    0.835375 0.650679 0.478795 0.043171
H42   H     H_    0.918013 0.222630 0.688730 0.028966
H43   H     H_    0.335882 0.333886 0.402376 0.005725
H44   H     H_    0.177624 0.326486 0.444033 -0.089152
H45   H     H_    0.876065 0.772035 0.621968 0.139099
H46   H     H_    0.811051 0.113644 0.637587 0.341146
H47   H     H_    0.192513 0.107145 0.318046 0.331076
H48   H     H_    0.256288 0.752242 0.283863 0.106595
H49   H     H_    0.188015 0.795717 0.203148 0.064202
H50   H     H_    0.336545 0.889515 0.174616 0.082461
H51   H     H_    0.552310 0.940762 0.227803 0.102645
H52   H     H_    0.617413 0.900230 0.309708 0.100068
H53   H     H_    0.648073 0.367607 0.755778 0.095011
H54   H     H_    0.812619 0.360814 0.831914 0.153835
H55   H     H_    0.822334 0.466764 0.895195 0.077757
H56   H     H_    0.927146 0.786986 0.560352 0.054019
H57   H     H_    0.674720 0.581218 0.879966 0.097408
H58   H     H_    0.510801 0.588188 0.804701 0.144328
H59   H     H_    0.500151 0.599600 0.242763 0.129721
H60   H     H_    0.411766 0.683002 0.183128 0.065462
H61   H     H_    0.600465 0.757091 0.150511 0.066419
H62   H     H_    0.882027 0.744271 0.175959 0.070533
H63   H     H_    0.974911 0.657817 0.233470 0.060864
H64   H     H_    0.349616 0.196295 0.681436 0.347880
H65   H     H_    0.719378 0.736851 0.916380 0.333909
H66   H     H_    0.000602 0.725035 0.741664 0.390068
H67   H     H_    0.077297 0.783573 0.608260 0.154171
H68   H     H_    0.616939 0.511940 0.962439 0.070534
H69   H     H_    0.403059 0.579581 0.920070 0.075926
H70   H     H_    0.325429 0.705844 0.951028 0.122778
H71   H     H_    0.469146 0.767199 0.023448 0.088996
H72   H     H_    0.689142 0.701960 0.064551 0.070288
H73   H     H_    0.830446 0.205076 0.368811 0.361901
H74   H     H_    0.247278 0.260448 0.813338 0.377696
H75   H     H_    0.785195 0.404624 0.391287 -0.011294
H76   H     H_    0.578852 0.434876 0.386638 0.072011
N1    N     N_R   0.950639 0.499961 0.205461 -0.423493
N2    N     N_R   0.227199 0.497462 0.798457 -0.427977
N3    N     N_R   0.554838 0.961863 0.524879 -0.222060
N4    N     N_R   0.500780 0.030196 0.525903 -0.188607
N5    N     N_R   0.570522 0.027437 0.443116 -0.144151
N6    N     N_R   0.627047 0.959434 0.442202 -0.227859
O1    O     O_2   0.914730 0.537460 0.618690 -0.459525
O2    O     O_2   0.210379 0.753663 0.476678 -0.476623
O3    O     O_3   0.131052 0.741634 0.382226 -0.573553
O4    O     O_3   0.146720 0.537410 0.558510 -0.514912
O5    O     O_3   0.553920 0.415280 0.473710 -0.526422
O6    O     O_2   0.383540 0.672140 0.526840 -0.449946
O7    O     O_3   0.577200 0.698899 0.605731 -0.631017
O8    O     O_2   0.449084 0.532067 0.322113 -0.448376
O9    O     O_3   0.452544 0.672663 0.336951 -0.574331
O10   O     O_2   0.211985 0.478748 0.221013 -0.568254
O11   O     O_2   0.358251 0.390137 0.806262 -0.532548
O12   O     O_3   0.630176 0.327269 0.393396 -0.572632
O13   O     O_2   0.696882 0.498015 0.178456 -0.597663
O14   O     O_2   0.007398 0.571057 0.792591 -0.461368
O15   O     O_3   0.666360 0.409390 0.586570 -0.454651
O16   O     O_2   0.802361 0.460840 0.669286 -0.447324
O17   O     O_3   0.058729 0.651833 0.621681 -0.555197
O18   O     O_3   0.748457 0.332792 0.670858 -0.664375
O19   O     O_2   0.806150 0.327840 0.473120 -0.379679
O20   O     O_3   0.073640 0.373350 0.561550 -0.467357
O21   O     O_2   0.006847 0.248538 0.507602 -0.404644
O22   O     O_2   0.574298 0.166978 0.591532 -0.293223
O23   O     O_3   0.045775 0.242769 0.603821 -0.544147
O24   O     O_2   0.751321 0.248063 0.565782 -0.265350
O25   O     O_3   0.858158 0.147762 0.618725 -0.493407
O26   O     O_2   0.452956 0.234151 0.322667 -0.233288
O27   O     O_2   0.181212 0.243041 0.290396 -0.269374
O28   O     O_3   0.300489 0.120044 0.313317 -0.446321
O29   O     O_2   0.312778 0.346832 0.623306 -0.452932
O30   O     O_2   0.302321 0.337680 0.710895 -0.281109
O31   O     O_3   0.355447 0.217463 0.650062 -0.565352
O32   O     O_2   0.052915 0.718919 0.852173 -0.179905
O33   O     O_2   0.797415 0.673675 0.828811 -0.249550
O34   O     O_2   0.274960 0.462520 0.381280 -0.462805
O35   O     O_3   0.828664 0.750111 0.914690 -0.494125
O36   O     O_2   0.264674 0.657607 0.780087 -0.276251
O37   O     O_2   0.267462 0.680081 0.693715 -0.340052
O38   O     O_3   0.998687 0.672768 0.731769 -0.438220
O39   O     O_2   0.825808 0.108058 0.450800 -0.246692
O40   O     O_2   0.636779 0.120525 0.381689 -0.250578
O41   O     O_3   0.826234 0.218586 0.405417 -0.493069
O42   O     O_2   0.030345 0.351767 0.763226 -0.289304
O43   O     O_2   0.954549 0.239482 0.788506 -0.333141
O44   O     O_3   0.248512 0.249871 0.776494 -0.462220
O45   O     O_3   0.042980 0.462530 0.441480 -0.501334
O46   O     O_3   0.523340 0.590550 0.413420 -0.466222
O47   O     O_3   0.110523 0.348503 0.373572 -0.611451
O48   O     O_3   0.635780 0.584660 0.526290 -0.501729
O49   O     O_3   0.116060 0.626590 0.438450 -0.471166
P1    P     P_3+3 0.084800 0.558370 0.611580 1.072845
P2    P     P_3+3 0.628800 0.338360 0.458800 1.094259
P3    P     P_3+3 0.110409 0.279546 0.551761 1.155566
P4    P     P_3+3 0.104900 0.441570 0.388420 1.017736
P5    P     P_3+3 0.084901 0.719757 0.440485 0.981572
P6    P     P_3+3 0.664532 0.415153 0.652325 1.012909
P7    P     P_3+3 0.563511 0.673820 0.541240 0.960356
P8    P     P_3+3 0.548495 0.590883 0.349526 0.964079
S1    S     S_3+6 0.711144 0.209303 0.607948 -0.055718
S2    S     S_3+6 0.291874 0.209638 0.326891 -0.003173
S3    S     S_3+6 0.265800 0.300445 0.660131 -0.171146
S4    S     S_3+6 0.913603 0.688389 0.871255 -0.014033
S5    S     S_3+6 0.188224 0.641272 0.729458 -0.041804
S6    S     S_3+6 0.715678 0.160137 0.426355 -0.006581
S7    S     S_3+6 0.063704 0.271826 0.757010 -0.064297

loop_
_geom_bond_atom_site_label_1
_geom_bond_atom_site_label_2
_ccdc_geom_bond_type
N3    N4    A    
O32   S4    D    
H65   O35   S    
C54   C59   A    
C40   H1    S    
C71   C72   A    
C87   H70   S    
C10   C89   A    
O15   P6    S    
C61   H67   S    
C41   C42   A    
C32   S5    S    
C62   O12   S    
C18   C41   A    
Ba1   O20   S    
C79   C80   A    
O33   S4    D    
C55   C60   A    
C21   H29   S    
C5    P8    S    
C75   C76   A    
C85   H68   S    
C8    N1    S    
C52   H34   S    
O6    P7    D    
C24   C25   A    
C18   C19   A    
Ba2   O6    S    
C28   H43   S    
Ba1   P1    S    
C56   H20   S    
C2    O13   D    
O31   S3    S    
C17   C19   A    
C22   C24   A    
C32   C33   S    
C35   C38   A    
O39   S6    D    
C26   O14   D    
O34   P4    D    
C44   H40   S    
C36   C37   A    
C40   S2    S    
O24   S1    D    
C29   C71   S    
C52   C61   S    
C86   H69   S    
O43   S7    D    
C44   C50   D    
Ba2   O48   S    
O37   S5    D    
C34   H10   S    
Ba1   Ba2   S    
C83   H63   S    
O25   S1    S    
C16   H15   S    
C53   N5    A    
C11   C38   A    
O30   S3    D    
C17   C35   A    
C22   C27   A    
C51   C59   S    
C25   C42   A    
H73   O41   S    
C63   H4    S    
C64   C70   A    
C78   H24   S    
C74   H55   S    
C6    C7    D    
C51   N6    A    
O1    P1    D    
C20   H30   S    
C68   C69   A    
O41   S6    S    
O36   S5    D    
C27   N2    Am   
C3    C77   S    
C7    C8    S    
H74   O44   S    
C12   S1    S    
C41   H33   S    
O21   P3    D    
C72   H53   S    
C37   C43   A    
C12   O18   S    
O23   P3    S    
C90   H72   S    
C64   C65   A    
C4    S3    S    
C57   C58   A    
C6    C14   D    
C56   H18   S    
C89   O10   D    
Ba2   O46   S    
C61   H45   S    
O4    P1    S    
C15   C31   D    
O2    P5    D    
C58   H39   S    
O38   S5    S    
C6    P4    S    
C23   O7    S    
Ba2   P4    S    
C12   H6    S    
C28   O47   S    
C74   C75   A    
C73   H54   S    
H66   O38   S    
O18   P6    S    
C4    C16   S    
C44   C46   S    
C67   H22   S    
C68   H50   S    
C2    N1    Am   
C89   N1    Am   
C65   C66   A    
O22   S1    D    
O40   S6    D    
O26   S2    D    
C13   C39   A    
O29   S3    D    
C49   S6    S    
C52   O17   S    
C42   S4    S    
C75   H57   S    
C15   C30   S    
C3    C5    S    
C18   C37   A    
O49   P5    S    
C23   C34   S    
C48   C49   S    
N5    N6    A    
C47   H37   S    
C80   C81   A    
C49   C50   D    
Ba1   O48   S    
O5    P2    S    
C9    C36   A    
Ba1   O19   S    
C73   C74   A    
O35   S4    S    
C35   C36   A    
C57   P5    S    
O3    P5    S    
C46   P3    S    
Ba1   O4    S    
C50   P2    S    
C23   H8    S    
C88   C90   A    
C81   C82   A    
C63   H3    S    
O7    P7    S    
C71   C76   A    
C67   H21   S    
C52   H23   S    
C17   C20   A    
C31   C32   D    
C66   H49   S    
Ba1   O45   S    
C82   H62   S    
C10   C11   A    
H64   O31   S    
C1    C12   S    
C67   O9    S    
C26   N2    Am   
C46   C47   S    
C47   C48   D    
C9    C13   A    
C34   H11   S    
Ba2   O45   S    
C7    H27   S    
C29   C33   D    
Ba2   O34   S    
C54   C55   A    
O44   S7    S    
O27   S2    D    
C16   S7    S    
O9    P8    S    
C61   H56   S    
C77   C83   A    
C11   H28   S    
C76   H58   S    
C69   H51   S    
C53   N4    A    
Ba1   P2    S    
C70   H52   S    
C38   H31   S    
C65   H48   S    
C30   P6    S    
Ba1   O1    S    
C57   C60   A    
O46   P8    S    
C34   H13   S    
C84   C85   A    
C29   C30   S    
C5    C14   S    
C82   C83   A    
H47   O28   S    
C40   H12   S    
C1    H2    S    
C4    O23   S    
C56   H19   S    
C15   H36   S    
C81   H61   S    
C62   H75   S    
C64   C78   S    
O47   P4    S    
C77   C79   A    
C48   C53   S    
C88   H71   S    
O16   P6    D    
O42   S7    D    
C62   C63   S    
O20   P3    S    
C2    C13   A    
C1    H14   S    
O19   P2    D    
C69   C70   A    
C45   O3    S    
C45   H17   S    
H46   O25   S    
C45   C56   S    
C55   P7    S    
Ba1   O5    S    
C23   H9    S    
O12   P2    S    
C39   H32   S    
C19   C24   A    
C78   H25   S    
Ba2   O49   S    
C27   O11   D    
C43   C84   S    
C16   H42   S    
C28   C40   S    
C14   H35   S    
C80   H60   S    
C51   N3    A    
C21   C22   A    
C63   H5    S    
C31   P1    S    
C1    H7    S    
O8    P8    D    
C3    C8    D    
C79   H59   S    
C86   C87   A    
O48   P7    S    
C85   C86   A    
C62   H76   S    
C45   H16   S    
Ba2   O5    S    
C25   C26   A    
C33   N2    S    
C39   C43   A    
C20   C21   A    
C58   C59   A    
C67   C78   S    
C84   C90   A    
Ba2   O4    S    
O45   P4    S    
C87   C88   A    
C28   H44   S    
C66   C68   A    
C60   H41   S    
O17   P1    S    
C4    H26   S    
C54   H38   S    
C72   C73   A    
C9    C10   A    
O28   S2    S    
Ba1   O15   S    
