data_mof_unit_8901.cif
_audit_creation_date              2012-12-10T19:16:25-0500
_audit_creation_method            fapswitch 2.2
_symmetry_space_group_name_H-M    P1
_symmetry_Int_Tables_number       1
_space_group_crystal_system       triclinic
_cell_length_a                    10.882521
_cell_length_b                    10.128052
_cell_length_c                    27.230108
_cell_angle_alpha                 87.869493
_cell_angle_beta                  90.560006
_cell_angle_gamma                 92.759802
_cell_volume                      2995.61909822

loop_
_atom_site_label
_atom_site_type_symbol
_atom_type_description
_atom_site_fract_x
_atom_site_fract_y
_atom_site_fract_z
_atom_type_partial_charge
Br1   Br    Br    0.760817 0.846316 0.137664 -0.228360
Br2   Br    Br    0.766841 0.834644 0.017909 -0.307761
Br3   Br    Br    0.092302 0.744110 0.449143 -0.361288
Br4   Br    Br    0.092357 0.472572 0.396828 -0.430757
C1    C     C_R   0.257968 0.497557 0.501130 0.955755
C2    C     C_R   0.318244 0.654207 0.969555 0.020301
C3    C     C_R   0.539573 0.645297 0.979547 0.031521
C4    C     C_R   0.508731 0.502165 0.405411 1.009758
C5    C     C_R   0.434510 0.637694 0.949387 0.091951
C6    C     C_R   0.222617 0.687959 0.937494 -0.155911
C7    C     C_R   0.235656 0.683912 0.886376 0.397009
C8    C     C_R   0.345231 0.633865 0.866993 -0.125069
C9    C     C_R   0.445745 0.611952 0.899327 -0.133185
C10   C     C_R   0.557131 0.562901 0.882416 -0.137263
C11   C     C_R   0.567297 0.542477 0.831899 0.669415
C12   C     C_R   0.341959 0.570345 0.287625 -0.043394
C13   C     C_R   0.360608 0.605761 0.817137 0.632150
C14   C     C_R   0.431227 0.427263 0.730432 -0.168784
C15   C     C_R   0.432385 0.406598 0.679915 0.422337
C16   C     C_R   0.738589 0.500003 0.509422 0.983803
C17   C     C_R   0.549630 0.616449 0.668958 -0.268283
C18   C     C_R   0.542992 0.639102 0.718855 0.390975
C19   C     C_R   0.483782 0.542810 0.749789 0.093962
C20   C     C_R   0.305907 0.642783 0.021447 -0.032343
C21   C     C_R   0.413096 0.672879 0.050012 0.017274
C22   C     C_R   0.528638 0.692025 0.027267 -0.038006
C23   C     C_R   0.432069 0.576859 0.251612 0.172892
C24   C     C_R   0.196995 0.593502 0.046129 0.336679
C25   C     C_R   0.618625 0.768617 0.104188 0.292550
C26   C     C_R   0.646792 0.589364 0.963748 -0.200823
C27   C     C_R   0.653023 0.537843 0.916995 0.429136
C28   C     C_R   0.496683 0.498284 0.594068 0.954353
C29   C     C_R   0.627888 0.752409 0.053252 0.204896
C30   C     C_3   0.082750 0.575153 0.550844 -0.472467
C31   C     C_3   0.065828 0.350757 0.516027 -0.455823
C32   C     C_3   0.942503 0.599512 0.548731 0.313040
C33   C     C_3   0.925259 0.351777 0.525756 0.265580
C34   C     C_R   0.407612 0.673513 0.101475 -0.092572
C35   C     C_3   0.057223 0.553307 0.458064 0.469184
C36   C     C_3   0.119855 0.493971 0.505709 -0.127408
C37   C     C_3   0.876556 0.495968 0.514631 -0.233147
C38   C     C_3   0.918874 0.530597 0.462175 -0.505113
C39   C     C_3   0.393881 0.075585 0.469157 0.236732
C40   C     C_3   0.406216 0.919922 0.462953 0.222247
C41   C     C_3   0.621894 0.089471 0.482537 0.186209
C42   C     C_3   0.625125 0.930258 0.485909 0.247058
C43   C     C_3   0.481857 0.073170 0.548871 -0.440094
C44   C     C_3   0.468999 0.914615 0.547857 -0.500281
C45   C     C_R   0.301542 0.620423 0.125296 -0.057560
C46   C     C_R   0.307781 0.590739 0.175965 0.585441
C47   C     C_R   0.501676 0.708966 0.180726 0.586759
C48   C     C_R   0.548326 0.531712 0.264083 -0.131860
C49   C     C_R   0.582779 0.503919 0.312970 0.416322
C50   C     C_R   0.371599 0.526953 0.335065 -0.163365
C51   C     C_R   0.196875 0.584214 0.097608 -0.178747
C52   C     C_R   0.510451 0.719757 0.129135 -0.156655
C53   C     C_R   0.491815 0.507280 0.350546 -0.135864
C54   C     C_R   0.494684 0.501948 0.648380 -0.188095
H1    H     H_    0.301768 0.517841 0.361574 0.235000
H2    H     H_    0.934746 0.697628 0.530595 0.205220
H3    H     H_    0.881742 0.284102 0.499065 0.179484
H4    H     H_    0.876577 0.617713 0.446263 0.305300
H5    H     H_    0.886119 0.446363 0.440022 0.266513
H6    H     H_    0.310344 0.080530 0.492431 0.103696
H7    H     H_    0.315836 0.875790 0.475095 0.153188
H8    H     H_    0.558878 0.102726 0.573797 0.259644
H9    H     H_    0.529589 0.872299 0.576901 0.244674
H10   H     H_    0.398227 0.109694 0.565695 0.262556
H11   H     H_    0.373842 0.880326 0.558350 0.212519
H12   H     H_    0.614830 0.525064 0.235058 0.200415
H13   H     H_    0.691199 0.124775 0.510051 0.141889
H14   H     H_    0.680816 0.913746 0.520014 0.133541
H15   H     H_    0.115691 0.542619 0.116232 0.240448
H16   H     H_    0.385231 0.355285 0.755239 0.216716
H17   H     H_    0.140283 0.725097 0.952384 0.217520
H18   H     H_    0.789878 0.246817 0.869016 0.420007
H19   H     H_    0.793939 0.724431 0.739389 0.388441
H20   H     H_    0.814384 0.799235 0.641636 0.402741
H21   H     H_    0.724734 0.228822 0.627864 0.414026
H22   H     H_    0.165705 0.121049 0.370335 0.406772
H23   H     H_    0.721255 0.574021 0.989632 0.238012
H24   H     H_    0.257738 0.738283 0.370766 0.398038
H25   H     H_    0.881880 0.179910 0.400624 0.398927
H26   H     H_    0.718738 0.717182 0.384418 0.413314
H27   H     H_    0.393875 0.059059 0.658331 0.399398
H28   H     H_    0.958897 0.759321 0.897263 0.395325
H29   H     H_    0.060420 0.330311 0.060741 0.373602
H30   H     H_    0.838519 0.286579 0.316475 0.396174
H31   H     H_    0.596554 0.691193 0.645644 0.227505
H32   H     H_    0.134817 0.672262 0.551741 0.208032
H33   H     H_    0.082252 0.288773 0.484084 0.240323
H34   H     H_    0.107564 0.520194 0.585305 0.261163
H35   H     H_    0.114489 0.304308 0.547716 0.268291
H36   H     H_    0.249853 0.601416 0.279880 0.216346
N1    N     N_R   0.410080 0.629960 0.202420 -0.342639
N2    N     N_R   0.470279 0.563983 0.801060 -0.350698
N3    N     N_3   0.499750 0.138610 0.498940 -0.188777
N4    N     N_3   0.499750 0.861390 0.498940 -0.183306
O1    O     O_R   0.314910 0.616040 0.499990 -0.605496
O2    O     O_2   0.267888 0.618363 0.784501 -0.431248
O3    O     O_2   0.584779 0.772563 0.209505 -0.446429
O4    O     O_2   0.673762 0.506032 0.812870 -0.418330
O5    O     O_2   0.873889 0.500734 0.878632 -0.189565
O6    O     O_2   0.822931 0.377846 0.955331 -0.193709
O7    O     O_3   0.717165 0.298634 0.875395 -0.479823
O8    O     O_2   0.622106 0.892178 0.699959 -0.278737
O9    O     O_2   0.527226 0.841003 0.779815 -0.219441
O10   O     O_3   0.747092 0.763109 0.765888 -0.424998
O11   O     O_2   0.773427 0.525547 0.619428 -0.279760
O12   O     O_R   0.314910 0.383960 0.499990 -0.571429
O13   O     O_2   0.973043 0.615864 0.647832 -0.213952
O14   O     O_3   0.821327 0.776746 0.606722 -0.549083
O15   O     O_2   0.920388 0.128783 0.582058 -0.248889
O16   O     O_2   0.959700 0.333718 0.625175 -0.164888
O17   O     O_3   0.736194 0.274294 0.595281 -0.538773
O18   O     O_2   0.279804 0.293477 0.423961 -0.303033
O19   O     O_2   0.414876 0.181042 0.373167 -0.172149
O20   O     O_3   0.199991 0.072606 0.399228 -0.480352
O21   O     O_2   0.354870 0.948021 0.357970 -0.181251
O22   O     O_2   0.531462 0.836351 0.380149 -0.206618
O23   O     O_R   0.500140 0.616020 0.428740 -0.494337
O24   O     O_3   0.317350 0.725530 0.398101 -0.545399
O25   O     O_2   0.635078 0.107215 0.381523 -0.125680
O26   O     O_2   0.696043 0.310115 0.418744 -0.263445
O27   O     O_3   0.844602 0.137428 0.430652 -0.517640
O28   O     O_2   0.775167 0.931319 0.397145 -0.152389
O29   O     O_2   0.851578 0.846565 0.473439 -0.272255
O30   O     O_3   0.701817 0.709216 0.420082 -0.508727
O31   O     O_2   0.249230 0.224229 0.695859 -0.204917
O32   O     O_2   0.290312 0.290421 0.610300 -0.340694
O33   O     O_3   0.446553 0.141641 0.656976 -0.536638
O34   O     O_R   0.500140 0.383980 0.428740 -0.500130
O35   O     O_2   0.172804 0.852136 0.813023 -0.157513
O36   O     O_2   0.047489 0.645953 0.822443 -0.153946
O37   O     O_3   0.017471 0.829938 0.884454 -0.481051
O38   O     O_2   0.977600 0.611572 0.001088 -0.244655
O39   O     O_2   0.110220 0.442249 0.972009 -0.245044
O40   O     O_3   0.000116 0.399689 0.055257 -0.468315
O41   O     O_2   0.813951 0.532113 0.279927 -0.234065
O42   O     O_2   0.789106 0.509139 0.368099 -0.317500
O43   O     O_3   0.749056 0.300538 0.316519 -0.444229
O44   O     O_R   0.685320 0.616040 0.499970 -0.546658
O45   O     O_R   0.685320 0.383960 0.499970 -0.588298
O46   O     O_R   0.500090 0.616050 0.571230 -0.654578
O47   O     O_R   0.500090 0.383950 0.571230 -0.551019
O48   O     O_2   0.215295 0.517744 0.197729 -0.519586
S1    S     S_3+6 0.772324 0.428521 0.907030 0.138160
S2    S     S_3+6 0.116863 0.752699 0.849678 0.165645
S3    S     S_3+6 0.069781 0.512060 0.016430 0.073414
S4    S     S_3+6 0.738246 0.464680 0.320327 0.088557
S5    S     S_3+6 0.607942 0.789543 0.741102 0.096156
S6    S     S_3+6 0.876767 0.624404 0.607986 0.064533
S7    S     S_3+6 0.887483 0.270922 0.584174 0.089754
S8    S     S_3+6 0.327578 0.162340 0.415427 0.118274
S9    S     S_3+6 0.407373 0.863411 0.398383 0.154914
S10   S     S_3+6 0.693002 0.165158 0.426613 0.131462
S11   S     S_3+6 0.736800 0.856082 0.443220 0.161834
S12   S     S_3+6 0.348801 0.264621 0.659636 0.063196
Zn1   Zn    Zn3+2 0.500150 0.654960 0.499980 1.068583
Zn2   Zn    Zn3+2 0.500150 0.345040 0.499980 1.107825

loop_
_geom_bond_atom_site_label_1
_geom_bond_atom_site_label_2
_ccdc_geom_bond_type
H26   O30   S    
C13   N2    A    
H18   O7    S    
H21   O17   S    
C41   H13   S    
C37   C38   S    
C43   H10   S    
C23   N1    S    
C16   O45   A    
C28   C54   S    
C10   C27   A    
O13   S6    D    
C2    C5    A    
O38   S3    D    
C40   H7    S    
O5    S1    D    
O45   Zn2   S    
C34   C45   A    
C17   H31   S    
C41   C42   S    
C19   N2    S    
O34   Zn2   S    
C3    C22   A    
C30   C36   S    
C31   C33   S    
C47   C52   A    
O1    Zn1   S    
C26   C27   A    
C21   C34   A    
C46   N1    A    
C1    O12   A    
O7    S1    S    
C25   C29   A    
O30   S11   S    
C14   C15   A    
O24   S9    S    
C5    C9    A    
C39   H6    S    
C44   H9    S    
C40   N4    S    
C1    O1    A    
C8    C13   A    
C4    O34   A    
O14   S6    S    
C39   S8    S    
C38   H4    S    
C43   H8    S    
C42   H14   S    
O27   S10   S    
O25   S10   D    
C27   S1    S    
C46   O48   S    
C12   C23   A    
C42   N4    S    
Br3   C35   S    
C24   S3    S    
C14   H16   S    
C3    C26   A    
C9    C10   A    
O17   S7    S    
C40   S9    S    
O6    S1    D    
O39   S3    D    
C32   C37   S    
H25   O27   S    
O31   S12   D    
C24   C51   A    
C39   N3    S    
O43   S4    S    
C16   C37   S    
C35   C38   S    
C30   H34   S    
C50   H1    S    
C31   H35   S    
O40   S3    S    
H22   O20   S    
C14   C19   A    
N3    Zn2   S    
C16   O44   A    
O11   S6    D    
C20   C21   A    
C11   N2    A    
C41   S10   S    
O47   Zn2   S    
C49   C53   A    
C32   S6    S    
C28   O47   A    
C21   C22   A    
C45   C51   A    
C42   S11   S    
O22   S9    D    
C15   C54   A    
O33   S12   S    
C39   C40   S    
C30   H32   S    
C33   S7    S    
C4    C53   S    
O10   S5    S    
C6    H17   S    
C22   C29   A    
C43   C44   S    
Br4   C35   S    
C2    C20   A    
Br1   C25   S    
O35   S2    D    
C48   C49   A    
N4    Zn1   S    
O46   Zn1   S    
O44   Zn1   S    
Br2   C29   S    
C45   C46   A    
O26   S10   D    
C49   S4    S    
H29   O40   S    
O42   S4    D    
H30   O43   S    
C35   C36   S    
O12   Zn2   S    
C23   C48   A    
C44   H11   S    
O28   S11   D    
C3    C5    A    
O29   S11   D    
C18   S5    S    
O21   S9    D    
O8    S5    D    
O16   S7    D    
C10   C11   A    
C15   S12   S    
O18   S8    D    
H19   O10   S    
C20   C24   A    
O15   S7    D    
C32   H2    S    
C7    S2    S    
C2    C6    A    
C33   H3    S    
C7    C8    A    
C25   C52   A    
C47   O3    S    
O36   S2    D    
O41   S4    D    
C12   H36   S    
C43   N3    S    
O32   S12   D    
C26   H23   S    
C31   C36   S    
O9    S5    D    
C17   C54   A    
C41   N3    S    
H27   O33   S    
O20   S8    S    
C30   C32   S    
C44   N4    S    
C11   O4    S    
C33   C37   S    
C4    O23   A    
C13   O2    S    
C12   C50   A    
C28   O46   A    
C48   H12   S    
C6    C7    A    
C51   H15   S    
H28   O37   S    
C34   C52   A    
C8    C9    A    
O37   S2    S    
O23   Zn1   S    
C1    C36   S    
O19   S8    D    
C18   C19   A    
H20   O14   S    
C17   C18   A    
C38   H5    S    
H24   O24   S    
C47   N1    A    
C50   C53   A    
C31   H33   S    
