data_mof_unit_47941.cif
_audit_creation_date              2012-12-10T17:34:54-0500
_audit_creation_method            fapswitch 2.2
_symmetry_space_group_name_H-M    P1
_symmetry_Int_Tables_number       1
_space_group_crystal_system       triclinic
_cell_length_a                    12.191106
_cell_length_b                    12.832164
_cell_length_c                    15.81195
_cell_angle_alpha                 94.227361
_cell_angle_beta                  83.519322
_cell_angle_gamma                 91.810232
_cell_volume                      2450.42520395

loop_
_atom_site_label
_atom_site_type_symbol
_atom_type_description
_atom_site_fract_x
_atom_site_fract_y
_atom_site_fract_z
_atom_type_partial_charge
C1    C     C_R   0.519851 0.699381 0.493960 0.945080
C2    C     C_R   0.526378 0.808187 0.477010 -0.193304
C3    C     C_R   0.576136 0.943577 0.380983 -0.072092
C4    C     C_R   0.497415 0.498753 0.661493 0.910802
C5    C     C_R   0.591989 0.841705 0.404540 0.404766
C6    C     C_R   0.443658 0.873145 0.518208 -0.177697
C7    C     C_R   0.469363 0.978425 0.520084 -0.073063
C8    C     C_R   0.525400 0.017062 0.444764 -0.034095
C9    C     C_R   0.528744 0.125522 0.437674 -0.130818
C10   C     C_R   0.419371 0.150338 0.578827 0.427958
C11   C     C_R   0.429180 0.044655 0.590900 -0.104914
C12   C     C_3   0.397808 0.550304 0.065264 0.326411
C13   C     C_R   0.958730 0.400237 0.414851 -0.215459
C14   C     C_R   0.843297 0.416490 0.421150 0.512392
C15   C     C_R   0.853593 0.537971 0.540757 0.483857
C16   C     C_R   0.479812 0.300404 0.500492 0.970032
C17   C     C_R   0.972804 0.535375 0.529809 -0.114831
C18   C     C_R   0.026963 0.462289 0.468470 -0.165604
C19   C     C_R   0.146079 0.453712 0.464787 0.076830
C20   C     C_R   0.154290 0.585502 0.577888 0.017389
C21   C     C_R   0.039111 0.599771 0.581916 -0.067867
C22   C     C_R   0.502481 0.499479 0.338183 0.933741
C23   C     C_3   0.507399 0.490724 0.080406 -0.387047
C24   C     C_3   0.398326 0.559817 0.964412 0.779613
C25   C     C_3   0.612690 0.525220 0.933565 0.786228
C26   C     C_3   0.614008 0.550965 0.034631 0.213527
C27   C     C_1   0.507926 0.497039 0.248651 -0.026113
C28   C     C_3   0.491009 0.482054 0.916396 -0.262914
C29   C     C_3   0.308804 0.714317 0.108658 -0.140194
C30   C     C_3   0.258505 0.507069 0.865215 -0.172260
C31   C     C_2   0.293976 0.495550 0.110571 1.001830
C32   C     C_2   0.612965 0.317614 0.056184 0.906156
C33   C     C_2   0.599598 0.173402 0.367111 1.003320
C34   C     C_3   0.501481 0.369507 0.045166 0.170142
C35   C     C_3   0.263137 0.222087 0.649709 -0.151316
C36   C     C_2   0.592870 0.963705 0.288942 0.960534
C37   C     C_2   0.411527 0.005498 0.678502 0.891355
C38   C     C_3   0.759682 0.776237 0.354287 -0.188132
C39   C     C_2   0.325685 0.846634 0.505029 1.052711
C40   C     C_2   0.202502 0.363796 0.417241 0.965403
C41   C     C_3   0.381844 0.718369 0.891680 -0.165725
C42   C     C_2   0.211860 0.635728 0.649120 0.928799
C43   C     C_2   0.001747 0.317242 0.351025 0.967632
C44   C     C_2   0.994705 0.693386 0.632908 0.968818
C45   C     C_3   0.471626 0.365693 0.947701 0.755187
C46   C     C_3   0.797952 0.404914 0.285081 -0.163793
C47   C     C_3   0.756918 0.676496 0.614837 -0.124427
C48   C     C_3   0.742954 0.448895 0.819158 -0.038124
C49   C     C_3   0.738591 0.668747 0.895494 -0.180527
C50   C     C_3   0.636241 0.714967 0.121158 -0.017444
C51   C     C_2   0.724752 0.520052 0.067143 0.842711
C52   C     C_3   0.327702 0.230713 0.949057 -0.140201
C53   C     C_3   0.509053 0.260516 0.813163 -0.146236
C54   C     C_3   0.425388 0.220346 0.123211 -0.207263
C55   C     C_1   0.510349 0.494493 0.172950 0.258566
C56   C     C_1   0.488821 0.484664 0.824847 0.065126
C57   C     C_1   0.491456 0.491196 0.749879 -0.233966
C58   C     C_R   0.470217 0.189528 0.503027 -0.207220
H1    H     H_    0.266619 0.723664 0.174616 0.193221
H2    H     H_    0.230138 0.255444 0.713922 0.167162
H3    H     H_    0.223243 0.143446 0.639803 0.191238
H4    H     H_    0.238830 0.274280 0.602711 0.202560
H5    H     H_    0.530040 0.020821 0.189568 0.331064
H6    H     H_    0.337303 0.021845 0.799330 0.323205
H7    H     H_    0.778041 0.748886 0.415871 0.150699
H8    H     H_    0.793637 0.857084 0.347466 0.201444
H9    H     H_    0.803206 0.724682 0.302645 0.186592
H10   H     H_    0.260043 0.890280 0.625478 0.320349
H11   H     H_    0.292677 0.305919 0.310365 0.351366
H12   H     H_    0.248076 0.682324 0.065660 0.143512
H13   H     H_    0.290741 0.717958 0.907049 0.150038
H14   H     H_    0.409068 0.689608 0.825072 0.174109
H15   H     H_    0.408983 0.801658 0.897179 0.179229
H16   H     H_    0.196324 0.684612 0.773709 0.324740
H17   H     H_    0.080990 0.280229 0.234288 0.354381
H18   H     H_    0.939245 0.759270 0.748860 0.323843
H19   H     H_    0.855037 0.355241 0.241099 0.171235
H20   H     H_    0.828364 0.488013 0.286997 0.154414
H21   H     H_    0.718805 0.402653 0.257854 0.266027
H22   H     H_    0.666350 0.673226 0.630373 0.191162
H23   H     H_    0.335794 0.793208 0.089116 0.181368
H24   H     H_    0.782062 0.713654 0.554133 0.132945
H25   H     H_    0.783069 0.730012 0.667174 0.164088
H26   H     H_    0.828354 0.480457 0.821794 0.183307
H27   H     H_    0.701006 0.494921 0.776486 0.182319
H28   H     H_    0.749978 0.368126 0.789346 0.170976
H29   H     H_    0.726533 0.746232 0.930767 0.198829
H30   H     H_    0.777481 0.682930 0.830549 0.178739
H31   H     H_    0.796849 0.624435 0.926598 0.182828
H32   H     H_    0.727687 0.723323 0.114795 0.139326
H33   H     H_    0.603846 0.678478 0.180406 0.196274
H34   H     H_    0.276489 0.424194 0.847490 0.200263
H35   H     H_    0.603629 0.795133 0.126859 0.196575
H36   H     H_    0.880032 0.465469 0.043376 0.359359
H37   H     H_    0.264836 0.220744 0.004425 0.207431
H38   H     H_    0.397287 0.178499 0.953112 0.153092
H39   H     H_    0.287827 0.204476 0.891232 0.157190
H40   H     H_    0.428337 0.289579 0.800263 0.192595
H41   H     H_    0.505173 0.173934 0.806627 0.193928
H42   H     H_    0.573295 0.285952 0.763107 0.165444
H43   H     H_    0.463069 0.225726 0.183964 0.249112
H44   H     H_    0.473846 0.168731 0.074281 0.131957
H45   H     H_    0.296847 0.555429 0.815242 0.148984
H46   H     H_    0.342753 0.182676 0.136616 0.169994
H47   H     H_    0.168007 0.513273 0.865252 0.218517
H48   H     H_    0.193804 0.485935 0.220417 0.393607
H49   H     H_    0.713992 0.271729 0.138275 0.341524
H50   H     H_    0.747495 0.176023 0.295544 0.369257
N1    N     N_R   0.207800 0.519340 0.515510 -0.181197
N2    N     N_R   0.792190 0.480660 0.484490 -0.173529
O1    O     O_R   0.421690 0.658830 0.504140 -0.568507
O2    O     O_3   0.284733 0.541333 0.947788 -0.645608
O3    O     O_2   0.233456 0.435873 0.072290 -0.533595
O4    O     O_R   0.267532 0.517728 0.198311 -0.765655
O5    O     O_2   0.673708 0.279022 0.996058 -0.517664
O6    O     O_R   0.643038 0.310878 0.138160 -0.825242
O7    O     O_2   0.561564 0.237484 0.325576 -0.633306
O8    O     O_R   0.709914 0.144685 0.348611 -0.747921
O9    O     O_3   0.379289 0.218912 0.646228 -0.647567
O10   O     O_2   0.677503 0.937205 0.244692 -0.629494
O11   O     O_R   0.509817 0.011571 0.252587 -0.813118
O12   O     O_R   0.609320 0.646410 0.494190 -0.649326
O13   O     O_2   0.459657 0.928035 0.693997 -0.638117
O14   O     O_R   0.341341 0.056523 0.743438 -0.814436
O15   O     O_3   0.645495 0.768511 0.346879 -0.626839
O16   O     O_2   0.304781 0.806594 0.435960 -0.552991
O17   O     O_R   0.237349 0.870592 0.567007 -0.735066
O18   O     O_2   0.195066 0.278684 0.447688 -0.635673
O19   O     O_R   0.258674 0.373714 0.336257 -0.741756
O20   O     O_3   0.434986 0.665265 0.949867 -0.531016
O21   O     O_2   0.297734 0.685489 0.636093 -0.611696
O22   O     O_R   0.161491 0.632637 0.732640 -0.821697
O23   O     O_R   0.406150 0.506210 0.627840 -0.613461
O24   O     O_2   0.984049 0.225510 0.365251 -0.544886
O25   O     O_R   0.057169 0.343815 0.273114 -0.824077
O26   O     O_2   0.993611 0.776128 0.599329 -0.605282
O27   O     O_R   0.959590 0.688329 0.719817 -0.771393
O28   O     O_3   0.778866 0.362815 0.365571 -0.584958
O29   O     O_3   0.800838 0.576423 0.618925 -0.616492
O30   O     O_3   0.689212 0.444517 0.903258 -0.600088
O31   O     O_3   0.634531 0.618648 0.888242 -0.574851
O32   O     O_3   0.600059 0.662231 0.047218 -0.558095
O33   O     O_2   0.734904 0.530423 0.143285 -0.699960
O34   O     O_R   0.593770 0.493790 0.617880 -0.592639
O35   O     O_R   0.814948 0.481777 0.012294 -0.754487
O36   O     O_3   0.357118 0.338346 0.945688 -0.598946
O37   O     O_3   0.541208 0.292794 0.894708 -0.596147
O38   O     O_3   0.411246 0.321952 0.096907 -0.592864
O39   O     O_R   0.390680 0.353590 0.505810 -0.619649
O40   O     O_R   0.578310 0.341170 0.495860 -0.588437
O41   O     O_R   0.406230 0.506210 0.382120 -0.564449
O42   O     O_R   0.593850 0.493790 0.372160 -0.592760
O43   O     O_3   0.403717 0.652687 0.108264 -0.558910
Zn1   Zn    Zn3+2 0.374720 0.508290 0.506640 1.036028
Zn2   Zn    Zn3+2 0.625280 0.491710 0.493360 1.022130

loop_
_geom_bond_atom_site_label_1
_geom_bond_atom_site_label_2
_ccdc_geom_bond_type
C44   O26   D    
C40   O19   S    
C33   O7    D    
C44   O27   S    
H16   O22   S    
O12   Zn2   S    
C49   H29   S    
C54   H43   S    
C35   O9    S    
C15   N2    A    
C12   O43   S    
C28   C56   S    
C7    C8    A    
H18   O27   S    
C53   H41   S    
C25   C28   S    
C7    C11   A    
C12   C23   S    
C13   C18   A    
H48   O4    S    
C29   O43   S    
C10   C58   A    
C1    C2    S    
C46   H21   S    
H17   O25   S    
C23   C26   S    
C51   O35   S    
C21   C44   S    
C52   H39   S    
C53   O37   S    
C56   C57   T    
C52   H37   S    
C15   C17   A    
C9    C58   A    
C47   H24   S    
C11   C37   S    
C1    O12   A    
C10   O9    S    
C37   O13   D    
C34   O38   S    
C50   H32   S    
C29   H1    S    
C8    C9    A    
C49   O31   S    
C4    C57   S    
C38   H7    S    
C42   O21   D    
N2    Zn2   S    
C47   H25   S    
C31   O4    S    
C46   O28   S    
H36   O35   S    
C33   O8    S    
C39   O16   D    
C13   C14   A    
C9    C33   S    
C49   H30   S    
C2    C6    A    
C24   O2    S    
C47   H22   S    
H5    O11   S    
C15   O29   S    
C19   N1    A    
C53   H42   S    
C22   O42   A    
C28   C45   S    
C39   O17   S    
C48   O30   S    
C45   O36   S    
C14   O28   S    
C25   O30   S    
C38   H9    S    
C30   H34   S    
C3    C8    A    
C10   C11   A    
C46   H20   S    
C18   C19   A    
C25   C26   S    
H6    O14   S    
C17   C21   A    
C48   H26   S    
C30   O2    S    
C35   H2    S    
C32   C34   S    
C30   H45   S    
C43   O24   D    
O39   Zn1   S    
C29   H23   S    
H50   O8    S    
C37   O14   S    
O42   Zn2   S    
C23   C34   S    
C6    C39   S    
C17   C18   A    
C35   H3    S    
C34   C45   S    
C16   C58   S    
C32   O6    S    
C43   O25   S    
N1    Zn1   S    
H10   O17   S    
C16   O39   A    
O41   Zn1   S    
C41   H14   S    
O40   Zn2   S    
C30   H47   S    
C48   H28   S    
C2    C5    A    
C5    O15   S    
C13   C43   S    
C38   O15   S    
C54   O38   S    
C29   H12   S    
C54   H46   S    
C14   N2    A    
C38   H8    S    
C22   O41   A    
C52   O36   S    
C45   O37   S    
C54   H44   S    
C25   O31   S    
C24   C28   S    
C49   H31   S    
C3    C5    A    
C4    O34   A    
C46   H19   S    
C20   C42   S    
C50   H35   S    
C23   C55   S    
C6    C7    A    
C51   O33   D    
C53   H40   S    
C12   C24   S    
C41   H13   S    
C22   C27   S    
O34   Zn2   S    
C36   O11   S    
C12   C31   S    
C26   C51   S    
C1    O1    A    
C41   O20   S    
C42   O22   S    
C3    C36   S    
C52   H38   S    
C35   H4    S    
C27   C55   T    
C32   O5    D    
C36   O10   D    
O1    Zn1   S    
H49   O6    S    
C19   C40   S    
C41   H15   S    
C20   N1    A    
C24   O20   S    
C50   H33   S    
C20   C21   A    
H11   O19   S    
C47   O29   S    
C48   H27   S    
C16   O40   A    
C26   O32   S    
O23   Zn1   S    
C31   O3    D    
C50   O32   S    
C4    O23   A    
C40   O18   D    
