data_mof_unit_13734.cif
_audit_creation_date              2012-12-11T14:17:47-0500
_audit_creation_method            fapswitch 2.2
_symmetry_space_group_name_H-M    P1
_symmetry_Int_Tables_number       1
_space_group_crystal_system       triclinic
_cell_length_a                    11.202999
_cell_length_b                    11.177032
_cell_length_c                    18.849983
_cell_angle_alpha                 90.09074
_cell_angle_beta                  90.109302
_cell_angle_gamma                 120.365467
_cell_volume                      2036.51926119

loop_
_atom_site_label
_atom_site_type_symbol
_atom_type_description
_atom_site_fract_x
_atom_site_fract_y
_atom_site_fract_z
_atom_type_partial_charge
C1    C     C_R   0.525687 0.456981 0.145674 0.611168
C2    C     C_R   0.542751 0.068436 0.145884 0.598962
C3    C     C_R   0.929684 0.473755 0.145450 0.597587
C4    C     C_R   0.455820 0.518664 0.852932 0.620779
C5    C     C_R   0.064934 0.545258 0.853531 0.520056
C6    C     C_R   0.480758 0.934673 0.853700 0.530088
C7    C     C_R   0.392230 0.929148 0.451752 0.228878
C8    C     C_R   0.028373 0.451313 0.455725 0.191236
C9    C     C_R   0.521156 0.565987 0.452015 0.253016
C10   C     C_R   0.066351 0.460643 0.527159 0.217549
C11   C     C_R   0.375216 0.905820 0.525525 0.249954
C12   C     C_R   0.511305 0.595422 0.522907 0.193516
C13   C     C_R   0.741343 0.136462 0.589082 0.181952
C14   C     C_R   0.838591 0.576025 0.611690 0.188996
C15   C     C_R   0.420311 0.258760 0.610047 0.168504
C16   C     C_R   0.853830 0.661154 0.471176 0.189912
C17   C     C_R   0.773931 0.065084 0.451026 0.228498
C18   C     C_R   0.334762 0.187902 0.470035 0.174969
C19   C     C_R   0.869170 0.154736 0.567911 0.355127
C20   C     C_R   0.824880 0.690298 0.597021 0.367068
C21   C     C_R   0.303209 0.130261 0.595390 0.367747
C22   C     C_R   0.831267 0.731516 0.527604 0.286371
C23   C     C_R   0.886850 0.125343 0.498353 0.375119
C24   C     C_R   0.256367 0.097873 0.526012 0.344560
C25   C     C_R   0.541998 0.420249 0.361795 0.584507
C26   C     C_R   0.547538 0.063693 0.354005 0.594357
C27   C     C_R   0.879917 0.458126 0.361817 0.576715
C28   C     C_R   0.454376 0.521112 0.645686 0.639733
C29   C     C_R   0.065495 0.543867 0.646203 0.643349
C30   C     C_R   0.477161 0.930875 0.644661 0.626942
C31   C     C_R   0.500346 0.979904 0.928537 0.011261
C32   C     C_R   0.016933 0.517596 0.927733 -0.006095
C33   C     C_R   0.483643 0.499023 0.927199 0.058949
C34   C     C_R   0.986998 0.478903 0.074772 0.005242
C35   C     C_R   0.488956 0.008683 0.075499 0.034885
C36   C     C_R   0.519661 0.508738 0.074740 0.037447
C37   C     C_R   0.445324 0.060399 0.955251 -0.011544
C38   C     C_R   0.937434 0.380399 0.954419 -0.015596
C39   C     C_R   0.619644 0.562699 0.955135 0.011674
C40   C     C_R   0.942374 0.360021 0.029225 -0.026686
C41   C     C_R   0.416492 0.053602 0.029355 0.018610
C42   C     C_R   0.638944 0.586601 0.029930 0.007709
C43   C     C_R   0.530027 0.920936 0.049422 0.088002
C44   C     C_R   0.075023 0.607875 0.048811 0.082374
C45   C     C_R   0.389494 0.456346 0.046779 0.055754
C46   C     C_R   0.091860 0.628918 0.976565 0.053402
C47   C     C_R   0.532960 0.903007 0.977142 0.063947
C48   C     C_R   0.370371 0.452861 0.974045 0.056705
C49   C     C_R   0.398418 0.129148 0.909488 0.105790
C50   C     C_R   0.870906 0.262011 0.908922 0.119759
C51   C     C_R   0.736699 0.616024 0.910130 0.092889
C52   C     C_R   0.917523 0.226306 0.052299 0.121036
C53   C     C_R   0.305305 0.075143 0.050590 0.119203
C54   C     C_R   0.773234 0.693926 0.053958 0.120968
C55   C     C_R   0.289509 0.145909 0.931036 -0.097026
C56   C     C_R   0.843698 0.134247 0.933884 -0.102462
C57   C     C_R   0.865722 0.714882 0.935717 -0.136387
C58   C     C_R   0.869547 0.117418 0.003653 -0.120325
C59   C     C_R   0.239538 0.113080 0.999577 -0.159805
C60   C     C_R   0.883136 0.755333 0.005945 -0.138137
C61   C     C_R   0.490142 0.980566 0.571838 0.017672
C62   C     C_R   0.997489 0.495988 0.578202 0.027599
C63   C     C_R   0.494927 0.499318 0.576242 -0.003582
C64   C     C_R   0.928457 0.485505 0.435761 0.012946
C65   C     C_R   0.525537 0.005629 0.425640 0.013687
C66   C     C_R   0.509040 0.438981 0.434753 0.023040
C67   C     C_R   0.623957 0.062156 0.544148 -0.128634
C68   C     C_R   0.897813 0.530672 0.558890 -0.125086
C69   C     C_R   0.464750 0.364560 0.557674 -0.129376
C70   C     C_R   0.885592 0.553959 0.486453 -0.106358
C71   C     C_R   0.642130 0.045670 0.472081 -0.122997
C72   C     C_R   0.442841 0.327444 0.485357 -0.116947
Cr1   Cr    Cr6+3 0.768550 0.541320 0.250660 1.092809
Cr2   Cr    Cr6+3 0.458680 0.227230 0.250660 1.083263
Cr3   Cr    Cr6+3 0.772770 0.231450 0.250660 1.054749
Cr4   Cr    Cr6+3 0.541320 0.768550 0.749340 1.061227
Cr5   Cr    Cr6+3 0.227230 0.458680 0.749340 1.085501
Cr6   Cr    Cr6+3 0.231450 0.772770 0.749340 1.070839
H1    H     H_    0.242581 0.184013 0.894061 0.165717
H2    H     H_    0.805804 0.047592 0.897705 0.148140
H3    H     H_    0.952091 0.764119 0.899719 0.133705
H4    H     H_    0.856355 0.018554 0.019603 0.120128
H5    H     H_    0.148446 0.117722 0.013595 0.103914
H6    H     H_    0.983100 0.838419 0.022961 0.108998
O1    O     O_R   0.910960 0.572410 0.171010 -0.498249
O2    O     O_R   0.427590 0.338550 0.171010 -0.502934
O3    O     O_R   0.661450 0.089040 0.171010 -0.505976
O4    O     O_R   0.572410 0.910960 0.828990 -0.519147
O5    O     O_R   0.338550 0.427590 0.828990 -0.478807
O6    O     O_R   0.089040 0.661450 0.828990 -0.541152
O7    O     O_R   0.639750 0.528530 0.175600 -0.481125
O8    O     O_R   0.471470 0.111220 0.175600 -0.479254
O9    O     O_R   0.888780 0.360250 0.175600 -0.523474
O10   O     O_R   0.528530 0.639750 0.824400 -0.524238
O11   O     O_R   0.111220 0.471470 0.824400 -0.501795
O12   O     O_R   0.360250 0.888780 0.824400 -0.533765
O13   O     O_R   0.909330 0.572400 0.331540 -0.423993
O14   O     O_R   0.427600 0.336930 0.331540 -0.457234
O15   O     O_R   0.663070 0.090670 0.331540 -0.505157
O16   O     O_R   0.572400 0.909330 0.668460 -0.469973
O17   O     O_R   0.336930 0.427600 0.668460 -0.431707
O18   O     O_R   0.090670 0.663070 0.668460 -0.424778
O19   O     O_R   0.638240 0.528520 0.324410 -0.411649
O20   O     O_R   0.471480 0.109720 0.324410 -0.421869
O21   O     O_R   0.890280 0.361760 0.324410 -0.430699
O22   O     O_R   0.528520 0.638240 0.675590 -0.481496
O23   O     O_R   0.109720 0.471480 0.675590 -0.454698
O24   O     O_R   0.361760 0.890280 0.675590 -0.428936
O25   O     O_3   0.666667 0.333333 0.250630 -0.363741
O26   O     O_3   0.333333 0.666667 0.749370 -0.296862
N1    N     N_3   0.557175 0.839736 0.098080 -0.577698
H7    H     H_    0.483215 0.735492 0.090117 0.257249
H8    H     H_    0.652867 0.854726 0.084286 0.267095
N2    N     N_3   0.160783 0.714917 0.097719 -0.575736
H9    H     H_    0.155660 0.800847 0.082904 0.269444
H10   H     H_    0.262191 0.736763 0.090881 0.255564
N3    N     N_3   0.275853 0.410269 0.094217 -0.615526
H11   H     H_    0.209740 0.305889 0.083281 0.253663
H12   H     H_    0.227529 0.467964 0.085877 0.235415
N4    N     N_3   0.203165 0.760121 0.955165 -0.639927
H13   H     H_    0.269407 0.740003 0.925817 0.251849
H14   H     H_    0.167320 0.815050 0.926236 0.265502
N5    N     N_3   0.552481 0.792273 0.955313 -0.646770
H15   H     H_    0.465165 0.724016 0.926307 0.245562
H16   H     H_    0.643286 0.829285 0.926163 0.261803
N6    N     N_3   0.236450 0.415728 0.947775 -0.594518
H17   H     H_    0.163108 0.317565 0.965811 0.232757
H18   H     H_    0.215530 0.489096 0.968275 0.228916
N7    N     N_3   0.461896 0.187618 0.842522 -0.578720
H19   H     H_    0.557857 0.194324 0.838040 0.263481
H20   H     H_    0.396826 0.125009 0.801874 0.262900
N8    N     N_3   0.824201 0.264576 0.838234 -0.611208
H21   H     H_    0.819269 0.353521 0.828844 0.231591
H22   H     H_    0.889771 0.256634 0.801624 0.264900
N9    N     N_3   0.725835 0.571201 0.838022 -0.575423
H23   H     H_    0.793798 0.534372 0.831120 0.248732
H24   H     H_    0.761798 0.658688 0.805957 0.245478
N10   N     N_3   0.969227 0.202388 0.117463 -0.663710
H25   H     H_    0.037260 0.292199 0.144944 0.270169
H26   H     H_    0.888267 0.134265 0.149954 0.285526
N11   N     N_3   0.242385 0.038805 0.119571 -0.568945
H27   H     H_    0.136360 0.970026 0.113823 0.185824
H28   H     H_    0.244941 0.125505 0.141277 0.272255
N12   N     N_3   0.796208 0.759459 0.122313 -0.573695
H29   H     H_    0.838881 0.866046 0.115087 0.190400
H30   H     H_    0.875604 0.753868 0.147743 0.270738
O27   O     O_3   0.283987 0.873411 0.403456 -0.646749
H31   H     H_    0.194753 0.837792 0.428001 0.354108
O28   O     O_3   0.098080 0.423994 0.403692 -0.660172
H32   H     H_    0.198650 0.483311 0.412946 0.347251
O29   O     O_3   0.532857 0.654752 0.397880 -0.665667
H33   H     H_    0.508065 0.722654 0.415685 0.353433
O30   O     O_3   0.175567 0.444189 0.548504 -0.625384
H34   H     H_    0.195089 0.392252 0.512405 0.364079
O31   O     O_3   0.249846 0.808594 0.553482 -0.614757
H35   H     H_    0.201528 0.733966 0.518172 0.321593
O32   O     O_3   0.507722 0.713748 0.538438 -0.714583
H36   H     H_    0.585144 0.768345 0.571411 0.386969
O33   O     O_3   0.732478 0.186018 0.654832 -0.733773
H37   H     H_    0.648749 0.194586 0.655522 0.338724
O34   O     O_3   0.813726 0.525175 0.680134 -0.745555
H38   H     H_    0.808536 0.434255 0.680144 0.344066
O35   O     O_3   0.474596 0.284060 0.677858 -0.727848
H39   H     H_    0.563794 0.372180 0.677585 0.359109
O36   O     O_3   0.862046 0.710879 0.403710 -0.642137
H40   H     H_    0.905183 0.813057 0.404660 0.348525
O37   O     O_3   0.790820 0.002085 0.391747 -0.683855
H41   H     H_    0.700320 0.920540 0.379177 0.358400
O38   O     O_3   0.292101 0.140393 0.402678 -0.641350
H42   H     H_    0.217416 0.160381 0.391861 0.335835
O39   O     O_3   0.978682 0.196951 0.614545 -0.582561
H43   H     H_    0.947039 0.196342 0.663622 0.355919
O40   O     O_3   0.806335 0.766029 0.649276 -0.618204
H44   H     H_    0.828385 0.741775 0.695924 0.346372
O41   O     O_3   0.227851 0.035491 0.647710 -0.582495
H45   H     H_    0.263326 0.077154 0.694959 0.340850
O42   O     O_3   0.812747 0.841851 0.516077 -0.644786
H46   H     H_    0.756238 0.820629 0.472782 0.350460
O43   O     O_3   0.015059 0.147334 0.479398 -0.642740
H47   H     H_    0.019947 0.144772 0.427085 0.355008
O44   O     O_3   0.134496 0.974463 0.514826 -0.585320
H48   H     H_    0.103302 0.969845 0.465391 0.345288

loop_
_geom_bond_atom_site_label_1
_geom_bond_atom_site_label_2
_ccdc_geom_bond_type
C2    C35   S    
C54   N12   S    
O39   H43   S    
O36   H40   S    
C55   C59   A    
C3    O1    A    
O38   H42   S    
C39   C51   A    
N1    H7    S    
O27   H31   S    
Cr2   O25   S    
O34   H38   S    
C53   C59   A    
N10   H25   S    
N5    H15   S    
Cr2   O14   S    
C54   C60   A    
O40   H44   S    
Cr6   O6    S    
Cr1   O13   S    
Cr5   O5    S    
C33   C39   A    
C18   C24   A    
C15   O35   S    
C19   O39   S    
C4    O5    A    
C58   H4    S    
O33   H37   S    
Cr3   O3    S    
C50   N8    S    
N5    H16   S    
Cr6   O18   S    
C27   O21   A    
C30   O16   A    
C6    O4    A    
N6    H18   S    
Cr6   O24   S    
Cr2   O8    S    
C9    C66   A    
C18   O38   S    
Cr4   O22   S    
Cr4   O10   S    
C4    C33   S    
C51   N9    S    
C28   O17   A    
O32   H36   S    
C66   C72   A    
N1    H8    S    
O35   H39   S    
C44   C46   A    
N8    H21   S    
C21   O41   S    
C29   O18   A    
Cr1   O19   S    
C52   N10   S    
O29   H33   S    
C51   C57   A    
C32   C38   A    
C12   O32   S    
C53   N11   S    
C35   C43   A    
Cr4   O4    S    
C23   O43   S    
C5    O6    A    
C11   O31   S    
C26   O15   A    
C5    C32   S    
C26   O20   A    
C6    C31   S    
C44   N2    S    
C1    O7    A    
C31   C47   A    
C33   C48   A    
C10   C62   A    
C43   N1    S    
C22   O42   S    
C10   O30   S    
C5    O11   A    
N4    H14   S    
N2    H9    S    
C39   C42   A    
C7    O27   S    
C18   C72   A    
C15   C69   A    
Cr3   O25   S    
C38   C50   A    
C13   C19   A    
C63   C69   A    
N9    H23   S    
C16   C70   A    
Cr1   O7    S    
C3    O9    A    
C17   O37   S    
Cr6   O12   S    
O37   H41   S    
C12   C63   A    
C19   C23   A    
C25   O19   A    
C57   C60   A    
C3    C34   S    
C65   C71   A    
C49   N7    S    
Cr5   O11   S    
C50   C56   A    
C31   C37   A    
N11   H28   S    
O44   H48   S    
C69   C72   A    
C7    C11   A    
C14   C20   A    
C28   O22   A    
C7    C65   A    
C55   H1    S    
C61   C67   A    
C47   N5    S    
C20   O40   S    
Cr5   O23   S    
C16   O36   S    
Cr1   O1    S    
Cr3   O15   S    
C46   N4    S    
C36   C45   A    
Cr6   O26   S    
C17   C23   A    
Cr2   O2    S    
C2    O8    A    
C41   C53   A    
C37   C49   A    
C52   C58   A    
C8    C64   A    
C4    O10   A    
N12   H30   S    
C20   C22   A    
C17   C71   A    
C64   C70   A    
N11   H27   S    
C34   C40   A    
C21   C24   A    
N4    H13   S    
Cr3   O9    S    
Cr2   O20   S    
N7    H19   S    
C13   C67   A    
C45   C48   A    
C45   N3    S    
C1    O2    A    
N9    H24   S    
C34   C44   A    
C29   C62   S    
C27   O13   A    
C16   C22   A    
C30   O24   A    
C24   O44   S    
C26   C65   S    
C32   C46   A    
C8    C10   A    
C25   C66   S    
C59   H5    S    
N12   H29   S    
C11   C61   A    
C49   C55   A    
C36   C42   A    
N2    H10   S    
Cr1   O25   S    
N10   H26   S    
Cr4   O16   S    
C6    O12   A    
C56   H2    S    
Cr4   O26   S    
C62   C68   A    
C9    O29   S    
C14   O34   S    
N3    H12   S    
C8    O28   S    
O41   H45   S    
C40   C52   A    
O28   H32   S    
C42   C54   A    
C38   C40   A    
C60   H6    S    
N6    H17   S    
C56   C58   A    
Cr5   O17   S    
C67   C71   A    
C37   C41   A    
Cr5   O26   S    
C35   C41   A    
C57   H3    S    
C9    C12   A    
C48   N6    S    
O43   H47   S    
C28   C63   S    
C2    O3    A    
C25   O14   A    
C15   C21   A    
N8    H22   S    
O42   H46   S    
C30   C61   S    
O31   H35   S    
C27   C64   S    
C68   C70   A    
C14   C68   A    
C29   O23   A    
Cr3   O21   S    
O30   H34   S    
N3    H11   S    
C43   C47   A    
C13   O33   S    
C1    C36   S    
N7    H20   S    
