data_mof_unit_47028.cif
_audit_creation_date              2012-12-11T15:55:39-0500
_audit_creation_method            fapswitch 2.2
_symmetry_space_group_name_H-M    P1
_symmetry_Int_Tables_number       1
_space_group_crystal_system       triclinic
_cell_length_a                    11.006156
_cell_length_b                    11.10226
_cell_length_c                    18.810687
_cell_angle_alpha                 91.077372
_cell_angle_beta                  90.960336
_cell_angle_gamma                 59.330667
_cell_volume                      1976.61286576

loop_
_atom_site_label
_atom_site_type_symbol
_atom_type_description
_atom_site_fract_x
_atom_site_fract_y
_atom_site_fract_z
_atom_type_partial_charge
C1    C     C_R   0.357114 0.774519 0.399132 0.538467
C2    C     C_R   0.608172 0.093836 0.187949 0.110182
C3    C     C_R   0.330042 0.280677 0.176816 0.038887
C4    C     C_R   0.442447 0.188954 0.289281 -0.175266
C5    C     C_R   0.455478 0.183306 0.215490 -0.014657
C6    C     C_R   0.012567 0.653862 0.299534 -0.109964
C7    C     C_R   0.905735 0.761241 0.340426 -0.185217
C8    C     C_R   0.653271 0.997768 0.129325 -0.049138
C9    C     C_R   0.795238 0.916871 0.110170 -0.116330
C10   C     C_R   0.211200 0.386708 0.213889 -0.159887
C11   C     C_R   0.214454 0.404301 0.287469 -0.026465
C12   C     C_R   0.379785 0.347827 0.391733 0.531790
C13   C     C_R   0.875407 0.734121 0.407907 -0.083123
C14   C     C_R   0.949321 0.598537 0.434295 0.410958
C15   C     C_R   0.051820 0.489666 0.392673 -0.029398
C16   C     C_R   0.088916 0.516870 0.325904 -0.004583
C17   C     C_R   0.337922 0.309971 0.324112 -0.007177
C18   C     C_R   0.873650 0.337140 0.184605 0.063077
C19   C     C_R   0.736095 0.426420 0.206466 0.015238
C20   C     C_R   0.703395 0.432992 0.277117 -0.049194
C21   C     C_R   0.950037 0.287824 0.307822 -0.170271
C22   C     C_R   0.982320 0.279035 0.235844 -0.166989
C23   C     C_R   0.771521 0.381268 0.401792 0.550468
C24   C     C_3   0.598834 0.444721 0.181277 0.241966
C25   C     C_3   0.563208 0.446670 0.259524 -0.203475
C26   C     C_R   0.808668 0.357298 0.328186 0.016086
C27   C     C_R   0.328952 0.880429 0.183539 0.015275
C28   C     C_R   0.459075 0.789861 0.215094 -0.034474
C29   C     C_R   0.466452 0.769635 0.287950 0.019584
C30   C     C_R   0.215093 0.916643 0.298718 -0.166006
C31   C     C_R   0.207759 0.942085 0.226479 -0.160990
C32   C     C_3   0.588000 0.800801 0.219951 -0.295805
C33   C     C_3   0.597770 0.773499 0.298353 -0.245752
C34   C     C_R   0.342226 0.772569 0.603114 0.547839
C35   C     C_R   0.346096 0.832200 0.330181 0.025176
C36   C     C_R   0.302248 0.320912 0.812646 0.008939
C37   C     C_R   0.433242 0.243611 0.781840 0.007257
C38   C     C_R   0.448961 0.247990 0.710743 0.017784
C39   C     C_R   0.198061 0.397232 0.694340 -0.157982
C40   C     C_R   0.181611 0.392454 0.768220 -0.157155
C41   C     C_3   0.566401 0.241609 0.799791 -0.275156
C42   C     C_3   0.584038 0.246805 0.720594 -0.245877
C43   C     C_R   0.334812 0.328132 0.665815 0.030239
C44   C     C_R   0.841774 0.316731 0.830373 -0.011870
C45   C     C_R   0.369638 0.350392 0.595376 0.549893
C46   C     C_R   0.797394 0.444257 0.798573 0.080152
C47   C     C_R   0.788348 0.457783 0.726683 0.013794
C48   C     C_R   0.883135 0.210072 0.711390 -0.166916
C49   C     C_R   0.894352 0.196316 0.785994 -0.163530
C50   C     C_3   0.669911 0.584004 0.812011 -0.052770
C51   C     C_3   0.658655 0.599970 0.731843 -0.204716
C52   C     C_R   0.820721 0.344222 0.681633 0.000402
C53   C     C_R   0.284678 0.877630 0.820030 -0.010702
C54   C     C_R   0.204095 0.831704 0.785457 -0.007007
C55   C     C_R   0.214792 0.810996 0.713367 -0.004005
C56   C     C_R   0.766018 0.376482 0.609430 0.547184
C57   C     C_R   0.367469 0.907687 0.705025 0.060257
C58   C     C_R   0.355011 0.929179 0.778977 -0.139093
C59   C     C_3   0.195998 0.704230 0.798729 -0.273392
C60   C     C_3   0.208436 0.680129 0.719099 -0.244924
C61   C     C_R   0.304947 0.837131 0.672906 0.047678
C62   C     C_R   0.911213 0.316811 0.111238 0.575414
C63   C     C_R   0.306735 0.260390 0.101873 0.568632
C64   C     C_R   0.304596 0.905920 0.107342 0.534126
C65   C     C_R   0.885769 0.306982 0.904016 0.551433
C66   C     C_R   0.293485 0.287748 0.885230 0.562375
C67   C     C_R   0.898630 0.921288 0.151373 -0.084340
C68   C     C_R   0.270240 0.903535 0.895650 0.550001
C69   C     C_R   0.859570 0.005250 0.212066 -0.097643
C70   C     C_R   0.718512 0.089246 0.229987 -0.042254
Cr1   Cr    Cr6+3 0.601740 0.606840 0.505840 1.065505
Cr2   Cr    Cr6+3 0.291500 0.601560 0.495070 1.044646
Cr3   Cr    Cr6+3 0.606780 0.291630 0.499130 1.008360
Cr4   Cr    Cr6+3 0.062440 0.063060 0.008240 1.033241
Cr5   Cr    Cr6+3 0.062950 0.375000 0.998920 1.011141
Cr6   Cr    Cr6+3 0.374550 0.061770 0.992470 0.991423
H1    H     H_    0.529190 0.108726 0.320018 0.123946
H2    H     H_    0.794633 0.818416 0.439699 0.118238
H3    H     H_    0.107904 0.385083 0.414280 0.107800
H4    H     H_    0.034243 0.238955 0.346876 0.111114
H5    H     H_    0.091736 0.223639 0.219861 0.109858
H6    H     H_    0.531652 0.544919 0.153395 0.126097
H7    H     H_    0.470221 0.545820 0.276771 0.106795
H8    H     H_    0.554400 0.357684 0.276119 0.159496
H9    H     H_    0.119438 0.961659 0.329803 0.125779
H10   H     H_    0.825639 0.844039 0.065737 0.097316
H11   H     H_    0.106264 0.011018 0.203020 0.150243
H12   H     H_    0.555867 0.909154 0.212361 0.141078
H13   H     H_    0.678231 0.719601 0.188491 0.142256
H14   H     H_    0.689821 0.671048 0.313323 0.172539
H15   H     H_    0.582352 0.863460 0.332110 0.130375
H16   H     H_    0.106553 0.458708 0.660773 0.161191
H17   H     H_    0.076402 0.444475 0.790337 0.158743
H18   H     H_    0.647115 0.140984 0.823884 0.152936
H19   H     H_    0.547894 0.337712 0.828808 0.129899
H20   H     H_    0.574245 0.346726 0.703699 0.137040
H21   H     H_    0.847235 0.866503 0.320841 0.117572
H22   H     H_    0.674235 0.149098 0.698460 0.155755
H23   H     H_    0.914759 0.118580 0.677894 0.133509
H24   H     H_    0.942898 0.092912 0.808688 0.150366
H25   H     H_    0.580749 0.580683 0.837136 0.115852
H26   H     H_    0.564044 0.601334 0.709369 0.108747
H27   H     H_    0.678647 0.681901 0.712227 0.164360
H28   H     H_    0.403509 0.982762 0.804313 0.148127
H29   H     H_    0.091312 0.730183 0.819509 0.153997
H30   H     H_    0.009026 0.853268 0.138816 0.135821
H31   H     H_    0.288855 0.623015 0.828842 0.132220
H32   H     H_    0.309287 0.585477 0.703255 0.139442
H33   H     H_    0.111385 0.691102 0.693758 0.160497
H34   H     H_    0.937411 0.999755 0.249062 0.094496
H35   H     H_    0.699447 0.143586 0.280226 0.103318
H36   H     H_    0.038580 0.678596 0.248699 0.121428
H37   H     H_    0.584873 0.968407 0.102850 0.151070
H38   H     H_    0.113932 0.455322 0.185582 0.141427
O1    O     O_R   0.748670 0.497520 0.427970 -0.474304
O2    O     O_R   0.300170 0.471020 0.567120 -0.499813
O3    O     O_R   0.491630 0.259030 0.574940 -0.513085
O4    O     O_R   0.718640 0.304340 0.577850 -0.517549
O5    O     O_3   0.500010 0.500010 0.500020 -0.268064
O6    O     O_R   0.186620 0.923750 0.087000 -0.528830
O7    O     O_R   0.957350 0.194160 0.084660 -0.475524
O8    O     O_R   0.935120 0.407280 0.085350 -0.550724
O9    O     O_R   0.203800 0.365060 0.067090 -0.500058
O10   O     O_R   0.417470 0.174910 0.067830 -0.504081
O11   O     O_R   0.375160 0.946380 0.070880 -0.537132
O12   O     O_R   0.476470 0.723930 0.429450 -0.503482
O13   O     O_R   0.160500 0.919670 0.926690 -0.508884
O14   O     O_R   0.933140 0.190380 0.936050 -0.498569
O15   O     O_R   0.909010 0.403210 0.925030 -0.510050
O16   O     O_R   0.179590 0.361290 0.918480 -0.498534
O17   O     O_R   0.391360 0.170840 0.907510 -0.518229
O18   O     O_R   0.350950 0.942600 0.922260 -0.521499
O19   O     O_3   0.166650 0.166610 0.999880 -0.284120
O20   O     O_R   0.264730 0.744140 0.416740 -0.513741
O21   O     O_R   0.309440 0.472410 0.418220 -0.488782
O22   O     O_R   0.501630 0.260530 0.414310 -0.536153
O23   O     O_R   0.727920 0.305730 0.428950 -0.508773
O24   O     O_R   0.738670 0.496020 0.588600 -0.463845
O25   O     O_R   0.467190 0.722540 0.578350 -0.511053
O26   O     O_R   0.254720 0.742640 0.577370 -0.521141
F1    F     F_    0.923142 0.572704 0.500771 -0.632997
F2    F     F_    0.615271 0.330018 0.143235 -0.622081
N1    N     N_3   0.707422 0.679179 0.847150 -0.615828
H39   H     H_    0.623980 0.781394 0.839803 0.229745
H40   H     H_    0.712732 0.661690 0.901805 0.252816
N2    N     N_3   0.443894 0.954844 0.663809 -0.608251
H41   H     H_    0.532718 0.868133 0.642276 0.244194
H42   H     H_    0.485317 0.000804 0.697457 0.226302

loop_
_geom_bond_atom_site_label_1
_geom_bond_atom_site_label_2
_ccdc_geom_bond_type
C44   C49   A    
C7    C13   A    
C21   C26   A    
Cr3   O5    S    
C63   O9    A    
Cr5   O8    S    
C41   C42   S    
C19   C20   A    
C40   H17   S    
C63   O10   A    
C41   H18   S    
C53   C54   A    
C51   H26   S    
C59   H29   S    
C20   C26   A    
C30   C35   A    
C42   H20   S    
C21   C22   A    
C28   C29   A    
N2    H41   S    
C33   H15   S    
C30   C31   A    
Cr6   O17   S    
C36   C66   S    
C20   C25   S    
C51   H27   S    
N1    H39   S    
C32   H12   S    
Cr4   O19   S    
C29   C33   S    
C34   O25   A    
Cr2   O5    S    
C18   C19   A    
C11   C16   S    
C23   C26   S    
C68   O18   A    
C53   C68   S    
C24   H6    S    
C60   H33   S    
C46   C47   A    
C52   C56   S    
Cr4   O14   S    
C32   H13   S    
C24   F2    S    
C8    C9    A    
C12   O21   A    
C12   C17   S    
C25   H8    S    
Cr1   O12   S    
C60   H32   S    
Cr5   O16   S    
C46   C50   S    
C14   F1    S    
C59   C60   S    
C55   C60   S    
Cr6   O11   S    
C44   C65   S    
C56   O4    A    
C44   C46   A    
C22   H5    S    
Cr1   O24   S    
N2    H42   S    
C54   C59   S    
C15   H3    S    
Cr3   O3    S    
C27   C31   A    
Cr6   O10   S    
C65   O14   A    
C36   C40   A    
C31   H11   S    
C1    O12   A    
C10   H38   S    
C27   C64   S    
C39   C40   A    
C18   C62   S    
Cr2   O21   S    
C39   C43   A    
C6    C16   A    
C34   C61   S    
C59   H31   S    
C67   C69   A    
C9    C67   A    
C37   C38   A    
C65   O15   A    
C47   C51   S    
C9    H10   S    
C56   O24   A    
C69   H34   S    
Cr2   O20   S    
Cr4   O13   S    
Cr3   O22   S    
C28   C32   S    
Cr6   O19   S    
C50   C51   S    
Cr1   O1    S    
C24   C25   S    
C30   H9    S    
C43   C45   S    
C68   O13   A    
C47   C52   A    
C8    H37   S    
C4    C17   A    
C48   C49   A    
Cr5   O9    S    
C2    C5    S    
C58   H28   S    
Cr2   O26   S    
C1    O20   A    
C39   H16   S    
C62   O8    A    
C50   N1    S    
C1    C35   S    
C66   O17   A    
C45   O3    A    
N1    H40   S    
C48   H23   S    
C29   C35   A    
C54   C55   A    
C36   C37   A    
Cr3   O4    S    
C7    H21   S    
C18   C22   A    
C6    H36   S    
C23   O23   A    
C2    C8    A    
C4    C5    A    
C3    C5    A    
C11   C17   A    
Cr1   O25   S    
C53   C58   A    
Cr5   O19   S    
C67   H30   S    
C57   C61   A    
C6    C7    A    
C3    C63   S    
Cr4   O6    S    
Cr2   O2    S    
C70   H35   S    
C64   O6    A    
Cr1   O5    S    
C57   N2    S    
C32   C33   S    
C42   H22   S    
C19   C24   S    
C38   C43   A    
C3    C10   A    
C2    C70   A    
C33   H14   S    
C49   H24   S    
Cr6   O18   S    
C45   O2    A    
C57   C58   A    
C41   H19   S    
Cr3   O23   S    
C55   C61   A    
C21   H4    S    
C34   O26   A    
C37   C41   S    
C69   C70   A    
C10   C11   A    
C13   H2    S    
C23   O1    A    
C38   C42   S    
Cr5   O15   S    
C4    H1    S    
C48   C52   A    
Cr4   O7    S    
C50   H25   S    
C64   O11   A    
C12   O22   A    
C27   C28   A    
C25   H7    S    
C14   C15   A    
C13   C14   A    
C62   O7    A    
C15   C16   A    
C66   O16   A    
