data_mof_unit_59199.cif
_audit_creation_date              2013-03-05T15:51:28-0500
_audit_creation_method            fapswitch 2.2
_symmetry_space_group_name_H-M    P1
_symmetry_Int_Tables_number       1
_space_group_crystal_system       triclinic
_cell_length_a                    19.060077
_cell_length_b                    10.96866
_cell_length_c                    18.773084
_cell_angle_alpha                 90.002874
_cell_angle_beta                  90.333757
_cell_angle_gamma                 90.219916
_cell_volume                      3924.67121703

loop_
_atom_site_label
_atom_site_type_symbol
_atom_site_description
_atom_site_fract_x
_atom_site_fract_y
_atom_site_fract_z
_atom_type_partial_charge
O1    O     O_R   0.957020 0.451640 0.669920 -0.521273
O2    O     O_R   0.042980 0.451640 0.330080 -0.526614
O3    O     O_R   0.457020 0.951640 0.669920 -0.520285
O4    O     O_R   0.542980 0.951640 0.330080 -0.526078
O5    O     O_R   0.821450 0.543440 0.674610 -0.498908
O6    O     O_R   0.178550 0.543440 0.325390 -0.488625
O7    O     O_R   0.321450 0.043440 0.674610 -0.493402
O8    O     O_R   0.678550 0.043440 0.325390 -0.491602
C1    C     C_R   0.760107 0.535460 0.646819 0.532972
C2    C     C_R   0.238647 0.529662 0.355108 0.554719
C3    C     C_R   0.260110 0.035436 0.646794 0.543818
C4    C     C_R   0.738649 0.029675 0.355106 0.547095
O9    O     O_R   0.715320 0.458650 0.668100 -0.528761
O10   O     O_R   0.284680 0.458650 0.331900 -0.529286
O11   O     O_R   0.215320 0.958650 0.668100 -0.529233
O12   O     O_R   0.784680 0.958650 0.331900 -0.532167
O13   O     O_R   0.737170 0.209590 0.674530 -0.507891
O14   O     O_R   0.262830 0.209590 0.325470 -0.503107
O15   O     O_R   0.237170 0.709590 0.674530 -0.509399
O16   O     O_R   0.762830 0.709590 0.325470 -0.502410
C5    C     C_R   0.773273 0.126524 0.646052 0.540625
C6    C     C_R   0.208553 0.171420 0.361138 0.560666
C7    C     C_R   0.273276 0.626529 0.646050 0.543893
C8    C     C_R   0.708636 0.671196 0.361212 0.559145
O17   O     O_R   0.832710 0.092740 0.669580 -0.519123
O18   O     O_R   0.167290 0.092740 0.330420 -0.515644
O19   O     O_R   0.332710 0.592740 0.669580 -0.515283
O20   O     O_R   0.667290 0.592740 0.330420 -0.516811
O21   O     O_R   0.946290 0.250060 0.676040 -0.503639
O22   O     O_R   0.053710 0.250060 0.323960 -0.510716
O23   O     O_R   0.446290 0.750060 0.676040 -0.502448
O24   O     O_R   0.553710 0.750060 0.323960 -0.512687
C9    C     C_R   0.973253 0.344348 0.648144 0.528728
C10   C     C_R   0.029116 0.347620 0.353950 0.532504
C11   C     C_R   0.473254 0.844354 0.648144 0.526520
C12   C     C_R   0.529115 0.847619 0.353950 0.531825
O25   O     O_R   0.956270 0.452200 0.830470 -0.524253
O26   O     O_R   0.043730 0.452200 0.169530 -0.536712
O27   O     O_R   0.456270 0.952200 0.830470 -0.524537
O28   O     O_R   0.543730 0.952200 0.169530 -0.537008
O29   O     O_R   0.820760 0.543950 0.823440 -0.514987
O30   O     O_R   0.179240 0.543950 0.176560 -0.499119
O31   O     O_R   0.320760 0.043950 0.823440 -0.511655
O32   O     O_R   0.679240 0.043950 0.176560 -0.518899
C13   C     C_R   0.759727 0.534099 0.851542 0.540147
C14   C     C_R   0.225958 0.482849 0.140363 0.571072
C15   C     C_R   0.274062 0.983312 0.859701 0.569050
C16   C     C_R   0.736980 0.023991 0.144801 0.583453
O33   O     O_R   0.714570 0.459210 0.828640 -0.474262
O34   O     O_R   0.285430 0.459210 0.171360 -0.458720
O35   O     O_R   0.214570 0.959210 0.828640 -0.433586
O36   O     O_R   0.785430 0.959210 0.171360 -0.481918
O37   O     O_R   0.736470 0.210100 0.823360 -0.504782
O38   O     O_R   0.263530 0.210100 0.176640 -0.524471
O39   O     O_R   0.236470 0.710100 0.823360 -0.520765
O40   O     O_R   0.763530 0.710100 0.176640 -0.509808
C17   C     C_R   0.772090 0.124096 0.852302 0.542208
C18   C     C_R   0.228135 0.124424 0.147500 0.548193
C19   C     C_R   0.271696 0.622271 0.851936 0.533508
C20   C     C_R   0.725031 0.632880 0.144240 0.558220
O41   O     O_R   0.831960 0.093290 0.830130 -0.519164
O42   O     O_R   0.168040 0.093290 0.169870 -0.517821
O43   O     O_R   0.331960 0.593290 0.830130 -0.513648
O44   O     O_R   0.668040 0.593290 0.169870 -0.511882
O45   O     O_R   0.945600 0.250580 0.824860 -0.499739
O46   O     O_R   0.054400 0.250580 0.175140 -0.479247
O47   O     O_R   0.445600 0.750580 0.824860 -0.494886
O48   O     O_R   0.554400 0.750580 0.175140 -0.482198
C21   C     C_R   0.970210 0.347574 0.853256 0.553919
C22   C     C_R   0.032187 0.346744 0.145098 0.579355
C23   C     C_R   0.469434 0.847290 0.854053 0.541405
C24   C     C_R   0.530028 0.846239 0.146451 0.570583
Cr1   Cr    Cr6+3 0.885860 0.491680 0.749630 1.014745
Cr2   Cr    Cr6+3 0.114140 0.491680 0.250370 1.013197
Cr3   Cr    Cr6+3 0.385860 0.991680 0.749630 1.022515
Cr4   Cr    Cr6+3 0.614140 0.991680 0.250370 1.011280
Cr5   Cr    Cr6+3 0.730490 0.332970 0.748720 1.048356
Cr6   Cr    Cr6+3 0.269510 0.332970 0.251280 1.026420
Cr7   Cr    Cr6+3 0.230490 0.832970 0.748720 1.041552
Cr8   Cr    Cr6+3 0.769510 0.832970 0.251280 1.027564
Cr9   Cr    Cr6+3 0.887570 0.179310 0.750150 1.033807
Cr10  Cr    Cr6+3 0.112430 0.179310 0.249850 1.036107
Cr11  Cr    Cr6+3 0.387570 0.679310 0.750150 1.035312
Cr12  Cr    Cr6+3 0.612430 0.679310 0.249850 1.040655
O49   O     O_3   0.834640 0.334650 0.749500 -0.254549
O50   O     O_3   0.165360 0.334650 0.250500 -0.303618
O51   O     O_3   0.334640 0.834650 0.749500 -0.278850
O52   O     O_3   0.665360 0.834650 0.250500 -0.284894
C25   C     C_R   0.746776 0.058940 0.429112 0.025010
C26   C     C_R   0.242671 0.104857 0.582828 0.013458
C27   C     C_R   0.246770 0.558914 0.429116 0.023405
C28   C     C_R   0.742693 0.604895 0.582879 0.012197
C29   C     C_R   0.707975 0.150610 0.460283 0.027474
C30   C     C_R   0.295252 0.155511 0.541074 -0.003677
C31   C     C_R   0.207930 0.650539 0.460297 0.027258
C32   C     C_R   0.795297 0.655500 0.541134 -0.003589
C33   C     C_R   0.713024 0.167638 0.532938 0.022509
C34   C     C_R   0.283494 0.179685 0.469925 0.006190
C35   C     C_R   0.212987 0.667582 0.532948 0.022505
C36   C     C_R   0.783569 0.679525 0.469968 0.006350
C37   C     C_R   0.784091 0.987497 0.545720 -0.147213
C38   C     C_R   0.162443 0.124654 0.481891 -0.160515
C39   C     C_R   0.284127 0.487508 0.545722 -0.146295
C40   C     C_R   0.662507 0.624551 0.481916 -0.160189
C41   C     C_R   0.783316 0.975447 0.472582 -0.141836
C42   C     C_R   0.174051 0.100794 0.554375 -0.156597
C43   C     C_R   0.283355 0.475454 0.472582 -0.142873
C44   C     C_R   0.674081 0.600843 0.554421 -0.157663
C45   C     C_3   0.712420 0.284128 0.445487 -0.277968
C46   C     C_3   0.368052 0.113252 0.527663 -0.251569
C47   C     C_3   0.212301 0.784069 0.445494 -0.276727
C48   C     C_3   0.868127 0.613294 0.527789 -0.250828
C49   C     C_3   0.718226 0.302831 0.525096 -0.241933
C50   C     C_3   0.355056 0.140169 0.449348 -0.269809
C51   C     C_3   0.218140 0.802786 0.525099 -0.242871
C52   C     C_3   0.855158 0.640058 0.449444 -0.269854
C53   C     C_R   0.752094 0.088382 0.576222 0.018660
C54   C     C_R   0.218800 0.156127 0.437733 0.014122
C55   C     C_R   0.252089 0.588364 0.576229 0.018835
C56   C     C_R   0.718895 0.655841 0.437769 0.014345
H1    H     H_    0.815249 0.924968 0.577344 0.137804
H2    H     H_    0.110919 0.109687 0.459374 0.151105
H3    H     H_    0.315319 0.425015 0.577345 0.139289
H4    H     H_    0.610981 0.609665 0.459383 0.151047
H5    H     H_    0.813426 0.902509 0.449819 0.145205
H6    H     H_    0.131146 0.065664 0.585794 0.132873
H7    H     H_    0.313494 0.402535 0.449819 0.144954
H8    H     H_    0.631163 0.565812 0.585854 0.132657
H9    H     H_    0.162751 0.820271 0.422404 0.152061
H10   H     H_    0.875419 0.514614 0.539136 0.156238
H11   H     H_    0.662903 0.320414 0.422373 0.151785
H12   H     H_    0.375301 0.014547 0.538952 0.155423
H13   H     H_    0.760835 0.310395 0.416334 0.139953
H14   H     H_    0.406959 0.175199 0.553094 0.153290
H15   H     H_    0.260687 0.810422 0.416314 0.141217
H16   H     H_    0.906997 0.675338 0.553204 0.152324
H17   H     H_    0.770176 0.339465 0.542065 0.142910
H18   H     H_    0.386953 0.217470 0.428928 0.124165
H19   H     H_    0.270087 0.839480 0.542036 0.142190
H20   H     H_    0.887027 0.717381 0.428998 0.124030
H21   H     H_    0.671908 0.349528 0.547658 0.152591
H22   H     H_    0.354555 0.057072 0.415366 0.147414
H23   H     H_    0.171824 0.849456 0.547686 0.152022
H24   H     H_    0.854720 0.556894 0.415508 0.146899
C57   C     C_R   0.002994 0.347226 0.428432 -0.040034
C58   C     C_R   0.008599 0.330267 0.578433 -0.039658
C59   C     C_R   0.502996 0.847222 0.428433 -0.039482
C60   C     C_R   0.508605 0.830292 0.578432 -0.041208
C61   C     C_R   0.964700 0.132671 0.421982 -0.089456
C62   C     C_R   0.989705 0.106464 0.567312 -0.078867
C63   C     C_R   0.464742 0.632635 0.422004 -0.089116
C64   C     C_R   0.489769 0.606481 0.567335 -0.078917
C65   C     C_R   0.956962 0.019038 0.454083 -0.126041
C66   C     C_R   0.970846 0.005451 0.526331 -0.136981
C67   C     C_R   0.457037 0.518989 0.454121 -0.126358
C68   C     C_R   0.470931 0.505439 0.526370 -0.136822
C69   C     C_R   0.995074 0.224162 0.536640 0.007586
C70   C     C_R   0.987569 0.235027 0.461803 -0.015631
C71   C     C_R   0.495109 0.724171 0.536648 0.007273
C72   C     C_R   0.487598 0.735014 0.461813 -0.015384
H25   H     H_    0.940974 0.941017 0.422564 0.108622
H26   H     H_    0.966700 0.916411 0.550854 0.102019
H27   H     H_    0.441069 0.440914 0.422640 0.108773
H28   H     H_    0.466815 0.416403 0.550907 0.103206
H29   H     H_    0.951989 0.139901 0.365908 0.149174
H30   H     H_    0.003305 0.089775 0.622397 0.138780
H31   H     H_    0.452026 0.639874 0.365932 0.149865
H32   H     H_    0.503376 0.589828 0.622423 0.139940
C73   C     C_R   0.029615 0.438546 0.544767 0.006233
C74   C     C_R   0.016064 0.453240 0.471637 0.017130
C75   C     C_R   0.529601 0.938579 0.544759 0.005984
C76   C     C_R   0.516055 0.953250 0.471628 0.017462
C77   C     C_R   0.056779 0.537598 0.584756 -0.069957
C78   C     C_R   0.015121 0.574928 0.445059 -0.070488
C79   C     C_R   0.556755 0.037650 0.584738 -0.069964
C80   C     C_R   0.515108 0.074936 0.445040 -0.070363
C81   C     C_R   0.057284 0.654721 0.556766 -0.120539
C82   C     C_R   0.035678 0.673653 0.487081 -0.143928
C83   C     C_R   0.557295 0.154764 0.556728 -0.119793
C84   C     C_R   0.535689 0.173683 0.487043 -0.144234
H33   H     H_    0.993281 0.598023 0.393684 0.142634
H34   H     H_    0.074104 0.525423 0.639359 0.130381
H35   H     H_    0.493252 0.098006 0.393669 0.142788
H36   H     H_    0.574064 0.025496 0.639343 0.129678
H37   H     H_    0.073477 0.730960 0.589611 0.112230
H38   H     H_    0.033959 0.765179 0.465660 0.101373
H39   H     H_    0.573493 0.231020 0.589558 0.113862
H40   H     H_    0.533973 0.265227 0.465623 0.101302
C85   C     C_R   0.740639 0.046338 0.068661 0.065716
C86   C     C_R   0.270477 0.010565 0.935894 0.058181
C87   C     C_R   0.230434 0.504431 0.063312 0.044983
C88   C     C_R   0.743299 0.591690 0.919542 0.001016
C89   C     C_R   0.792973 0.986885 0.030958 0.020105
C90   C     C_R   0.230852 0.936444 0.981165 0.023514
C91   C     C_R   0.289930 0.465860 0.026846 -0.000394
C92   C     C_R   0.683962 0.551279 0.956893 0.044821
C93   C     C_R   0.798820 0.000373 0.958448 -0.019671
C94   C     C_R   0.222940 0.965196 0.052645 0.023820
C95   C     C_R   0.298975 0.491993 0.955764 -0.014717
C96   C     C_R   0.680827 0.562756 0.029641 -0.034583
C97   C     C_R   0.690827 0.113378 0.955676 -0.171338
C98   C     C_R   0.299585 0.138170 0.038081 -0.156847
C99   C     C_R   0.183488 0.577131 0.949090 -0.155619
C100  C     C_R   0.788561 0.676616 0.030269 -0.161417
C101  C     C_R   0.686860 0.104272 0.030132 -0.161467
C102  C     C_R   0.306781 0.110015 0.965822 -0.133978
C103  C     C_R   0.174869 0.553596 0.022618 -0.154313
C104  C     C_R   0.791946 0.666231 0.955712 -0.173243
C105  C     C_3   0.870342 0.993171 0.043093 0.087589
C106  C     C_3   0.155578 0.896374 0.975388 0.090620
C107  C     C_3   0.366531 0.484007 0.042950 0.094090
C108  C     C_3   0.651060 0.426539 0.960683 0.110796
C109  C     C_3   0.877266 0.009947 0.963429 -0.230899
C110  C     C_3   0.148300 0.923021 0.054015 -0.238801
C111  C     C_3   0.376358 0.510591 0.964457 -0.220817
C112  C     C_3   0.647086 0.441806 0.040729 -0.247214
C113  C     C_R   0.750864 0.071949 0.920269 0.022768
C114  C     C_R   0.253462 0.070867 0.081190 0.036176
C115  C     C_R   0.249347 0.560056 0.917516 0.033779
C116  C     C_R   0.735409 0.615546 0.068242 0.016608
H41   H     H_    0.650913 0.163207 0.926949 0.151745
H42   H     H_    0.324380 0.220021 0.058123 0.115138
H43   H     H_    0.141006 0.617004 0.918688 0.128814
H44   H     H_    0.828727 0.727580 0.058212 0.125075
H45   H     H_    0.644733 0.148853 0.057671 0.126850
H46   H     H_    0.335720 0.172372 0.932370 0.132873
H47   H     H_    0.126971 0.580887 0.048328 0.132539
H48   H     H_    0.835685 0.706852 0.927733 0.127103
H49   H     H_    0.893286 0.906807 0.063361 0.105152
H50   H     H_    0.148482 0.799793 0.962467 0.110404
H51   H     H_    0.393622 0.399976 0.061291 0.113447
H52   H     H_    0.687197 0.353829 0.943495 0.129663
H53   H     H_    0.895703 0.101635 0.947616 0.183618
H54   H     H_    0.110228 0.996166 0.065777 0.166098
H55   H     H_    0.392372 0.605605 0.952566 0.186431
H56   H     H_    0.593065 0.450362 0.062081 0.174971
H57   H     H_    0.903883 0.932455 0.936822 0.132185
H58   H     H_    0.141803 0.839234 0.086691 0.120791
H59   H     H_    0.406659 0.439197 0.936298 0.170295
H60   H     H_    0.681474 0.377500 0.070397 0.128651
C117  C     C_R   0.014990 0.340637 0.070564 0.064856
C118  C     C_R   0.002695 0.344012 0.922512 0.024970
C119  C     C_R   0.498934 0.834689 0.076604 0.077951
C120  C     C_R   0.488569 0.843025 0.928243 0.006307
C121  C     C_R   0.013234 0.449871 0.033471 0.003108
C122  C     C_R   0.009087 0.452653 0.961033 0.014833
C123  C     C_R   0.468833 0.935595 0.043210 0.036207
C124  C     C_R   0.465749 0.939749 0.970311 0.018938
C125  C     C_R   0.012697 0.233366 0.957922 -0.103586
C126  C     C_R   0.021477 0.231821 0.031700 -0.079079
C127  C     C_R   0.509046 0.734791 0.961366 -0.175114
C128  C     C_R   0.514554 0.730595 0.035373 -0.097008
C129  C     C_3   0.968053 0.558479 0.043882 -0.275746
C130  C     C_3   0.962344 0.562378 0.963624 -0.262549
C131  C     C_3   0.486362 0.068852 0.047676 -0.258832
C132  C     C_3   0.487108 0.070435 0.967312 -0.228166
H61   H     H_    0.008196 0.148374 0.929389 0.199490
H62   H     H_    0.029228 0.145690 0.058270 0.168682
H63   H     H_    0.521867 0.655201 0.930257 0.187475
H64   H     H_    0.536032 0.649301 0.059543 0.165719
H65   H     H_    0.997487 0.637219 0.066574 0.138593
H66   H     H_    0.908803 0.540523 0.944232 0.174401
H67   H     H_    0.538157 0.089235 0.071064 0.162747
H68   H     H_    0.447326 0.130651 0.943211 0.170685
H69   H     H_    0.917775 0.535935 0.070696 0.162922
H70   H     H_    0.987201 0.644505 0.939716 0.151872
H71   H     H_    0.442960 0.122790 0.070845 0.143650
H72   H     H_    0.540328 0.081848 0.944741 0.160833
N1    N     N_R   0.890893 0.100304 0.085031 0.067801
O53   O     O_R   0.867401 0.208312 0.068922 -0.375852
O54   O     O_R   0.925535 0.085278 0.144264 -0.349810
N2    N     N_R   0.112149 0.976570 0.931393 0.076135
O55   O     O_R   0.129825 0.090050 0.921502 -0.357944
O56   O     O_R   0.059816 0.930729 0.895430 -0.387278
N3    N     N_R   0.380503 0.590405 0.088177 0.094712
O57   O     O_R   0.350326 0.694637 0.075580 -0.354826
O58   O     O_R   0.420825 0.579148 0.143908 -0.341046
N4    N     N_R   0.581883 0.420544 0.926680 0.062135
O59   O     O_R   0.572214 0.468462 0.864004 -0.343153
O60   O     O_R   0.535168 0.344802 0.951042 -0.422739

loop_
_geom_bond_atom_site_label_1
_geom_bond_atom_site_label_2
_geom_bond_distance
_ccdc_geom_bond_type
C18   O42   1.267908 A    
C80   H35   1.078790 S    
C107  C111  1.514695 S    
C75   C76   1.404850 A    
O4    C12   1.253619 A    
O47   Cr11  1.943390 S    
C69   C70   1.416415 A    
C62   C69   1.417199 A    
O39   C19   1.291308 A    
O20   Cr12  2.066918 S    
C45   H13   1.112628 S    
C73   C74   1.404876 A    
C98   H42   1.079618 S    
Cr11  O51   1.983473 S    
N3    O57   1.302826 A    
C36   C52   1.486062 S    
C97   H41   1.080159 S    
C14   C87   1.468658 S    
C92   C96   1.373158 A    
C39   H3    1.083879 S    
Cr7   O51   1.985092 S    
O1    C9    1.285316 A    
C127  C128  1.393459 A    
C123  C131  1.500330 S    
C58   C69   1.425404 A    
C94   C114  1.400067 A    
O7    C3    1.280388 A    
C80   C84   1.393502 A    
C32   C48   1.487624 S    
C130  H66   1.106875 S    
C125  C126  1.394262 A    
C118  C122  1.398430 A    
C107  H51   1.111906 S    
C32   C36   1.378898 A    
C100  C116  1.409427 A    
C107  N3    1.465831 S    
C88   C92   1.404499 A    
C120  C127  1.396134 A    
C23   C120  1.438504 S    
C109  H57   1.111560 S    
C20   C116  1.454084 S    
C22   C117  1.436753 S    
C35   C51   1.493235 S    
C129  C130  1.510596 S    
C108  H52   1.105152 S    
C10   C57   1.486997 S    
C89   C93   1.374403 A    
C21   C118  1.437386 S    
C34   C50   1.485998 S    
C48   C52   1.518823 S    
C83   H39   1.081913 S    
C30   C34   1.378980 A    
C81   H37   1.081894 S    
C62   H30   1.080448 S    
O21   C9    1.267704 A    
O8    Cr4   1.946117 S    
C60   C75   1.403543 A    
O23   Cr11  1.949892 S    
C93   C113  1.401244 A    
C17   C113  1.457112 S    
O30   C14   1.309742 A    
O32   Cr4   1.950121 S    
C1    O9    1.263573 A    
O44   Cr12  2.072240 S    
C5    C53   1.431430 S    
C84   H40   1.082199 S    
C127  H63   1.079887 S    
C52   H24   1.112599 S    
C3    O11   1.263580 A    
C28   C44   1.410323 A    
C106  N2    1.462472 S    
O11   Cr7   2.067072 S    
C64   C68   1.393664 A    
C85   C101  1.405025 A    
N2    O55   1.301875 A    
C129  H69   1.112067 S    
C102  H46   1.080581 S    
C98   C102  1.398843 A    
C9    C58   1.483735 S    
C101  H45   1.076528 S    
C95   C111  1.496179 S    
O27   Cr3   2.067003 S    
O8    C4    1.280641 A    
O3    Cr3   2.073606 S    
C61   C70   1.414812 A    
C46   C50   1.518700 S    
O47   C23   1.274874 A    
O2    Cr2   2.071434 S    
C85   C89   1.390826 A    
O14   Cr6   1.946388 S    
O2    C10   1.253608 A    
C105  N1    1.465244 S    
O42   Cr10  2.072240 S    
C64   C71   1.417187 A    
Cr5   O49   1.985092 S    
O18   Cr10  2.066918 S    
C33   C53   1.403061 A    
O14   C6    1.303331 A    
N1    O53   1.303066 A    
C100  H44   1.079704 S    
C25   C29   1.382420 A    
C88   C104  1.405732 A    
C24   C119  1.441182 S    
C38   C54   1.402774 A    
C110  H54   1.106948 S    
C48   H16   1.109798 S    
C109  H53   1.105247 S    
C59   C72   1.411752 A    
O34   Cr6   2.064639 S    
C1    C28   1.458917 S    
O13   Cr5   1.946971 S    
C64   H32   1.080473 S    
C86   C102  1.404993 A    
Cr9   O49   1.983473 S    
O6    Cr2   1.946117 S    
C91   C95   1.376564 A    
C63   H31   1.081804 S    
C28   C32   1.390122 A    
C37   C41   1.379360 A    
O24   Cr12  1.953253 S    
C121  C129  1.486189 S    
C51   H23   1.108583 S    
O30   Cr2   1.950121 S    
C26   C30   1.390127 A    
C8    C56   1.459178 S    
O22   C10   1.299493 A    
C99   H43   1.081681 S    
O48   Cr12  1.946859 S    
C4    O12   1.255435 A    
C4    C25   1.433289 S    
C95   C115  1.401869 A    
C26   C42   1.410422 A    
C5    O17   1.270129 A    
C2    O10   1.255393 A    
C46   H12   1.112201 S    
C125  H61   1.078040 S    
O16   Cr8   1.946388 S    
C15   O35   1.298340 A    
C122  C130  1.501115 S    
C87   C91   1.395088 A    
C67   H27   1.082192 S    
C106  C110  1.511986 S    
C42   H6    1.080916 S    
C75   C79   1.415310 A    
C30   C46   1.487476 S    
C105  C109  1.513286 S    
Cr4   O52   1.983091 S    
O28   Cr4   2.064813 S    
C97   C113  1.403785 A    
O43   Cr11  2.068601 S    
O12   Cr8   2.065491 S    
C60   C71   1.425360 A    
C112  H60   1.112048 S    
O41   Cr9   2.068601 S    
O22   Cr10  1.953253 S    
O15   C7    1.264334 A    
C41   H5    1.076277 S    
O5    C1    1.280230 A    
C45   H11   1.111578 S    
C82   H38   1.082028 S    
C27   C43   1.410133 A    
O10   Cr6   2.065491 S    
C90   C106  1.502232 S    
O39   Cr7   1.947375 S    
C91   C107  1.501760 S    
C13   C88   1.460421 S    
C89   C105  1.492179 S    
C71   C72   1.416387 A    
O3    C11   1.285261 A    
C124  C132  1.489786 S    
O48   C24   1.267938 A    
N3    O58   1.300729 A    
C120  C124  1.394958 A    
O16   C8    1.303568 A    
O25   C21   1.253653 A    
C13   O33   1.261196 A    
C106  H50   1.094482 S    
C61   H29   1.081816 S    
N4    O59   1.301120 A    
O36   Cr8   2.064639 S    
C105  H49   1.111156 S    
O29   C13   1.284308 A    
C44   H8    1.080845 S    
O15   Cr7   1.946971 S    
O35   Cr7   2.066100 S    
Cr1   O49   1.976572 S    
C16   C85   1.452285 S    
C6    O18   1.298208 A    
C38   H2    1.078885 S    
C99   C103  1.414688 A    
C31   C47   1.492890 S    
C103  H47   1.078528 S    
O26   C22   1.262368 A    
C48   H10   1.112249 S    
C51   H19   1.112077 S    
O21   Cr9   1.949892 S    
C7    O19   1.270106 A    
C132  H68   1.102616 S    
O9    Cr5   2.067072 S    
C79   C83   1.388083 A    
O37   Cr5   1.947375 S    
C96   C116  1.388976 A    
C12   C59   1.487000 S    
N4    O60   1.300486 A    
C46   H14   1.109739 S    
C111  H59   1.110511 S    
C2    C27   1.433276 S    
C34   C54   1.393307 A    
C33   C49   1.493151 S    
C131  C132  1.508915 S    
C94   C110  1.494634 S    
C108  N4    1.462809 S    
C50   H22   1.112483 S    
C40   C44   1.402144 A    
C93   C109  1.500832 S    
C59   C76   1.437839 A    
C128  H64   1.081323 S    
O31   Cr3   1.952879 S    
C47   H9    1.111587 S    
O26   Cr2   2.064813 S    
O25   Cr1   2.067003 S    
C129  H65   1.111576 S    
C6    C54   1.459768 S    
C111  H55   1.107935 S    
C78   C82   1.393379 A    
C57   C74   1.437857 A    
C130  H70   1.112041 S    
C97   C101  1.403802 A    
C119  C128  1.413016 A    
O28   C24   1.266116 A    
C110  H58   1.111892 S    
C112  H56   1.111403 S    
C87   C103  1.411065 A    
C118  C125  1.396973 A    
C19   O43   1.263437 A    
C66   H26   1.082546 S    
C39   C55   1.390648 A    
C117  C126  1.405081 A    
C8    O20   1.298148 A    
C131  H67   1.100282 S    
C19   C115  1.471999 S    
O17   Cr9   2.063157 S    
O37   C17   1.283242 A    
C77   H34   1.083547 S    
O7    Cr3   1.948906 S    
C123  C124  1.370218 A    
O24   C12   1.299492 A    
C17   O41   1.264155 A    
C100  C104  1.406160 A    
C40   H4    1.078906 S    
C74   C78   1.425126 A    
C45   C49   1.511859 S    
Cr2   O50   1.983091 S    
C35   C55   1.403077 A    
C78   H33   1.078809 S    
C14   O34   1.298203 A    
C119  C123  1.395685 A    
C63   C67   1.392358 A    
O40   Cr8   1.946672 S    
C99   C115  1.404496 A    
C20   O44   1.265903 A    
C49   H17   1.112052 S    
O1    Cr1   2.073606 S    
C63   C72   1.414806 A    
C98   C114  1.405742 A    
C15   C86   1.463291 S    
N1    O54   1.300741 A    
O38   Cr6   1.946672 S    
C65   C66   1.388521 A    
C37   C53   1.390509 A    
C73   C77   1.415313 A    
Cr8   O52   1.985234 S    
O32   C16   1.274386 A    
Cr10  O50   1.976807 S    
O33   Cr5   2.066100 S    
C132  H72   1.108262 S    
O46   Cr10  1.946859 S    
C47   C51   1.511857 S    
C57   C70   1.411703 A    
C18   C114  1.461801 S    
C3    C26   1.459357 S    
Cr6   O50   1.985234 S    
C90   C94   1.387649 A    
Cr12  O52   1.976807 S    
C131  H71   1.109707 S    
O45   C21   1.276433 A    
C61   C65   1.392163 A    
C108  C112  1.514361 S    
O23   C11   1.267768 A    
O19   Cr11  2.063157 S    
C96   C112  1.487273 S    
C29   C33   1.379426 A    
C49   H21   1.108583 S    
C38   C42   1.402171 A    
C31   C35   1.379401 A    
C11   C60   1.483752 S    
C50   H18   1.110978 S    
O40   C20   1.271146 A    
O5    Cr1   1.948906 S    
C36   C56   1.393274 A    
C47   H15   1.112660 S    
C37   H1    1.083792 S    
O4    Cr4   2.071434 S    
O6    C2    1.280648 A    
C86   C90   1.398765 A    
O29   Cr1   1.952879 S    
C83   C84   1.385090 A    
C92   C108  1.504780 S    
C76   C80   1.425166 A    
C16   O36   1.267267 A    
O38   C18   1.276048 A    
O46   C22   1.269103 A    
C68   H28   1.082584 S    
C27   C31   1.382542 A    
N2    O56   1.300709 A    
C81   C82   1.385110 A    
C62   C66   1.393683 A    
C58   C73   1.403518 A    
C25   C41   1.409994 A    
C67   C68   1.388513 A    
O27   C23   1.258603 A    
O45   Cr9   1.943390 S    
C7    C55   1.431393 S    
C39   C43   1.379401 A    
C43   H7    1.076414 S    
C52   H20   1.111038 S    
C77   C81   1.388034 A    
C121  C122  1.362072 A    
O31   C15   1.304058 A    
C126  H62   1.078629 S    
C65   H25   1.082217 S    
C104  H48   1.082450 S    
Cr3   O51   1.976572 S    
C117  C121  1.386259 A    
C29   C45   1.492820 S    
C79   H36   1.083455 S    
C40   C56   1.402621 A    
O13   C5    1.264325 A    
