data_mof_unit_20713.cif
_audit_creation_date              2012-12-10T17:21:43-0500
_audit_creation_method            fapswitch 2.2
_symmetry_space_group_name_H-M    P1
_symmetry_Int_Tables_number       1
_space_group_crystal_system       triclinic
_cell_length_a                    10.747372
_cell_length_b                    10.787178
_cell_length_c                    9.602993
_cell_angle_alpha                 90.144997
_cell_angle_beta                  90.008553
_cell_angle_gamma                 92.36728
_cell_volume                      1112.35789303

loop_
_atom_site_label
_atom_site_type_symbol
_atom_type_description
_atom_site_fract_x
_atom_site_fract_y
_atom_site_fract_z
_atom_type_partial_charge
C1    C     C_R   0.495173 0.262640 0.499845 0.790167
C2    C     C_3   0.877967 0.503338 0.498435 0.083695
C3    C     C_3   0.931530 0.607186 0.595793 -0.378835
C4    C     C_3   0.927639 0.529103 0.348775 -0.360534
C5    C     C_R   0.303863 0.122448 0.657830 -0.302436
C6    C     C_R   0.217485 0.054881 0.738508 -0.214114
C7    C     C_R   0.220769 0.926309 0.744082 0.657889
C8    C     C_R   0.309644 0.864589 0.667664 -0.303612
C9    C     C_R   0.398525 0.931027 0.585006 0.024029
C10   C     C_R   0.396763 0.062048 0.581998 0.112630
C11   C     C_R   0.485603 0.128552 0.499360 -0.085578
C12   C     C_R   0.260208 0.503422 0.499471 0.748688
C13   C     C_R   0.568294 0.066590 0.414567 -0.192833
C14   C     C_R   0.568347 0.938755 0.415055 -0.192221
C15   C     C_R   0.486635 0.870716 0.501423 -0.076083
C16   C     C_R   0.665834 0.664228 0.144250 -0.274334
C17   C     C_R   0.747360 0.744076 0.072298 0.603248
C18   C     C_R   0.747136 0.744163 0.928795 -0.256513
C19   C     C_R   0.665472 0.664497 0.856493 -0.270476
C20   C     C_R   0.581395 0.580796 0.925427 0.224259
C21   C     C_R   0.581474 0.580692 0.074944 0.148323
C22   C     C_R   0.422147 0.423565 0.073659 -0.060788
C23   C     C_R   0.495352 0.737126 0.500371 0.767382
C24   C     C_R   0.422205 0.423570 0.925794 -0.044909
C25   C     C_R   0.739988 0.501412 0.499776 0.758376
C26   C     C_3   0.068040 0.378754 0.551364 -0.459907
C27   C     C_3   0.924090 0.376622 0.548718 -0.371241
C28   C     C_3   0.074817 0.606392 0.598096 -0.328921
C29   C     C_3   0.069931 0.522293 0.345047 0.133614
C30   C     C_3   0.122261 0.505588 0.497232 0.094176
Cu1   Cu    Cu3+1 0.499990 0.499990 0.640660 0.931289
Cu2   Cu    Cu3+1 0.500010 0.500010 0.359340 0.930196
H1    H     H_    0.100231 0.362112 0.659687 0.180998
H2    H     H_    0.897820 0.621221 0.313269 0.210224
H3    H     H_    0.114183 0.699724 0.573747 0.169157
H4    H     H_    0.901065 0.699241 0.560170 0.157405
H5    H     H_    0.635250 0.117698 0.349982 0.162306
H6    H     H_    0.294944 0.221726 0.653473 0.162950
H7    H     H_    0.147061 0.102576 0.795904 0.160358
H8    H     H_    0.305846 0.764700 0.672652 0.176271
H9    H     H_    0.635071 0.892714 0.350392 0.178203
H10   H     H_    0.358259 0.360920 0.128623 0.132855
H11   H     H_    0.101609 0.301461 0.486165 0.160068
H12   H     H_    0.673210 0.672168 0.253954 0.208958
H13   H     H_    0.810612 0.806547 0.872599 0.200777
H14   H     H_    0.672721 0.672756 0.746797 0.222572
H15   H     H_    0.358369 0.360891 0.870468 0.130486
H16   H     H_    0.888374 0.301296 0.478082 0.162885
H17   H     H_    0.887633 0.355546 0.654906 0.186250
H18   H     H_    0.105751 0.586835 0.706217 0.201383
H19   H     H_    0.896091 0.593150 0.703685 0.193590
H20   H     H_    0.089206 0.435026 0.287703 0.107822
H21   H     H_    0.886798 0.459302 0.274260 0.158154
N1    N     N_R   0.501200 0.501210 0.147910 -0.183308
N2    N     N_R   0.501250 0.501290 0.852040 -0.186149
O1    O     O_R   0.499990 0.319640 0.618810 -0.573350
O2    O     O_R   0.500000 0.319660 0.381240 -0.574451
O3    O     O_R   0.317680 0.499970 0.618790 -0.596555
O4    O     O_R   0.317700 0.499990 0.381210 -0.587742
O5    O     O_R   0.500000 0.680340 0.618760 -0.595629
O6    O     O_R   0.500010 0.680360 0.381190 -0.588644
O7    O     O_R   0.682300 0.500010 0.618790 -0.595016
O8    O     O_R   0.682320 0.500030 0.381210 -0.601455
F1    F     F_    0.135959 0.860746 0.821939 -0.679391
F2    F     F_    0.827048 0.822231 0.142864 -0.679362
N3    N     N_2   0.126778 0.623235 0.261759 -0.415450
H22   H     H_    0.198772 0.599974 0.196997 0.274182
C31   C     C_3   0.133073 0.750409 0.310197 -0.554809
H23   H     H_    0.145601 0.813079 0.219331 0.255532
H24   H     H_    0.214864 0.766028 0.379522 0.189453
H25   H     H_    0.045976 0.774919 0.363531 0.233841

loop_
_geom_bond_atom_site_label_1
_geom_bond_atom_site_label_2
_ccdc_geom_bond_type
Cu1   O5    S    
Cu2   O6    S    
N3    C31   S    
C31   H25   S    
C29   C30   S    
C1    O2    A    
Cu1   O1    S    
C8    H8    S    
C9    C10   A    
C16   H12   S    
C26   H1    S    
C2    C4    S    
C4    C29   S    
C1    C11   S    
C21   N1    A    
C2    C27   S    
C12   O3    A    
C19   C20   A    
C15   C23   S    
C17   C18   A    
C9    C15   A    
C19   H14   S    
C5    C10   A    
C22   N1    A    
C22   H10   S    
C5    H6    S    
C24   N2    A    
C11   C13   A    
Cu1   O7    S    
C26   C27   S    
C16   C21   A    
C28   H18   S    
C3    H4    S    
C14   H9    S    
C5    C6    A    
Cu2   O2    S    
Cu1   O3    S    
C28   C30   S    
C3    C28   S    
C12   O4    A    
C1    O1    A    
C26   H11   S    
C26   C30   S    
C2    C25   S    
C2    C3    S    
C25   O7    A    
C20   N2    A    
C4    H2    S    
C23   O5    A    
C4    H21   S    
C16   C17   A    
C22   C24   A    
C7    F1    S    
C7    C8    A    
C10   C11   A    
C29   N3    S    
C18   H13   S    
C23   O6    A    
N3    H22   S    
C20   C21   A    
C28   H3    S    
C31   H24   S    
C18   C19   A    
C25   O8    A    
C12   C30   S    
Cu2   N1    S    
C6    H7    S    
C3    H19   S    
C17   F2    S    
C31   H23   S    
C14   C15   A    
C27   H16   S    
Cu2   O4    S    
Cu1   N2    S    
C13   C14   A    
C24   H15   S    
C13   H5    S    
Cu1   Cu2   S    
C6    C7    A    
C27   H17   S    
Cu2   O8    S    
C8    C9    A    
C29   H20   S    
