data_mof_unit_25933.cif
_audit_creation_date              2012-12-11T15:55:46-0500
_audit_creation_method            fapswitch 2.2
_symmetry_space_group_name_H-M    P1
_symmetry_Int_Tables_number       1
_space_group_crystal_system       triclinic
_cell_length_a                    11.082191
_cell_length_b                    11.131211
_cell_length_c                    18.739731
_cell_angle_alpha                 90.720184
_cell_angle_beta                  91.145071
_cell_angle_gamma                 59.156357
_cell_volume                      1984.35142216

loop_
_atom_site_label
_atom_site_type_symbol
_atom_type_description
_atom_site_fract_x
_atom_site_fract_y
_atom_site_fract_z
_atom_type_partial_charge
C1    C     C_R   0.384399 0.712898 0.389588 0.548051
C2    C     C_R   0.631692 0.115282 0.172154 0.029490
C3    C     C_R   0.364598 0.325114 0.162122 0.007371
C4    C     C_R   0.477253 0.234074 0.275395 -0.151972
C5    C     C_R   0.487344 0.225551 0.201364 -0.025626
C6    C     C_R   0.064810 0.639541 0.351120 -0.074073
C7    C     C_R   0.934666 0.718492 0.382828 -0.124972
C8    C     C_R   0.658693 0.999374 0.127723 -0.079255
C9    C     C_R   0.794832 0.894452 0.110364 -0.139613
C10   C     C_R   0.248713 0.433623 0.197880 -0.166614
C11   C     C_R   0.236887 0.436462 0.271732 -0.051816
C12   C     C_R   0.383048 0.353401 0.388085 0.536365
C13   C     C_R   0.823509 0.705447 0.358311 -0.085173
C14   C     C_R   0.839982 0.625476 0.297637 -0.086698
C15   C     C_R   0.974049 0.537649 0.270059 -0.104191
C16   C     C_R   0.092389 0.534728 0.300835 0.005623
C17   C     C_R   0.357759 0.337963 0.311818 0.001551
C18   C     C_R   0.866488 0.329832 0.183687 0.019181
C19   C     C_R   0.959211 0.233693 0.233950 0.009134
C20   C     C_R   0.928302 0.246762 0.304793 -0.008202
C21   C     C_R   0.696995 0.435544 0.277233 -0.163810
C22   C     C_R   0.729064 0.425557 0.204485 -0.182205
C23   C     C_R   0.772556 0.380668 0.402354 0.546809
C24   C     C_3   0.111476 0.171737 0.249062 -0.278467
C25   C     C_3   0.075934 0.189936 0.328210 -0.293380
C26   C     C_R   0.803593 0.357426 0.328128 0.036700
C27   C     C_R   0.374498 0.809401 0.168482 0.005300
C28   C     C_R   0.458324 0.831789 0.217918 -0.012146
C29   C     C_R   0.454900 0.806406 0.290016 0.019532
C30   C     C_R   0.323836 0.695880 0.263213 -0.182382
C31   C     C_R   0.321285 0.725747 0.190897 -0.153316
C32   C     C_3   0.465231 0.958551 0.236318 -0.285936
C33   C     C_3   0.447461 0.937736 0.313642 -0.262349
C34   C     C_R   0.345819 0.766969 0.604980 0.557936
C35   C     C_R   0.379719 0.747352 0.314398 0.002424
C36   C     C_R   0.296393 0.302090 0.807208 0.020271
C37   C     C_R   0.382007 0.183001 0.765635 0.033403
C38   C     C_R   0.395160 0.195728 0.693878 0.013311
C39   C     C_R   0.209306 0.436157 0.697965 -0.164683
C40   C     C_R   0.202665 0.427205 0.772129 -0.178281
C41   C     C_3   0.535433 0.074888 0.774152 -0.247064
C42   C     C_3   0.550330 0.096880 0.695768 -0.129568
C43   C     C_R   0.316893 0.324034 0.659777 0.008687
C44   C     C_R   0.805600 0.340695 0.837325 0.019715
C45   C     C_R   0.369010 0.350056 0.594885 0.550867
C46   C     C_R   0.772199 0.464434 0.801347 0.022561
C47   C     C_R   0.766562 0.468998 0.728367 0.028730
C48   C     C_R   0.798739 0.239142 0.722730 -0.160296
C49   C     C_R   0.804630 0.233239 0.797739 -0.159386
C50   C     C_3   0.839790 0.552535 0.803291 -0.264839
C51   C     C_3   0.835136 0.553564 0.723106 -0.287655
C52   C     C_R   0.789128 0.354708 0.687462 0.025112
C53   C     C_R   0.297610 0.843749 0.826280 0.024887
C54   C     C_R   0.179040 0.891262 0.782084 0.046521
C55   C     C_R   0.190908 0.881763 0.708611 0.021845
C56   C     C_R   0.759645 0.378857 0.611446 0.548966
C57   C     C_R   0.441199 0.778929 0.721982 -0.169306
C58   C     C_R   0.428711 0.793025 0.795561 -0.161157
C59   C     C_3   0.075031 0.843987 0.781461 -0.274138
C60   C     C_3   0.082876 0.840336 0.701201 -0.273171
C61   C     C_R   0.323070 0.820972 0.677389 0.014531
C62   C     C_R   0.911960 0.315314 0.111394 0.545346
C63   C     C_R   0.331447 0.294073 0.091254 0.544354
C64   C     C_R   0.310795 0.895667 0.104424 0.531620
C65   C     C_R   0.879248 0.311737 0.905951 0.546354
C66   C     C_R   0.292293 0.284157 0.883550 0.550466
C67   C     C_R   0.909674 0.894807 0.140711 -0.080996
C68   C     C_R   0.275455 0.893130 0.898821 0.543571
C69   C     C_R   0.888122 0.999488 0.188844 -0.076817
C70   C     C_R   0.751559 0.108801 0.203544 -0.105553
Cr1   Cr    Cr6+3 0.601740 0.606840 0.505840 0.981084
Cr2   Cr    Cr6+3 0.291500 0.601560 0.495070 0.983810
Cr3   Cr    Cr6+3 0.606780 0.291630 0.499130 0.994493
Cr4   Cr    Cr6+3 0.062440 0.063060 0.008240 1.019781
Cr5   Cr    Cr6+3 0.062950 0.375000 0.998920 0.994251
Cr6   Cr    Cr6+3 0.374550 0.061770 0.992470 0.995346
H1    H     H_    0.568269 0.156422 0.305232 0.146980
H2    H     H_    0.725227 0.759657 0.385504 0.121630
H3    H     H_    0.748991 0.631968 0.272430 0.136387
H4    H     H_    0.985010 0.474604 0.223889 0.134517
H5    H     H_    0.592551 0.507533 0.294393 0.124169
H6    H     H_    0.649560 0.492962 0.165900 0.129265
H7    H     H_    0.152827 0.237325 0.229922 0.139239
H8    H     H_    0.169913 0.060629 0.232210 0.153056
H9    H     H_    0.116234 0.089660 0.357218 0.148569
H10   H     H_    0.093292 0.269300 0.355427 0.152947
H11   H     H_    0.279715 0.635550 0.279024 0.126028
H12   H     H_    0.811077 0.807747 0.076708 0.104004
H13   H     H_    0.265633 0.695055 0.153850 0.126979
H14   H     H_    0.380570 0.055861 0.211685 0.150473
H15   H     H_    0.573400 0.936024 0.230476 0.145235
H16   H     H_    0.535032 0.925230 0.347714 0.129454
H17   H     H_    0.344597 0.015673 0.335055 0.147185
H18   H     H_    0.139514 0.534038 0.671799 0.121253
H19   H     H_    0.130688 0.519315 0.802012 0.108945
H20   H     H_    0.552618 0.970043 0.787026 0.139145
H21   H     H_    0.592582 0.109971 0.810080 0.129967
H22   H     H_    0.607240 0.153363 0.688575 0.164990
H23   H     H_    0.919676 0.792090 0.424942 0.099990
H24   H     H_    0.807379 0.152119 0.692502 0.107822
H25   H     H_    0.820012 0.141099 0.824417 0.119543
H26   H     H_    0.948917 0.496738 0.823933 0.181629
H27   H     H_    0.771277 0.657478 0.827302 0.119006
H28   H     H_    0.766464 0.659420 0.701125 0.131114
H29   H     H_    0.939848 0.493632 0.698246 0.149807
H30   H     H_    0.544565 0.724473 0.700298 0.139130
H31   H     H_    0.521221 0.762071 0.828574 0.121599
H32   H     H_    0.970833 0.923218 0.801495 0.132384
H33   H     H_    0.014946 0.810322 0.129554 0.113365
H34   H     H_    0.118750 0.738883 0.805736 0.132262
H35   H     H_    0.124437 0.734397 0.679074 0.161451
H36   H     H_    0.986573 0.923155 0.674384 0.123035
H37   H     H_    0.977978 0.992738 0.216261 0.131640
H38   H     H_    0.738437 0.184067 0.243680 0.130897
H39   H     H_    0.140513 0.665595 0.364213 0.181381
H40   H     H_    0.579396 0.975530 0.112619 0.172918
H41   H     H_    0.158464 0.511192 0.167366 0.133400
O1    O     O_R   0.748670 0.497520 0.427970 -0.521419
O2    O     O_R   0.300170 0.471020 0.567120 -0.506607
O3    O     O_R   0.491630 0.259030 0.574940 -0.529949
O4    O     O_R   0.718640 0.304340 0.577850 -0.508263
O5    O     O_3   0.500010 0.500010 0.500020 -0.264626
O6    O     O_R   0.186620 0.923750 0.087000 -0.525265
O7    O     O_R   0.957350 0.194160 0.084660 -0.487747
O8    O     O_R   0.935120 0.407280 0.085350 -0.531260
O9    O     O_R   0.203800 0.365060 0.067090 -0.510125
O10   O     O_R   0.417470 0.174910 0.067830 -0.535405
O11   O     O_R   0.375160 0.946380 0.070880 -0.519674
O12   O     O_R   0.476470 0.723930 0.429450 -0.501266
O13   O     O_R   0.160500 0.919670 0.926690 -0.517406
O14   O     O_R   0.933140 0.190380 0.936050 -0.500310
O15   O     O_R   0.909010 0.403210 0.925030 -0.531902
O16   O     O_R   0.179590 0.361290 0.918480 -0.513058
O17   O     O_R   0.391360 0.170840 0.907510 -0.520271
O18   O     O_R   0.350950 0.942600 0.922260 -0.508927
O19   O     O_3   0.166650 0.166610 0.999880 -0.250211
O20   O     O_R   0.264730 0.744140 0.416740 -0.547063
O21   O     O_R   0.309440 0.472410 0.418220 -0.529892
O22   O     O_R   0.501630 0.260530 0.414310 -0.529350
O23   O     O_R   0.727920 0.305730 0.428950 -0.504640
O24   O     O_R   0.738670 0.496020 0.588600 -0.531952
O25   O     O_R   0.467190 0.722540 0.578350 -0.512260
O26   O     O_R   0.254720 0.742640 0.577370 -0.520413
C71   C     C_3   0.595237 0.972452 0.644607 -0.237756
C72   C     C_3   0.751909 0.900613 0.628118 -0.324829
C73   C     C_3   0.791822 0.793829 0.567928 -0.436158
H42   H     H_    0.761213 0.716285 0.580611 0.187992
H43   H     H_    0.737825 0.847582 0.517513 0.136315
H44   H     H_    0.907224 0.737969 0.560123 0.137485
H45   H     H_    0.777638 0.980021 0.610975 0.168262
H46   H     H_    0.814460 0.847705 0.676951 0.150853
H47   H     H_    0.571756 0.896305 0.667167 0.142565
H48   H     H_    0.534233 0.010399 0.593701 0.181499

loop_
_geom_bond_atom_site_label_1
_geom_bond_atom_site_label_2
_ccdc_geom_bond_type
C44   C49   A    
Cr2   O26   S    
Cr4   O7    S    
C21   C26   A    
C41   C42   S    
C54   C55   A    
Cr1   O5    S    
C19   C20   A    
C23   O1    A    
C62   O7    A    
C72   C73   S    
Cr6   O19   S    
C53   C54   A    
C70   H38   S    
C69   H37   S    
C7    H23   S    
C30   C35   A    
C22   H6    S    
C21   C22   A    
C36   C37   A    
C24   H7    S    
C38   C42   S    
C1    O12   A    
C42   H22   S    
C9    H12   S    
C49   H25   S    
C30   C31   A    
C36   C66   S    
C32   H15   S    
C20   C25   S    
C15   C16   A    
C66   O16   A    
C29   C33   S    
C59   H34   S    
C18   C19   A    
C23   C26   S    
C71   H48   S    
C4    H1    S    
C53   C68   S    
C36   C40   A    
C7    C13   A    
C66   O17   A    
C67   H33   S    
C32   H14   S    
C8    C9    A    
C31   H13   S    
Cr4   O19   S    
C12   C17   S    
C72   H45   S    
Cr1   O24   S    
C45   O2    A    
Cr2   O21   S    
C57   H30   S    
C50   H27   S    
Cr3   O3    S    
C13   C14   A    
C44   C65   S    
C65   O14   A    
Cr6   O18   S    
C44   C46   A    
C73   H43   S    
C54   C59   S    
C48   H24   S    
Cr4   O14   S    
C34   O26   A    
C27   C31   A    
C23   O23   A    
C28   C32   S    
C24   C25   S    
C10   C11   A    
C33   H16   S    
C39   C40   A    
Cr6   O17   S    
Cr5   O19   S    
C4    C5    A    
C39   C43   A    
Cr3   O22   S    
C64   O11   A    
C51   H28   S    
C34   C61   S    
C33   H17   S    
Cr5   O8    S    
C47   C52   A    
C9    C67   A    
C39   H18   S    
C37   C38   A    
C60   H36   S    
Cr1   O12   S    
C73   H44   S    
C34   O25   A    
C11   C16   S    
C15   H4    S    
C48   C52   A    
C51   H29   S    
C25   H9    S    
C50   C51   S    
C12   O22   A    
C14   H3    S    
C68   O13   A    
C43   C45   S    
C72   H46   S    
Cr1   O25   S    
C56   O24   A    
C45   O3    A    
Cr2   O20   S    
C21   H5    S    
C50   H26   S    
Cr3   O4    S    
Cr4   O13   S    
C42   C71   S    
Cr6   O11   S    
C41   H21   S    
C2    C5    S    
C4    C17   A    
C40   H19   S    
C58   H31   S    
C65   O15   A    
C1    O20   A    
Cr5   O15   S    
C1    C35   S    
C73   H42   S    
C46   C50   S    
C46   C47   A    
C28   C29   A    
Cr1   O1    S    
Cr2   O5    S    
C18   C22   A    
C68   O18   A    
C2    C8    A    
C71   C72   S    
C3    C5    A    
C11   C17   A    
C62   O8    A    
C47   C51   S    
C53   C58   A    
Cr5   O16   S    
C57   C61   A    
C6    C7    A    
Cr3   O23   S    
C3    C63   S    
C64   O6    A    
C29   C35   A    
C8    H40   S    
C59   H32   S    
C10   H41   S    
Cr5   O9    S    
C32   C33   S    
C19   C24   S    
C24   H8    S    
C38   C43   A    
C71   H47   S    
C60   H35   S    
C2    C70   A    
C56   O4    A    
C57   C58   A    
C20   C26   A    
C48   C49   A    
C55   C61   A    
Cr2   O2    S    
C25   H10   S    
Cr4   O6    S    
C12   O21   A    
C37   C41   S    
C69   C70   A    
C6    H39   S    
C63   O9    A    
C27   C64   S    
C13   H2    S    
C6    C16   A    
C41   H20   S    
C59   C60   S    
Cr3   O5    S    
C27   C28   A    
C3    C10   A    
Cr6   O10   S    
C14   C15   A    
C18   C62   S    
C67   C69   A    
C30   H11   S    
C55   C60   S    
C63   O10   A    
C52   C56   S    
