data_mof_unit_24974.cif
_audit_creation_date              2012-12-10T20:06:28-0500
_audit_creation_method            fapswitch 2.2
_symmetry_space_group_name_H-M    P1
_symmetry_Int_Tables_number       1
_space_group_crystal_system       triclinic
_cell_length_a                    19.10454
_cell_length_b                    18.542003
_cell_length_c                    10.656822
_cell_angle_alpha                 89.801583
_cell_angle_beta                  91.502432
_cell_angle_gamma                 88.559095
_cell_volume                      3772.51147559

loop_
_atom_site_label
_atom_site_type_symbol
_atom_type_description
_atom_site_fract_x
_atom_site_fract_y
_atom_site_fract_z
_atom_type_partial_charge
C1    C     C_R   0.365400 0.500853 0.499486 0.816485
C2    C     C_R   0.289995 0.502883 0.480525 -0.041981
C3    C     C_R   0.957521 0.570477 0.387526 -0.036839
C4    C     C_R   0.031204 0.571468 0.399777 -0.032625
C5    C     C_R   0.070121 0.505143 0.402531 0.040301
C6    C     C_R   0.923935 0.503611 0.392208 0.030585
C7    C     C_R   0.035321 0.439890 0.389703 -0.204606
C8    C     C_R   0.962938 0.439003 0.387549 -0.208707
C9    C     C_R   0.542974 0.725817 0.423234 0.025588
C10   C     C_R   0.455919 0.726177 0.577050 0.022854
C11   C     C_R   0.543168 0.801623 0.423142 -0.265771
C12   C     C_R   0.634328 0.499062 0.498365 0.834830
C13   C     C_R   0.454537 0.801963 0.579954 -0.267803
C14   C     C_R   0.498888 0.840935 0.502927 0.109262
C15   C     C_R   0.498383 0.500162 0.260138 0.860871
C16   C     C_R   0.498916 0.499898 0.739614 0.866258
C17   C     C_R   0.437639 0.964776 0.494881 -0.010121
C18   C     C_R   0.564319 0.958670 0.526885 -0.006661
C19   C     C_R   0.439466 0.040204 0.508652 -0.206325
C20   C     C_R   0.565079 0.034649 0.519410 -0.216313
C21   C     C_R   0.502863 0.076477 0.513952 0.148008
C22   C     C_R   0.500263 0.922178 0.508339 -0.007166
C23   C     C_R   0.849523 0.500473 0.420843 0.129965
C24   C     C_R   0.539480 0.198598 0.600042 -0.202799
C25   C     C_R   0.466736 0.196274 0.409339 -0.194387
C26   C     C_R   0.536916 0.275051 0.594341 0.530163
C27   C     C_R   0.466238 0.272930 0.407006 0.512282
C28   C     C_R   0.503484 0.158053 0.507517 -0.118271
C29   C     C_R   0.382324 0.570808 0.123440 -0.396502
C30   C     C_R   0.381104 0.567940 0.862148 -0.396552
C31   C     C_R   0.326957 0.604503 0.055241 0.492681
C32   C     C_R   0.325355 0.601032 0.924180 0.496721
C33   C     C_R   0.438071 0.535394 0.930433 0.027715
C34   C     C_R   0.146569 0.502157 0.424906 0.099419
C35   C     C_R   0.438358 0.536265 0.061810 0.032359
C36   C     C_R   0.494107 0.500316 0.127574 -0.037625
C37   C     C_R   0.494112 0.499558 0.871387 -0.047139
C38   C     C_R   0.546892 0.462397 0.066673 -0.198397
C39   C     C_R   0.546988 0.462161 0.938348 -0.192023
C40   C     C_R   0.734681 0.453437 0.380860 -0.203040
C41   C     C_R   0.248529 0.451654 0.537198 -0.238306
C42   C     C_R   0.804988 0.455923 0.351574 -0.193584
C43   C     C_R   0.176648 0.452638 0.512267 -0.188229
C44   C     C_R   0.371054 0.934768 0.447557 0.138309
C45   C     C_R   0.823660 0.540601 0.522022 -0.134536
C46   C     C_R   0.368819 0.900312 0.330326 -0.108048
C47   C     C_R   0.304601 0.883426 0.273679 -0.161703
C48   C     C_R   0.242254 0.900448 0.333600 -0.116002
C49   C     C_R   0.244019 0.933806 0.450985 -0.143834
C50   C     C_R   0.308117 0.950873 0.508003 -0.172659
C51   C     C_R   0.630508 0.919768 0.563796 0.133844
C52   C     C_R   0.632598 0.873131 0.668306 -0.116007
C53   C     C_R   0.695725 0.840078 0.708916 -0.141144
C54   C     C_R   0.757432 0.854074 0.646935 -0.106973
C55   C     C_R   0.756001 0.900625 0.543381 -0.145436
C56   C     C_R   0.189506 0.550180 0.363059 -0.115798
C57   C     C_R   0.692836 0.933209 0.501554 -0.182546
C58   C     C_R   0.577569 0.162244 0.706288 0.213617
C59   C     C_R   0.649920 0.147447 0.700170 -0.203417
C60   C     C_R   0.685843 0.112480 0.799717 -0.134220
C61   C     C_R   0.649980 0.092764 0.906518 -0.113597
C62   C     C_R   0.578188 0.107895 0.913608 -0.151184
C63   C     C_R   0.541808 0.142225 0.813692 -0.097698
C64   C     C_R   0.428995 0.156198 0.308975 0.224947
C65   C     C_R   0.355433 0.154524 0.307306 -0.192113
C66   C     C_R   0.319748 0.110047 0.223032 -0.129805
C67   C     C_R   0.753013 0.540123 0.548260 -0.209889
C68   C     C_R   0.357135 0.065957 0.141142 -0.091293
C69   C     C_R   0.430236 0.066463 0.143162 -0.170882
C70   C     C_R   0.466207 0.111745 0.226066 -0.120319
C71   C     C_3   0.639244 0.320859 0.675469 -0.252594
C72   C     C_3   0.368050 0.327103 0.314716 -0.209832
C73   C     C_3   0.288839 0.704703 0.155883 -0.328410
C74   C     C_3   0.221229 0.579433 0.828267 -0.287554
C75   C     C_R   0.915147 0.638394 0.368525 0.110746
C76   C     C_R   0.915536 0.693396 0.458969 -0.146398
C77   C     C_R   0.877445 0.757649 0.437103 -0.126395
C78   C     C_R   0.259901 0.553130 0.395983 -0.161679
C79   C     C_R   0.836841 0.766758 0.326964 -0.105581
C80   C     C_R   0.834734 0.711669 0.237958 -0.142574
C81   C     C_R   0.873865 0.647787 0.258326 -0.139967
C82   C     C_R   0.065808 0.640894 0.423743 0.092974
C83   C     C_R   0.068222 0.693715 0.329307 -0.135556
C84   C     C_R   0.097988 0.760227 0.355447 -0.141775
C85   C     C_R   0.125586 0.774145 0.475507 -0.116439
C86   C     C_R   0.123949 0.721538 0.569375 -0.124722
C87   C     C_R   0.093905 0.655157 0.543776 -0.153360
C88   C     C_R   0.708623 0.496598 0.477615 -0.023064
H1    H     H_    0.588872 0.434329 0.118852 0.142206
H2    H     H_    0.378041 0.566575 0.760776 0.187224
H3    H     H_    0.700115 0.419963 0.325293 0.137294
H4    H     H_    0.271481 0.412279 0.602478 0.142747
H5    H     H_    0.824410 0.424089 0.274265 0.128601
H6    H     H_    0.144573 0.415125 0.561694 0.131990
H7    H     H_    0.858123 0.572723 0.580082 0.125953
H8    H     H_    0.168512 0.586418 0.290985 0.172226
H9    H     H_    0.733088 0.573084 0.623795 0.136683
H10   H     H_    0.291221 0.593435 0.352817 0.175222
H11   H     H_    0.064324 0.388944 0.388290 0.137796
H12   H     H_    0.589128 0.434074 0.891003 0.157553
H13   H     H_    0.937426 0.387492 0.389213 0.139028
H14   H     H_    0.416510 0.889705 0.280047 0.122012
H15   H     H_    0.303122 0.859110 0.181640 0.114410
H16   H     H_    0.192582 0.888668 0.288278 0.111900
H17   H     H_    0.195659 0.947795 0.496738 0.116038
H18   H     H_    0.308653 0.978644 0.597257 0.117706
H19   H     H_    0.585625 0.863413 0.719845 0.126561
H20   H     H_    0.696968 0.804401 0.789590 0.122768
H21   H     H_    0.806371 0.829243 0.679994 0.113019
H22   H     H_    0.803910 0.911958 0.495951 0.116004
H23   H     H_    0.577357 0.695989 0.361982 0.131607
H24   H     H_    0.692630 0.969308 0.421430 0.115762
H25   H     H_    0.678288 0.162711 0.617897 0.111498
H26   H     H_    0.741471 0.100855 0.794168 0.127822
H27   H     H_    0.677816 0.065954 0.983935 0.117920
H28   H     H_    0.550964 0.093110 0.996788 0.124925
H29   H     H_    0.486093 0.153377 0.820071 0.124867
H30   H     H_    0.325842 0.185382 0.374764 0.107758
H31   H     H_    0.263155 0.108579 0.223164 0.126396
H32   H     H_    0.329510 0.030578 0.077438 0.119626
H33   H     H_    0.458862 0.030695 0.081850 0.119860
H34   H     H_    0.421905 0.696577 0.637119 0.141497
H35   H     H_    0.522933 0.110455 0.228801 0.116776
H36   H     H_    0.657450 0.308520 0.578994 0.131776
H37   H     H_    0.668051 0.285895 0.744816 0.162276
H38   H     H_    0.653953 0.376899 0.698046 0.174008
H39   H     H_    0.347444 0.318361 0.410509 0.123210
H40   H     H_    0.336993 0.295597 0.245915 0.152992
H41   H     H_    0.358960 0.384661 0.289011 0.190673
H42   H     H_    0.300704 0.739576 0.074269 0.173481
H43   H     H_    0.333796 0.702963 0.224544 0.163227
H44   H     H_    0.243392 0.729592 0.203708 0.198255
H45   H     H_    0.577777 0.829401 0.361439 0.139370
H46   H     H_    0.202902 0.552736 0.914842 0.170307
H47   H     H_    0.243094 0.538644 0.762785 0.160827
H48   H     H_    0.174843 0.605592 0.781410 0.180740
H49   H     H_    0.945532 0.686712 0.545975 0.126061
H50   H     H_    0.879819 0.800407 0.505513 0.116167
H51   H     H_    0.807079 0.816469 0.310469 0.120499
H52   H     H_    0.803196 0.718674 0.152728 0.122495
H53   H     H_    0.872439 0.605817 0.187928 0.123417
H54   H     H_    0.046488 0.683514 0.236363 0.131907
H55   H     H_    0.099039 0.801097 0.282905 0.118318
H56   H     H_    0.419862 0.829936 0.643321 0.143638
H57   H     H_    0.147668 0.825835 0.496486 0.127526
H58   H     H_    0.145186 0.732536 0.662303 0.148008
H59   H     H_    0.091217 0.615151 0.617506 0.117389
H60   H     H_    0.390882 0.071455 0.505515 0.145174
H61   H     H_    0.614683 0.061205 0.520730 0.143055
H62   H     H_    0.380424 0.571050 0.224358 0.178135
N1    N     N_R   0.500000 0.689440 0.500000 -0.097620
N2    N     N_R   0.500000 0.310560 0.500000 -0.179314
O1    O     O_R   0.398180 0.560840 0.499970 -0.631032
O2    O     O_3   0.439908 0.309581 0.302050 -0.578840
O3    O     O_3   0.270804 0.635022 0.116457 -0.613718
O4    O     O_3   0.270304 0.632886 0.856321 -0.596519
O5    O     O_R   0.601820 0.560840 0.500030 -0.610163
O6    O     O_R   0.398180 0.439210 0.499910 -0.619384
O7    O     O_R   0.601820 0.439210 0.500090 -0.618926
O8    O     O_R   0.500000 0.560830 0.316760 -0.633413
O9    O     O_R   0.500000 0.560830 0.683240 -0.630024
O10   O     O_R   0.500000 0.439200 0.316700 -0.562785
O11   O     O_R   0.500000 0.439200 0.683300 -0.554642
O12   O     O_3   0.566374 0.314721 0.690966 -0.575295
Zn1   Zn    Zn3+2 0.500000 0.581210 0.500000 0.938161
Zn2   Zn    Zn3+2 0.500000 0.418790 0.500000 0.995321

loop_
_geom_bond_atom_site_label_1
_geom_bond_atom_site_label_2
_ccdc_geom_bond_type
C9    H23   S    
C66   C68   A    
C73   H43   S    
C34   C56   A    
C27   N2    A    
C23   C45   A    
C42   H5    S    
C54   C55   A    
C15   O10   A    
C60   H26   S    
C35   C36   A    
C78   H10   S    
C30   H2    S    
C3    C6    A    
C7    C8    A    
C53   C54   A    
C25   C28   A    
C46   H14   S    
C38   H1    S    
C67   C88   A    
C23   C42   A    
C7    H11   S    
C72   H40   S    
C6    C8    A    
C1    O6    A    
C19   C21   A    
C85   H57   S    
C73   H42   S    
C11   H45   S    
C85   C86   A    
C38   C39   A    
C63   H29   S    
C11   C14   A    
C57   H24   S    
C2    C41   A    
C82   C87   A    
C48   H16   S    
C74   H46   S    
C43   H6    S    
C56   C78   A    
C20   H61   S    
C1    C2    S    
C13   H56   S    
C17   C19   A    
C29   H62   S    
C32   O4    S    
C70   H35   S    
C47   C48   A    
C52   H19   S    
C68   C69   A    
C74   H48   S    
C61   H27   S    
C65   H30   S    
C71   H38   S    
C51   C57   A    
C64   C70   A    
C12   O5    A    
C3    C75   S    
C8    H13   S    
C16   C37   S    
C27   O2    S    
C40   C42   A    
C73   H44   S    
C59   C60   A    
C12   O7    A    
O10   Zn2   S    
C13   C14   A    
C5    C34   S    
C80   H52   S    
C41   C43   A    
C61   C62   A    
C86   H58   S    
C44   C46   A    
C18   C51   S    
C77   C79   A    
C16   O11   A    
C84   C85   A    
C37   C39   A    
C72   O2    S    
C71   O12   S    
C12   C88   S    
C72   H39   S    
C51   C52   A    
C71   H36   S    
C72   H41   S    
O11   Zn2   S    
C47   H15   S    
C77   H50   S    
C79   H51   S    
O5    Zn1   S    
C5    C7    A    
C86   C87   A    
C75   C81   A    
C49   H17   S    
C84   H55   S    
C58   C59   A    
C76   H49   S    
C82   C83   A    
C33   C37   A    
C54   H21   S    
C60   C61   A    
C25   C64   S    
C75   C76   A    
C62   H28   S    
C62   C63   A    
C2    C78   A    
C10   N1    A    
C31   O3    S    
C83   C84   A    
C69   H33   S    
C59   H25   S    
C74   H47   S    
C73   O3    S    
C74   O4    S    
O8    Zn1   S    
C76   C77   A    
C1    O1    A    
C9    C11   A    
C87   H59   S    
C48   C49   A    
C21   C28   S    
C81   H53   S    
C65   C66   A    
C66   H31   S    
C55   C57   A    
C55   H22   S    
C3    C4    A    
C45   H7    S    
C15   C36   S    
C52   C53   A    
O6    Zn2   S    
C44   C50   A    
C58   C63   A    
C56   H8    S    
C46   C47   A    
C9    N1    A    
C30   C33   A    
O1    Zn1   S    
C18   C22   A    
C31   C32   A    
C34   C43   A    
C24   C28   A    
C24   C26   A    
C80   C81   A    
C10   H34   S    
C10   C13   A    
C83   H54   S    
N2    Zn2   S    
C45   C67   A    
C16   O9    A    
C25   C27   A    
C29   C35   A    
C17   C22   A    
O7    Zn2   S    
C64   C65   A    
C40   C88   A    
C26   N2    A    
C17   C44   S    
C15   O8    A    
C29   C31   A    
N1    Zn1   S    
C68   H32   S    
C36   C38   A    
C30   C32   A    
C53   H20   S    
C14   C22   S    
C39   H12   S    
C6    C23   S    
C19   H60   S    
C26   O12   S    
C33   C35   A    
C18   C20   A    
C40   H3    S    
C69   C70   A    
C67   H9    S    
C79   C80   A    
C4    C5    A    
C41   H4    S    
C4    C82   S    
C20   C21   A    
C24   C58   S    
C49   C50   A    
C50   H18   S    
C71   H37   S    
O9    Zn1   S    
