data_mof_unit_9159.cif
_audit_creation_date              2012-12-10T18:45:11-0500
_audit_creation_method            fapswitch 2.2
_symmetry_space_group_name_H-M    P1
_symmetry_Int_Tables_number       1
_space_group_crystal_system       triclinic
_cell_length_a                    10.628938
_cell_length_b                    9.921331
_cell_length_c                    10.687356
_cell_angle_alpha                 90.345873
_cell_angle_beta                  90.6204
_cell_angle_gamma                 89.868593
_cell_volume                      1126.92661916

loop_
_atom_site_label
_atom_site_type_symbol
_atom_type_description
_atom_site_fract_x
_atom_site_fract_y
_atom_site_fract_z
_atom_type_partial_charge
C1    C     C_R   0.260490 0.500049 0.503626 0.940315
C2    C     C_R   0.739535 0.499692 0.503327 0.932573
C3    C     C_R   0.934471 0.579873 0.424138 -0.184071
C4    C     C_R   0.063011 0.580349 0.424545 -0.176126
C5    C     C_R   0.610126 0.071296 0.495131 0.023632
C6    C     C_R   0.389952 0.071863 0.505706 0.009907
C7    C     C_R   0.610116 0.928138 0.495036 -0.003390
C8    C     C_R   0.389961 0.928733 0.505763 0.002917
C9    C     C_R   0.497083 0.500114 0.259317 0.923470
C10   C     C_R   0.512722 0.499440 0.739470 0.963678
C11   C     C_R   0.452854 0.744583 0.103555 0.267529
C12   C     C_R   0.624255 0.729219 0.907783 0.230330
C13   C     C_R   0.527290 0.856626 0.076735 0.188754
C14   C     C_R   0.623448 0.843479 0.987194 0.205365
C15   C     C_R   0.546675 0.618694 0.938380 -0.104590
C16   C     C_R   0.488812 0.619184 0.054185 -0.092375
C17   C     C_R   0.502183 0.499389 0.124850 -0.180841
C18   C     C_R   0.540141 0.496786 0.871595 -0.142072
C19   C     C_R   0.553387 0.384409 0.067336 0.168751
C20   C     C_R   0.543222 0.374610 0.939002 0.205280
C21   C     C_R   0.066531 0.422439 0.599955 0.226861
C22   C     C_R   0.935949 0.421638 0.599451 0.252049
C23   C     C_R   0.871994 0.499385 0.509416 -0.122218
C24   C     C_R   0.128037 0.500392 0.510073 -0.150309
H1    H     H_    0.883583 0.640084 0.355893 0.180090
H2    H     H_    0.111742 0.640833 0.356653 0.212193
H3    H     H_    0.698736 0.124198 0.490830 0.165308
H4    H     H_    0.301330 0.125186 0.510161 0.165992
H5    H     H_    0.698745 0.874788 0.490685 0.161279
H6    H     H_    0.301354 0.875838 0.510196 0.160199
N1    N     N_R   0.500000 0.857200 0.500000 -0.091726
N2    N     N_R   0.500000 0.142810 0.500000 -0.091308
O1    O     O_R   0.316770 0.614620 0.499990 -0.616955
O2    O     O_R   0.683230 0.614620 0.500010 -0.617622
O3    O     O_R   0.316800 0.385290 0.500000 -0.607819
O4    O     O_R   0.683200 0.385290 0.500000 -0.612530
O5    O     O_R   0.500010 0.614690 0.316770 -0.599918
O6    O     O_R   0.499990 0.614690 0.683230 -0.597329
O7    O     O_R   0.500040 0.385360 0.316770 -0.583488
O8    O     O_R   0.499960 0.385360 0.683230 -0.584762
Zn1   Zn    Zn3+2 0.500000 0.653120 0.500000 1.018568
Zn2   Zn    Zn3+2 0.500000 0.346880 0.500000 1.046506
I1    I     I_    0.715556 0.291059 0.149725 -0.135998
I2    I     I_    0.518192 0.175594 0.865089 -0.111781
Br1   Br    Br    0.297577 0.763438 0.193521 -0.431891
Br2   Br    Br    0.753988 0.710819 0.784108 -0.400309
Br3   Br    Br    0.504412 0.017051 0.174143 -0.394751
Br4   Br    Br    0.761994 0.967675 0.984750 -0.278216
Br5   Br    Br    0.159506 0.324831 0.726982 -0.382164
Br6   Br    Br    0.846592 0.321621 0.725086 -0.356986

loop_
_geom_bond_atom_site_label_1
_geom_bond_atom_site_label_2
_ccdc_geom_bond_type
C15   C18   A    
C6    N2    A    
C7    H5    S    
C13   C14   A    
C11   C16   A    
C4    H2    S    
C19   C20   A    
C12   C15   A    
C22   Br6   S    
C10   O6    A    
C5    N2    A    
O1    Zn1   S    
C2    O2    A    
C9    O5    A    
C8    H6    S    
C21   C22   A    
C9    C17   S    
C11   C13   A    
O2    Zn1   S    
C10   C18   S    
C14   Br4   S    
C21   Br5   S    
C13   Br3   S    
C17   C19   A    
C12   C14   A    
O7    Zn2   S    
C18   C20   A    
O5    Zn1   S    
C4    C24   A    
C11   Br1   S    
C7    N1    A    
C1    O1    A    
C15   C16   A    
C3    H1    S    
C1    O3    A    
C1    C24   S    
C12   Br2   S    
O6    Zn1   S    
C21   C24   A    
C2    O4    A    
C2    C23   S    
C5    C7    A    
O3    Zn2   S    
N2    Zn2   S    
C22   C23   A    
C16   C17   A    
C10   O8    A    
C6    C8    A    
N1    Zn1   S    
C20   I2    S    
C3    C23   A    
C5    H3    S    
C8    N1    A    
O4    Zn2   S    
C9    O7    A    
C6    H4    S    
C3    C4    A    
C19   I1    S    
O8    Zn2   S    
