data_mof_unit_66776.cif
_audit_creation_date              2012-12-11T14:19:38-0500
_audit_creation_method            fapswitch 2.2
_symmetry_space_group_name_H-M    P1
_symmetry_Int_Tables_number       1
_space_group_crystal_system       triclinic
_cell_length_a                    8.23257
_cell_length_b                    12.610353
_cell_length_c                    15.018435
_cell_angle_alpha                 94.834783
_cell_angle_beta                  98.992139
_cell_angle_gamma                 97.938141
_cell_volume                      1516.27111403

loop_
_atom_site_label
_atom_site_type_symbol
_atom_type_description
_atom_site_fract_x
_atom_site_fract_y
_atom_site_fract_z
_atom_type_partial_charge
Ba1   Ba    Ba6+2 0.153570 0.551840 0.456200 1.674237
Ba2   Ba    Ba6+2 0.656590 0.448150 0.543720 1.669826
C1    C     C_3   0.361299 0.887292 0.121513 0.433772
C2    C     C_R   0.727966 0.814727 0.465458 -0.277012
C3    C     C_R   0.694381 0.995350 0.431184 -0.093564
C4    C     C_3   0.900831 0.838786 0.256454 0.407029
C5    C     C_R   0.629861 0.886217 0.427048 -0.023423
C6    C     C_R   0.888240 0.850475 0.513239 0.018630
C7    C     C_R   0.954601 0.962999 0.520286 -0.066695
C8    C     C_R   0.855512 0.036636 0.478829 -0.042506
C9    C     C_R   0.920024 0.149418 0.487879 0.056903
C10   C     C_R   0.180028 0.113974 0.572940 -0.012374
C11   C     C_R   0.117874 0.004105 0.565348 -0.110621
C12   C     C_3   0.442037 0.863920 0.215757 0.331598
C13   C     C_R   0.232758 0.465809 0.767287 -0.222465
C14   C     C_R   0.135617 0.425021 0.828068 -0.016713
C15   C     C_R   0.199573 0.438920 0.921291 -0.148653
C16   C     C_3   0.908449 0.949610 0.223133 -0.305432
C17   C     C_R   0.364508 0.492231 0.954739 0.026574
C18   C     C_R   0.456317 0.536195 0.890736 -0.133394
C19   C     C_R   0.390221 0.523719 0.798814 0.037672
C20   C     C_R   0.604855 0.557042 0.086194 -0.148722
C21   C     C_R   0.671254 0.572532 0.178391 -0.019491
C22   C     C_R   0.415752 0.480698 0.212628 0.078882
C23   C     C_3   0.591239 0.778328 0.666377 0.331053
C24   C     C_R   0.347164 0.465579 0.120222 -0.076476
C25   C     C_R   0.438484 0.506038 0.054585 0.029052
C26   C     C_R   0.574709 0.538031 0.241600 -0.275031
C27   C     C_3   0.721568 0.310319 0.269690 0.291851
C28   C     C_3   0.673022 0.277162 0.168098 -0.385178
C29   C     C_3   0.174360 0.801156 0.739961 0.470424
C30   C     C_3   0.174482 0.912991 0.788454 -0.336220
C31   C     C_3   0.199744 0.224161 0.340445 0.292805
C32   C     C_3   0.250989 0.113493 0.348635 -0.360923
C33   C     C_3   0.077277 0.686357 0.852861 -0.137176
C34   C     C_3   0.677963 0.894441 0.693305 0.214753
C35   C     C_3   0.560464 0.815280 0.031881 -0.161404
C36   C     C_3   0.965581 0.168246 0.800658 0.403340
C37   C     C_3   0.059385 0.150767 0.893132 0.251875
C38   C     C_3   0.447908 0.230252 0.794243 0.408848
C39   C     C_3   0.495517 0.207938 0.892404 -0.280409
C40   C     C_R   0.078410 0.185780 0.538309 -0.264112
Cl1   Cl    Cl    0.195425 0.781745 0.073112 -0.671903
Cl2   Cl    Cl    0.611661 0.954634 0.790837 -0.639461
Cl3   Cl    Cl    0.921786 0.094999 0.963765 -0.657656
H1    H     H_    0.481189 0.782844 0.210641 0.008914
H2    H     H_    0.235665 0.271784 0.408121 0.021417
H3    H     H_    0.259519 0.074072 0.280980 0.135700
H4    H     H_    0.159797 0.061885 0.379593 0.066270
H5    H     H_    0.374151 0.121129 0.392163 0.137392
H6    H     H_    0.551618 0.927083 0.240959 -0.107913
H7    H     H_    0.676709 0.732819 0.634159 -0.020412
H8    H     H_    0.477695 0.778028 0.615586 -0.001466
H9    H     H_    0.814635 0.895900 0.710317 0.028942
H10   H     H_    0.653292 0.943535 0.635681 0.022276
H11   H     H_    0.304427 0.961893 0.129860 0.067602
H12   H     H_    0.561230 0.213952 0.154215 0.127423
H13   H     H_    0.806792 0.949764 0.165568 0.127270
H14   H     H_    0.897747 0.089737 0.767361 0.092532
H15   H     H_    0.052417 0.194644 0.754510 -0.165156
H16   H     H_    0.148315 0.095030 0.884028 -0.001552
H17   H     H_    0.130323 0.227271 0.928526 0.007739
H18   H     H_    0.320249 0.250038 0.784403 -0.127116
H19   H     H_    0.534619 0.301136 0.782679 0.091454
H20   H     H_    0.461178 0.271328 0.938782 0.027382
H21   H     H_    0.631310 0.208087 0.909577 0.207876
H22   H     H_    0.997848 0.843685 0.317757 0.082032
H23   H     H_    0.644856 0.347225 0.132149 0.058156
H24   H     H_    0.431458 0.128164 0.903695 0.141124
H25   H     H_    0.615824 0.046802 0.398011 0.092844
H26   H     H_    0.200776 0.952076 0.593571 0.097622
H27   H     H_    0.127341 0.270806 0.546130 0.062105
H28   H     H_    0.675782 0.730553 0.461631 0.066662
H29   H     H_    0.688091 0.584360 0.041558 0.083876
H30   H     H_    0.116466 0.410041 0.965600 0.082899
H31   H     H_    0.224354 0.419604 0.101779 0.075224
H32   H     H_    0.577334 0.584091 0.909665 0.070525
H33   H     H_    0.627526 0.549200 0.313006 0.063279
H34   H     H_    0.777075 0.245028 0.141455 0.161506
H35   H     H_    0.775876 0.815657 0.274466 -0.144915
H36   H     H_    0.181807 0.458157 0.695681 0.068800
H37   H     H_    0.895242 0.010307 0.278509 0.048676
H38   H     H_    0.028125 0.971809 0.199173 0.158729
H39   H     H_    0.614939 0.337964 0.295992 0.021965
H40   H     H_    0.828740 0.376576 0.281673 0.056791
H41   H     H_    0.324163 0.751125 0.849969 0.208021
H42   H     H_    0.125959 0.640930 0.908548 0.134709
H43   H     H_    0.980205 0.630919 0.804344 0.148437
H44   H     H_    0.020312 0.752965 0.882679 0.165247
H45   H     H_    0.273795 0.807992 0.698502 0.072680
H46   H     H_    0.560575 0.977304 0.076352 0.195558
H47   H     H_    0.639839 0.839647 0.981408 0.189455
H48   H     H_    0.466421 0.745713 0.999557 0.139001
H49   H     H_    0.639833 0.790220 0.090418 0.083197
H50   H     H_    0.171342 0.974695 0.740596 0.052050
H51   H     H_    0.288085 0.936788 0.840305 0.169756
H52   H     H_    0.064691 0.913562 0.822733 0.143646
H53   H     H_    0.063477 0.214008 0.319047 0.035308
N1    N     N_2   0.211895 0.727553 0.807138 -0.455945
N2    N     N_2   0.481065 0.905051 0.060518 -0.434975
O1    O     O_2   0.168170 0.764170 0.543850 -0.491638
O2    O     O_2   0.801534 0.436401 0.821442 -0.499384
O3    O     O_3   0.848888 0.237537 0.811864 -0.568067
O4    O     O_3   0.898670 0.629780 0.545890 -0.452979
O5    O     O_3   0.409490 0.443300 0.392340 -0.487572
O6    O     O_2   0.674250 0.555830 0.719690 -0.443868
O7    O     O_3   0.548479 0.733103 0.743509 -0.614069
O8    O     O_2   0.520563 0.114334 0.570083 -0.472398
O9    O     O_3   0.457751 0.139523 0.735262 -0.540232
O10   O     O_3   0.365980 0.695510 0.380810 -0.458341
O11   O     O_2   0.301222 0.883586 0.443850 -0.487940
O12   O     O_3   0.274479 0.271322 0.272796 -0.631627
O13   O     O_3   0.015295 0.763033 0.689565 -0.644077
O14   O     O_3   0.324813 0.867679 0.274155 -0.589091
O15   O     O_2   0.136040 0.444100 0.280280 -0.475691
O16   O     O_3   0.934510 0.640480 0.335500 -0.497960
O17   O     O_2   0.011513 0.571472 0.177231 -0.432538
O18   O     O_3   0.931062 0.765139 0.187718 -0.529668
O19   O     O_2   0.642110 0.235770 0.456130 -0.466392
O20   O     O_3   0.911620 0.370210 0.454030 -0.499246
O21   O     O_3   0.444310 0.304480 0.619110 -0.492385
O22   O     O_3   0.763504 0.220606 0.311184 -0.646825
O23   O     O_3   0.400800 0.556680 0.607590 -0.482212
O24   O     O_3   0.875770 0.359510 0.664420 -0.457970
P1    P     P_3+3 0.998660 0.747790 0.570900 0.973275
P2    P     P_3+3 0.306970 0.411860 0.294270 0.991806
P3    P     P_3+3 0.887638 0.634773 0.218199 1.026702
P4    P     P_3+3 0.811620 0.252200 0.429030 0.963111
P5    P     P_3+3 0.918304 0.365470 0.782980 0.975414
P6    P     P_3+3 0.409375 0.835141 0.380859 0.967065
P7    P     P_3+3 0.500666 0.593820 0.719535 0.971250
P8    P     P_3+3 0.399324 0.166139 0.622978 0.990817

loop_
_geom_bond_atom_site_label_1
_geom_bond_atom_site_label_2
_ccdc_geom_bond_type
C13   H36   S    
C17   C18   A    
O2    P5    D    
C2    C6    A    
C12   H1    S    
Ba2   O23   S    
C1    Cl1   S    
C24   C25   A    
C36   O3    S    
C38   H18   S    
C18   H32   S    
C39   H24   S    
C23   H8    S    
C31   H53   S    
C36   C37   S    
O13   P1    S    
C13   C14   A    
C28   H12   S    
C30   H52   S    
C9    C40   A    
Ba1   Ba2   S    
C33   H43   S    
C7    C11   A    
C19   P7    S    
C5    P6    S    
C10   C40   A    
C16   H37   S    
C33   H42   S    
C1    N2    S    
C16   H13   S    
O4    P1    S    
C12   H6    S    
C14   C15   A    
O16   P3    S    
O24   P5    S    
C24   H31   S    
Ba1   O16   S    
C29   N1    S    
H46   N2    S    
C27   C28   S    
C17   C25   S    
C7    C8    A    
C27   H40   S    
C37   Cl3   S    
O19   P4    D    
C22   P2    S    
O14   P6    S    
C2    C5    A    
C33   N1    S    
C31   C32   S    
O6    P7    D    
C37   H16   S    
C4    C16   S    
C32   H5    S    
Ba1   P2    S    
C27   H39   S    
O7    P7    S    
C3    C5    A    
Ba2   O20   S    
C6    C7    A    
C39   H20   S    
C11   H26   S    
C12   O14   S    
Ba2   O6    S    
Ba1   O20   S    
Ba1   O23   S    
C3    H25   S    
H41   N1    S    
Ba1   O10   S    
O3    P5    S    
C1    H11   S    
O11   P6    D    
O1    P1    D    
C29   C30   S    
Ba2   O4    S    
C29   H45   S    
C27   O22   S    
O9    P8    S    
C40   H27   S    
C16   H38   S    
C35   H48   S    
C31   O12   S    
C21   C26   A    
C10   C11   A    
C14   P5    S    
O15   P2    D    
Ba1   O4    S    
C2    H28   S    
C39   H21   S    
C1    C12   S    
C36   H15   S    
C28   H34   S    
C33   H44   S    
C38   C39   S    
C30   H51   S    
C20   C25   A    
C4    H35   S    
C31   H2    S    
C34   Cl2   S    
C32   H3    S    
O18   P3    S    
C20   H29   S    
O21   P8    S    
Ba1   O1    S    
C26   H33   S    
C23   O7    S    
C21   P3    S    
Ba2   O21   S    
C37   H17   S    
C4    H22   S    
C32   H4    S    
C10   P8    S    
C35   H47   S    
O23   P7    S    
O12   P2    S    
C22   C26   A    
C22   C24   A    
Ba2   O19   S    
O20   P4    S    
C38   O9    S    
Ba2   O24   S    
O5    P2    S    
Ba2   O5    S    
C38   H19   S    
Ba1   P1    S    
C9    P4    S    
C23   H7    S    
O17   P3    D    
C3    C8    A    
C34   H10   S    
C15   C17   A    
C4    O18   S    
C35   H49   S    
O10   P6    S    
O22   P4    S    
O8    P8    D    
C34   H9    S    
C8    C9    A    
C23   C34   S    
C36   H14   S    
C6    P1    S    
C13   C19   A    
C30   H50   S    
C18   C19   A    
C15   H30   S    
C20   C21   A    
Ba1   O15   S    
C29   O13   S    
C35   N2    S    
C28   H23   S    
Ba1   O5    S    
Ba2   P4    S    
