data_mof_unit_6304.cif
_audit_creation_date              2012-12-11T14:17:31-0500
_audit_creation_method            fapswitch 2.2
_symmetry_space_group_name_H-M    P1
_symmetry_Int_Tables_number       1
_space_group_crystal_system       triclinic
_cell_length_a                    6.942792
_cell_length_b                    13.61886
_cell_length_c                    20.452916
_cell_angle_alpha                 102.229065
_cell_angle_beta                  89.607684
_cell_angle_gamma                 90.760376
_cell_volume                      1889.81765069

loop_
_atom_site_label
_atom_site_type_symbol
_atom_type_description
_atom_site_fract_x
_atom_site_fract_y
_atom_site_fract_z
_atom_type_partial_charge
O1    O     O_R   0.506860 0.599390 0.449240 -0.535561
O2    O     O_R   0.180220 0.594600 0.586780 -0.509600
O3    O     O_R   0.004500 0.400610 0.550760 -0.548917
C1    C     C_R   0.347876 0.615678 0.613787 0.792898
O4    O     O_R   0.177490 0.611290 0.451970 -0.517581
O5    O     O_R   0.001750 0.417420 0.414990 -0.536108
C2    C     C_R   0.347386 0.637459 0.434735 0.854278
O6    O     O_R   0.509610 0.582580 0.585010 -0.543983
O7    O     O_3   0.337420 0.436370 0.488020 -0.390775
V1    V     V_3+5 0.064680 0.511800 0.502220 1.592973
O8    O     O_R   0.671710 0.405400 0.413220 -0.546303
C3    C     C_R   0.840052 0.384068 0.386540 0.766712
O9    O     O_R   0.674440 0.388710 0.548030 -0.549259
C4    C     C_R   0.841973 0.361749 0.564466 0.681539
V2    V     V_3+5 0.564010 0.488200 0.497780 1.531586
O10   O     O_3   0.841140 0.563630 0.511980 -0.350697
C5    C     C_R   0.794724 0.109793 0.609085 -0.038248
H1    H     H_    0.784978 0.163363 0.517915 0.139804
H2    H     H_    0.767474 0.033166 0.582765 0.214439
C6    C     C_R   0.844725 0.282959 0.602965 -0.039305
C7    C     C_R   0.883281 0.311731 0.924559 -0.187544
C8    C     C_R   0.882621 0.386935 0.888487 -0.111280
C9    C     C_R   0.868970 0.362919 0.819199 -0.121233
C10   C     C_R   0.856631 0.261629 0.783523 0.021041
C11   C     C_R   0.851340 0.183732 0.820683 -0.001759
C12   C     C_R   0.848164 0.236177 0.712225 0.000231
C13   C     C_R   0.816004 0.134532 0.679215 0.045091
C14   C     C_R   0.802430 0.058614 0.715921 0.267393
C15   C     C_R   0.833751 0.081772 0.785830 0.199281
C16   C     C_R   0.868072 0.308977 0.672250 -0.176575
C17   C     C_R   0.806173 0.183660 0.571557 -0.189689
C18   C     C_R   0.866738 0.210970 0.891962 -0.058901
H3    H     H_    0.899439 0.386940 0.693103 0.097388
H4    H     H_    0.895393 0.332295 0.978573 0.121006
H5    H     H_    0.865346 0.426095 0.795340 0.103788
H6    H     H_    0.892679 0.464837 0.914485 0.120983
C19   C     C_2   0.005700 0.288522 0.284810 -0.056394
C20   C     C_2   0.842619 0.315644 0.319810 -0.252012
H7    H     H_    0.143063 0.316996 0.306499 0.159210
H8    H     H_    0.703835 0.287650 0.299727 0.155829
C21   C     C_2   0.013497 0.220411 0.217202 -0.091490
C22   C     C_2   0.858100 0.183028 0.180485 -0.273259
H9    H     H_    0.156360 0.201223 0.196902 0.148468
H10   H     H_    0.713885 0.201303 0.199191 0.151238
C23   C     C_2   0.203890 0.782706 0.786645 -0.250173
C24   C     C_2   0.365451 0.821226 0.818214 -0.326693
H11   H     H_    0.068003 0.798280 0.813192 0.139499
H12   H     H_    0.504424 0.808415 0.793737 0.129903
C25   C     C_2   0.195399 0.721532 0.716317 0.400050
C26   C     C_2   0.354665 0.680799 0.682102 -0.278638
H13   H     H_    0.495668 0.691793 0.704939 0.082301
C27   C     C_R   0.459019 0.882554 0.385122 -0.125868
H14   H     H_    0.509511 0.956573 0.409738 0.209010
C28   C     C_R   0.362534 0.715006 0.394755 -0.175677
C29   C     C_R   0.340406 0.684885 0.071955 -0.272767
C30   C     C_R   0.348417 0.607940 0.107668 0.397937
C31   C     C_R   0.361803 0.632607 0.177307 -0.055227
C32   C     C_R   0.357960 0.733461 0.213231 0.036594
C33   C     C_R   0.368854 0.810480 0.176019 -0.013517
C34   C     C_R   0.362398 0.759850 0.284741 -0.013749
C35   C     C_R   0.419332 0.859527 0.316202 -0.045611
C36   C     C_R   0.434991 0.934365 0.278222 0.411613
C37   C     C_R   0.401675 0.910358 0.209714 -0.201312
C38   C     C_R   0.311904 0.691874 0.326574 0.263001
C39   C     C_R   0.439872 0.809823 0.423397 0.311090
C40   C     C_R   0.354926 0.785379 0.105353 -0.085182
H15   H     H_    0.331160 0.666502 0.017828 0.098246
H16   H     H_    0.386823 0.571529 0.202069 0.185289
H17   H     H_    0.411238 0.970452 0.182576 0.141862
O11   O     O_R   0.203230 0.917310 0.915020 -0.533444
O12   O     O_R   0.535500 0.888690 0.048040 -0.544476
O13   O     O_R   0.711080 0.082610 0.085000 -0.545037
C41   C     C_R   0.365832 0.862362 0.065044 0.699921
O14   O     O_R   0.532630 0.905370 0.913230 -0.537209
O15   O     O_R   0.708190 0.099410 0.949230 -0.529460
C42   C     C_R   0.365033 0.884894 0.886350 0.779409
O16   O     O_R   0.206120 0.900510 0.050790 -0.542060
O17   O     O_3   0.375360 0.063570 0.011990 -0.377357
V3    V     V_3+5 0.648170 0.988200 0.997780 1.472470
O18   O     O_R   0.038240 0.111390 0.951940 -0.541458
C43   C     C_R   0.870726 0.136950 0.934418 0.804031
O19   O     O_R   0.041120 0.094710 0.086750 -0.545345
C44   C     C_R   0.872240 0.115631 0.113568 0.735321
V4    V     V_3+5 0.148810 0.011930 0.002180 1.467694
O20   O     O_3   0.871750 0.936430 0.988010 -0.370620
O21   O     O_3   0.017079 0.704322 0.685796 -0.620501
H18   H     H_    0.917299 0.740568 0.716159 0.278566
Cl1   Cl    Cl    0.503158 0.842086 0.508686 -0.628119
Cl2   Cl    Cl    0.492172 0.060916 0.314262 -0.704240
O22   O     O_3   0.758149 0.961790 0.682255 -0.619984
H19   H     H_    0.688289 0.926504 0.713093 0.305125
Cl3   Cl    Cl    0.154961 0.587308 0.299397 -0.688171
O23   O     O_3   0.347870 0.507851 0.075971 -0.638735
H20   H     H_    0.338187 0.502802 0.027004 0.285792
O24   O     O_3   0.848867 0.005258 0.820256 -0.651265
H21   H     H_    0.904981 0.945762 0.790182 0.288471

loop_
_geom_bond_atom_site_label_1
_geom_bond_atom_site_label_2
_ccdc_geom_bond_type
C29   C30   A    
O23   H20   S    
C21   C22   D    
O24   H21   S    
O18   V4    S    
O12   V3    S    
C31   C32   A    
C28   C39   A    
C6    C16   A    
C23   C24   D    
C18   C43   S    
C12   C13   A    
C36   C37   A    
O14   C42   A    
C14   C15   A    
C10   C12   A    
O13   V3    S    
C27   C35   A    
C33   C40   A    
O5    C3    A    
C32   C34   A    
V2    O10   S    
C36   Cl2   S    
C30   C31   A    
O8    V2    S    
C37   H17   S    
C9    C10   A    
O1    V2    S    
O11   V4    S    
O7    V1    S    
C1    O6    A    
C11   C18   A    
O1    C2    A    
O9    C4    A    
C3    C20   S    
C21   H9    S    
C22   H10   S    
C24   C42   S    
O4    C2    A    
C23   H11   S    
C11   C15   A    
C30   O23   S    
C7    C18   A    
C24   H12   S    
C5    C13   A    
C4    C6    S    
C10   C11   A    
C15   O24   S    
O21   H18   S    
O15   C43   A    
C7    H4    S    
O16   V4    S    
C32   C33   A    
C40   C41   S    
O19   C44   A    
C1    C26   S    
C34   C35   A    
O2    C1    A    
C19   C20   D    
C23   C25   S    
C26   H13   S    
V4    O20   S    
O3    C4    A    
C12   C16   A    
O6    V2    S    
O19   V4    S    
O14   V3    S    
O9    V2    S    
O11   C42   A    
C5    C17   A    
C38   Cl3   S    
C31   H16   S    
O2    V1    S    
V3    O20   S    
C29   C40   A    
C27   H14   S    
C39   Cl1   S    
O12   C41   A    
C16   H3    S    
O17   V3    S    
C25   O21   S    
C22   C44   S    
O18   C43   A    
O5    V1    S    
C29   H15   S    
O8    C3    A    
C8    H6    S    
C33   C37   A    
C34   C38   A    
O7    V2    S    
O4    V1    S    
C19   H7    S    
O3    V1    S    
V1    O10   S    
C20   H8    S    
O22   H19   S    
C28   C38   A    
C5    H2    S    
C19   C21   S    
C35   C36   A    
C9    H5    S    
O13   C44   A    
O17   V4    S    
C25   C26   D    
C13   C14   A    
C41   O16   A    
C8    C9    A    
C14   O22   S    
H1    C17   S    
C2    C28   S    
C7    C8    A    
O15   V3    S    
C27   C39   A    
C6    C17   A    
