data_mof_unit_46755.cif
_audit_creation_date              2013-03-05T16:12:28-0500
_audit_creation_method            fapswitch 2.2
_symmetry_space_group_name_H-M    P1
_symmetry_Int_Tables_number       1
_space_group_crystal_system       triclinic
_cell_length_a                    10.65283
_cell_length_b                    9.986283
_cell_length_c                    23.535815
_cell_angle_alpha                 89.999443
_cell_angle_beta                  92.76617
_cell_angle_gamma                 89.926256
_cell_volume                      2500.87171364

loop_
_atom_site_label
_atom_site_type_symbol
_atom_site_description
_atom_site_fract_x
_atom_site_fract_y
_atom_site_fract_z
_atom_type_partial_charge
O1    O     O_R   0.316770 0.614620 0.500000 -0.620487
O2    O     O_R   0.683230 0.385380 0.500000 -0.625319
O3    O     O_R   0.683230 0.614620 0.500000 -0.619969
O4    O     O_R   0.316770 0.385380 0.500000 -0.624811
C1    C     C_R   0.261145 0.499717 0.506945 0.893878
C2    C     C_R   0.738798 0.499550 0.492995 0.894028
O5    O     O_R   0.499970 0.614690 0.416160 -0.609342
O6    O     O_R   0.500030 0.385310 0.583840 -0.631113
O7    O     O_R   0.500030 0.614690 0.583840 -0.609583
O8    O     O_R   0.499970 0.385310 0.416160 -0.631472
C3    C     C_R   0.500434 0.499457 0.389662 0.913522
C4    C     C_R   0.499715 0.499490 0.610334 0.914386
Zn1   Zn    Zn3+2 0.500000 0.653120 0.500000 0.934185
Zn2   Zn    Zn3+2 0.500000 0.346880 0.500000 0.911838
C5    C     C_R   0.609749 0.458582 0.882831 0.564969
C6    C     C_R   0.390988 0.455338 0.117345 0.565379
N1    N     N_R   0.498685 0.480937 0.852528 -0.337471
N2    N     N_R   0.502188 0.477895 0.147524 -0.337431
C7    C     C_R   0.387734 0.492727 0.879185 0.509184
C8    C     C_R   0.613107 0.489766 0.120915 0.508592
C9    C     C_R   0.385831 0.479173 0.938174 -0.028252
C10   C     C_R   0.615024 0.478296 0.061882 -0.028540
C11   C     C_R   0.500509 0.471872 0.970163 -0.066187
C12   C     C_R   0.500327 0.469912 0.029909 -0.066464
C13   C     C_R   0.615147 0.467287 0.942459 -0.057969
C14   C     C_R   0.385715 0.460326 0.057546 -0.061000
C15   C     C_R   0.272105 0.473663 0.965536 -0.234477
C16   C     C_R   0.728838 0.478383 0.034373 -0.236530
C17   C     C_R   0.270742 0.458752 0.024550 0.221329
C18   C     C_R   0.730259 0.470948 0.975123 0.222423
O9    O     O_2   0.713583 0.426295 0.855134 -0.530850
O10   O     O_2   0.286564 0.428534 0.145480 -0.536365
O11   O     O_2   0.279663 0.517957 0.848719 -0.571859
O12   O     O_2   0.721127 0.514239 0.151502 -0.568041
H1    H     H_    0.183326 0.476538 0.941068 0.186755
H2    H     H_    0.817634 0.484660 0.058718 0.188687
C19   C     C_R   0.581192 0.403070 0.241271 -0.154810
C20   C     C_R   0.418976 0.405655 0.758977 -0.151612
H3    H     H_    0.641044 0.332688 0.220257 0.176503
H4    H     H_    0.358499 0.336385 0.780162 0.178163
C21   C     C_R   0.585620 0.410146 0.300310 0.111213
C22   C     C_R   0.414563 0.411842 0.699924 0.109455
C23   C     C_R   0.501284 0.495995 0.327396 -0.112047
C24   C     C_R   0.499462 0.496279 0.672603 -0.112372
C25   C     C_R   0.415940 0.576197 0.294553 0.081549
C26   C     C_R   0.585819 0.575585 0.705195 0.083382
C27   C     C_R   0.422653 0.578453 0.234898 0.216771
C28   C     C_R   0.579658 0.578467 0.764868 0.219266
C29   C     C_R   0.502563 0.487542 0.208436 0.189282
C30   C     C_R   0.498495 0.489486 0.791590 0.188425
C31   C     C_R   0.061770 0.374859 0.511282 0.150980
C32   C     C_R   0.938833 0.620039 0.487638 0.141969
C33   C     C_R   0.938467 0.374524 0.489070 0.150809
C34   C     C_R   0.060616 0.620447 0.511393 0.141276
C35   C     C_R   0.873154 0.497736 0.484715 -0.168146
C36   C     C_R   0.126699 0.498228 0.515054 -0.168209
C37   C     C_R   0.575878 0.071996 0.538309 0.200221
C38   C     C_R   0.422982 0.928902 0.462281 0.190477
C39   C     C_R   0.424062 0.072185 0.461712 0.200762
C40   C     C_R   0.577082 0.928708 0.537699 0.191660
N3    N     N_R   0.500000 0.857200 0.500000 -0.118307
N4    N     N_R   0.500000 0.142800 0.500000 -0.118792
N5    N     N_2   0.152886 0.447773 0.050096 -0.253001
H5    H     H_    0.085869 0.513078 0.033245 0.212519
C41   C     C_3   0.106327 0.311967 0.052773 -0.702640
H6    H     H_    0.017448 0.310821 0.075551 0.238234
H7    H     H_    0.175673 0.246581 0.076159 0.266077
H8    H     H_    0.087711 0.271402 0.009206 0.207388
N6    N     N_2   0.847823 0.474418 0.948942 -0.254653
H9    H     H_    0.917288 0.420169 0.970486 0.213759
C42   C     C_3   0.889115 0.607707 0.934735 -0.708596
H10   H     H_    0.976599 0.601034 0.911099 0.247145
H11   H     H_    0.908518 0.667176 0.974098 0.211631
H12   H     H_    0.816491 0.659539 0.907286 0.263465
C43   C     C_3   0.683656 0.328602 0.333103 -0.865301
H13   H     H_    0.749874 0.279294 0.304620 0.238243
H14   H     H_    0.739663 0.395669 0.362094 0.228575
H15   H     H_    0.638336 0.248619 0.357576 0.257294
C44   C     C_3   0.315935 0.330963 0.667343 -0.865979
H16   H     H_    0.260112 0.398343 0.638348 0.228472
H17   H     H_    0.360763 0.250476 0.642897 0.257153
H18   H     H_    0.249658 0.282375 0.695956 0.239014
N7    N     N_2   0.321919 0.651061 0.321601 -0.316883
H19   H     H_    0.298592 0.741327 0.302722 0.229176
C45   C     C_3   0.212794 0.574037 0.335852 -0.778795
H20   H     H_    0.162545 0.536805 0.296507 0.255609
H21   H     H_    0.147873 0.638357 0.359394 0.239556
H22   H     H_    0.240586 0.487813 0.363523 0.238778
N8    N     N_2   0.680047 0.649243 0.677847 -0.317095
H23   H     H_    0.704180 0.739407 0.696564 0.230132
C46   C     C_3   0.788417 0.570970 0.663379 -0.780021
H24   H     H_    0.838954 0.533519 0.702638 0.254966
H25   H     H_    0.853399 0.634429 0.639557 0.239894
H26   H     H_    0.759678 0.484823 0.635893 0.239171
N9    N     N_2   0.347463 0.668482 0.200776 -0.278763
H27   H     H_    0.257022 0.682953 0.213215 0.248117
C47   C     C_3   0.410562 0.790814 0.186062 -0.795257
H28   H     H_    0.348095 0.850962 0.156800 0.246984
H29   H     H_    0.498107 0.767895 0.164115 0.261163
H30   H     H_    0.433824 0.850658 0.224961 0.232147
N10   N     N_2   0.656796 0.667006 0.798738 -0.289972
H31   H     H_    0.747138 0.679887 0.785944 0.245274
C48   C     C_3   0.595802 0.790307 0.814032 -0.809889
H32   H     H_    0.659796 0.848977 0.843121 0.245375
H33   H     H_    0.508558 0.768781 0.836395 0.262908
H34   H     H_    0.572437 0.850954 0.775356 0.237961
C49   C     C_3   0.117759 0.244193 0.533955 -0.839893
H35   H     H_    0.200584 0.259547 0.563173 0.253813
H36   H     H_    0.048611 0.191113 0.559643 0.226651
H37   H     H_    0.143793 0.178469 0.498507 0.244978
C50   C     C_3   0.885424 0.747760 0.461312 -0.832960
H38   H     H_    0.806062 0.727097 0.430243 0.249080
H39   H     H_    0.854630 0.816917 0.494625 0.246211
H40   H     H_    0.958132 0.798588 0.436820 0.223051
C51   C     C_3   0.882832 0.243244 0.467073 -0.840418
H41   H     H_    0.800226 0.257836 0.437608 0.253890
H42   H     H_    0.952239 0.189198 0.441808 0.226431
H43   H     H_    0.856638 0.178739 0.502868 0.245091
C52   C     C_3   0.113499 0.749092 0.536945 -0.833057
H44   H     H_    0.192408 0.729457 0.568419 0.249421
H45   H     H_    0.144685 0.816782 0.503193 0.246233
H46   H     H_    0.040375 0.801164 0.560855 0.223000
C53   C     C_3   0.657055 0.143546 0.583381 -0.823434
H47   H     H_    0.667560 0.250075 0.576296 0.293890
H48   H     H_    0.617581 0.128809 0.625729 0.226310
H49   H     H_    0.755061 0.106469 0.584644 0.199789
C54   C     C_3   0.336942 0.858960 0.419331 -0.808732
H50   H     H_    0.333808 0.751452 0.424490 0.316200
H51   H     H_    0.238236 0.891589 0.422930 0.194054
H52   H     H_    0.367730 0.882038 0.376062 0.225216
C55   C     C_3   0.342215 0.143855 0.416846 -0.822728
H53   H     H_    0.332855 0.250671 0.423503 0.294186
H54   H     H_    0.380160 0.127666 0.374263 0.225254
H55   H     H_    0.243931 0.108017 0.416418 0.199430
C56   C     C_3   0.664081 0.858618 0.580288 -0.809410
H56   H     H_    0.666083 0.751016 0.575633 0.316528
H57   H     H_    0.762667 0.890097 0.575668 0.194392
H58   H     H_    0.635427 0.882893 0.623756 0.224701

loop_
_geom_bond_atom_site_label_1
_geom_bond_atom_site_label_2
_geom_bond_distance
_ccdc_geom_bond_type
C56   H58   1.108405 S    
N5    C41   1.447051 S    
N10   H31   1.030387 S    
C15   C17   1.397663 A    
C49   H36   1.110453 S    
C1    C36   1.454089 S    
N9    H27   1.030389 S    
C2    C35   1.453848 S    
C55   H55   1.106498 S    
C18   N6    1.422654 S    
C17   N5    1.422333 S    
C47   H28   1.110255 S    
C37   N4    1.376377 A    
C27   C29   1.409246 A    
C26   N8    1.423802 S    
C25   N7    1.423716 S    
C45   H20   1.111283 S    
O5    C3    1.309000 A    
C39   C55   1.515600 S    
O1    C1    1.305984 A    
C7    C9    1.396058 A    
C12   C14   1.414195 A    
C20   C22   1.389759 A    
C53   H48   1.110189 S    
C37   C53   1.515492 S    
C51   H41   1.103315 S    
Zn2   N4    2.038001 S    
C56   H57   1.107005 S    
C31   C36   1.414342 A    
C25   C27   1.409465 A    
N6    C42   1.446623 S    
O7    Zn1   2.010197 S    
C42   H12   1.111093 S    
N1    C7    1.369554 A    
C50   H38   1.110309 S    
C32   C34   1.387696 A    
C41   H7    1.111109 S    
C11   C12   1.406402 A    
C3    C23   1.466356 S    
N8    C46   1.447522 S    
C56   H56   1.080403 S    
O3    Zn1   1.988936 S    
C32   C35   1.408378 A    
C8    O12   1.350146 S    
C51   H43   1.107095 S    
C38   N3    1.379180 A    
C28   C30   1.409664 A    
C9    C15   1.400354 A    
C22   C44   1.506210 S    
N10   C48   1.445141 S    
C10   C16   1.401773 A    
C34   C52   1.516119 S    
O4    Zn2   1.988937 S    
C21   C23   1.414868 A    
O2    C2    1.299482 A    
C22   C24   1.414402 A    
C47   H29   1.111262 S    
C24   C26   1.412698 A    
C26   C28   1.409454 A    
C52   H45   1.106523 S    
C6    C14   1.406709 A    
C19   H3    1.083714 S    
C34   C36   1.408748 A    
C45   H21   1.110733 S    
C53   H47   1.083595 S    
C44   H16   1.109915 S    
C48   H33   1.111185 S    
C7    O11   1.350033 S    
C46   H24   1.111272 S    
C44   H17   1.109349 S    
C37   C40   1.431042 A    
C32   C50   1.516084 S    
C15   H1    1.083629 S    
C38   C39   1.430995 A    
C46   H25   1.110735 S    
C53   H49   1.106346 S    
C40   N3    1.379373 A    
C31   C33   1.390109 A    
C48   H34   1.111354 S    
C43   H13   1.110946 S    
C54   H51   1.107573 S    
C21   C43   1.506488 S    
C19   C29   1.395028 A    
N7    H19   1.029806 S    
O5    Zn1   2.010207 S    
O6    C4    1.299674 A    
C41   H8    1.111487 S    
C50   H39   1.106156 S    
C43   H14   1.109886 S    
C40   C56   1.504064 S    
C31   C49   1.520019 S    
N7    C45   1.447571 S    
C8    C10   1.395248 A    
C9    C11   1.405540 A    
O8    Zn2   2.010199 S    
C49   H37   1.107073 S    
C10   C12   1.406310 A    
O1    Zn1   1.989908 S    
C49   H35   1.103029 S    
C55   H53   1.083315 S    
C47   H30   1.111396 S    
C42   H11   1.111550 S    
C45   H22   1.110831 S    
C13   C18   1.416047 A    
C5    N1    1.369748 A    
C51   H42   1.110399 S    
C39   N4    1.376530 A    
O6    Zn2   2.010205 S    
O7    C4    1.308623 A    
C33   C35   1.414025 A    
O4    C1    1.299681 A    
C55   H54   1.110361 S    
N1    C30   1.436655 S    
C44   H18   1.110943 S    
C52   H44   1.110527 S    
N9    C47   1.445250 S    
C5    O9    1.349485 S    
C20   C30   1.395238 A    
C6    O10   1.348864 S    
C16   C18   1.397286 A    
C54   H52   1.109135 S    
C42   H10   1.110101 S    
C23   C25   1.412734 A    
C46   H26   1.110800 S    
C20   H4    1.083672 S    
C28   N10   1.425168 S    
C52   H46   1.111375 S    
C50   H40   1.110832 S    
N2    C8    1.369012 A    
C11   C13   1.412569 A    
C19   C21   1.389853 A    
N6    H9    1.030020 S    
O2    Zn2   1.989907 S    
C43   H15   1.109353 S    
C5    C13   1.404506 A    
O8    C3    1.299478 A    
N5    H5    1.031381 S    
C33   C51   1.520002 S    
C38   C54   1.504000 S    
Zn1   N3    2.038001 S    
C16   H2    1.083904 S    
C14   C17   1.418343 A    
C6    N2    1.370392 A    
C41   H6    1.110406 S    
O3    C2    1.306049 A    
C48   H32   1.110273 S    
C27   N9    1.425099 S    
C4    C24   1.466037 S    
N8    H23   1.029826 S    
C54   H50   1.081183 S    
N2    C29   1.436664 S    
