data_mof_unit_41235.cif
_audit_creation_date              2012-12-10T20:31:07-0500
_audit_creation_method            fapswitch 2.2
_symmetry_space_group_name_H-M    P1
_symmetry_Int_Tables_number       1
_space_group_crystal_system       triclinic
_cell_length_a                    14.893941
_cell_length_b                    10.62819
_cell_length_c                    9.857839
_cell_angle_alpha                 89.729106
_cell_angle_beta                  89.807956
_cell_angle_gamma                 90.214708
_cell_volume                      1560.41562622

loop_
_atom_site_label
_atom_site_type_symbol
_atom_type_description
_atom_site_fract_x
_atom_site_fract_y
_atom_site_fract_z
_atom_type_partial_charge
C1    C     C_R   0.496305 0.259707 0.500226 0.865669
C2    C     C_R   0.186051 0.399597 0.442242 -0.274607
C3    C     C_R   0.231810 0.499804 0.500947 -0.048723
C4    C     C_R   0.327032 0.499522 0.500252 0.876984
C5    C     C_R   0.187274 0.600605 0.560090 -0.273037
C6    C     C_R   0.466723 0.063269 0.621760 0.132351
C7    C     C_R   0.477915 0.128493 0.500003 -0.100154
C8    C     C_R   0.466299 0.065161 0.376592 -0.236484
C9    C     C_R   0.464467 0.935153 0.376617 -0.245270
C10   C     C_R   0.475038 0.870567 0.499848 -0.110716
C11   C     C_R   0.464610 0.934985 0.621829 0.133596
C12   C     C_R   0.907165 0.608785 0.551500 0.010171
C13   C     C_3   0.513267 0.926138 0.754120 -0.499390
C14   C     C_3   0.516999 0.068954 0.752603 -0.485108
C15   C     C_R   0.449392 0.414577 0.071797 0.117886
C16   C     C_R   0.495014 0.740009 0.499876 0.887399
C17   C     C_R   0.556421 0.577478 0.072222 0.528582
C18   C     C_R   0.556932 0.575370 0.926816 -0.253781
C19   C     C_R   0.449357 0.414688 0.929445 0.195148
C20   C     C_3   0.349886 0.399926 0.924088 -0.481666
C21   C     C_3   0.349877 0.399863 0.078169 -0.491620
C22   C     C_R   0.672934 0.501362 0.499588 0.945288
C23   C     C_R   0.952367 0.296944 0.391161 -0.193968
C24   C     C_R   0.813661 0.611461 0.544335 0.401697
C25   C     C_R   0.768262 0.504421 0.498044 -0.164210
C26   C     C_R   0.813323 0.400436 0.446918 -0.329396
C27   C     C_R   0.906151 0.399623 0.445485 0.131638
C28   C     C_R   0.953360 0.503130 0.499924 -0.012659
C29   C     C_3   0.756781 0.793724 0.460784 0.077180
C30   C     C_3   0.728757 0.926153 0.499733 -0.853062
C31   C     C_3   0.619114 0.776808 0.101442 0.061413
C32   C     C_3   0.710709 0.808437 0.040724 -0.852396
C33   C     C_R   0.045675 0.296918 0.389310 -0.223386
C34   C     C_R   0.093058 0.398599 0.443873 0.126785
C35   C     C_R   0.046869 0.501611 0.501016 0.085687
C36   C     C_R   0.094358 0.603480 0.558337 0.134178
C37   C     C_R   0.048409 0.706608 0.611650 -0.242362
C38   C     C_R   0.955235 0.709900 0.607101 -0.184040
H1    H     H_    0.462629 0.886598 0.280357 0.161673
H2    H     H_    0.775775 0.320457 0.408579 0.156463
H3    H     H_    0.329541 0.307959 0.123215 0.197370
H4    H     H_    0.916355 0.217330 0.349351 0.144428
H5    H     H_    0.080744 0.217453 0.345877 0.146142
H6    H     H_    0.223022 0.322197 0.397627 0.136976
H7    H     H_    0.225190 0.677531 0.604267 0.137828
H8    H     H_    0.084556 0.785158 0.655438 0.148724
H9    H     H_    0.921041 0.791256 0.647824 0.189269
H10   H     H_    0.466036 0.114443 0.280130 0.171232
H11   H     H_    0.820629 0.801999 0.401682 0.138612
H12   H     H_    0.469527 0.887610 0.836039 0.196329
H13   H     H_    0.704035 0.752772 0.394534 0.181798
H14   H     H_    0.779623 0.968704 0.567881 0.255409
H15   H     H_    0.722627 0.985356 0.407101 0.210408
H16   H     H_    0.662964 0.923798 0.551972 0.259244
H17   H     H_    0.609862 0.837051 0.191988 0.169531
H18   H     H_    0.564763 0.803321 0.029386 0.109182
H19   H     H_    0.724431 0.749413 0.950573 0.264988
H20   H     H_    0.712495 0.908955 0.009539 0.218923
H21   H     H_    0.763997 0.791874 0.117261 0.251717
H22   H     H_    0.580248 0.881083 0.746308 0.222676
H23   H     H_    0.476711 0.112441 0.835021 0.202302
H24   H     H_    0.586200 0.107101 0.740144 0.210646
H25   H     H_    0.602197 0.635195 0.869728 0.181307
H26   H     H_    0.315907 0.483334 0.879486 0.220944
H27   H     H_    0.329647 0.308012 0.880116 0.197475
H28   H     H_    0.315883 0.483241 0.122285 0.222837
N1    N     N_R   0.499390 0.499140 0.142800 -0.149000
N2    N     N_R   0.499390 0.499180 0.857150 -0.127928
O1    O     O_R   0.500010 0.316790 0.614690 -0.616443
O2    O     O_3   0.617100 0.649650 0.145166 -0.583771
O3    O     O_R   0.500000 0.316760 0.385350 -0.627395
O4    O     O_R   0.367850 0.499990 0.614680 -0.624046
O5    O     O_R   0.367840 0.499950 0.385340 -0.626839
O6    O     O_R   0.500000 0.683240 0.614650 -0.614466
O7    O     O_R   0.499990 0.683210 0.385310 -0.608688
O8    O     O_R   0.632160 0.500050 0.614660 -0.599903
O9    O     O_R   0.632150 0.500010 0.385320 -0.582144
O10   O     O_3   0.766832 0.719133 0.579153 -0.626475
Zn1   Zn    Zn3+2 0.500010 0.500020 0.653130 0.953149
Zn2   Zn    Zn3+2 0.499990 0.499980 0.346870 0.973899

loop_
_geom_bond_atom_site_label_1
_geom_bond_atom_site_label_2
_ccdc_geom_bond_type
C21   H28   S    
C16   O7    A    
C19   C20   S    
O8    Zn1   S    
C32   H20   S    
C7    C8    A    
C13   H22   S    
C29   H11   S    
C15   C19   A    
C30   H16   S    
C26   C27   A    
C1    O3    A    
C23   H4    S    
C12   C28   A    
C16   O6    A    
C36   C37   A    
C37   C38   A    
O4    Zn1   S    
C29   H13   S    
C18   H25   S    
C18   N2    A    
C14   H24   S    
C5    C36   A    
C9    H1    S    
C34   C35   A    
C31   O2    S    
C29   O10   S    
C35   C36   A    
C28   C35   A    
C2    H6    S    
C8    C9    A    
C23   C33   A    
C22   C25   S    
C23   C27   A    
C31   H18   S    
O7    Zn2   S    
C2    C34   A    
N2    Zn1   S    
C17   O2    S    
C13   C14   S    
C32   H19   S    
O3    Zn2   S    
C17   C18   A    
C22   O8    A    
C30   H15   S    
C17   N1    A    
C33   H5    S    
C20   H27   S    
C24   C25   A    
C6    C11   A    
C25   C26   A    
C14   H23   S    
C5    H7    S    
C1    O1    A    
C20   H26   S    
C8    H10   S    
C29   C30   S    
C6    C14   S    
C31   C32   S    
C15   N1    A    
C33   C34   A    
C38   H9    S    
C19   N2    A    
C4    O5    A    
C21   H3    S    
C24   O10   S    
O6    Zn1   S    
O1    Zn1   S    
C3    C4    S    
C4    O4    A    
C9    C10   A    
O9    Zn2   S    
C30   H14   S    
C1    C7    S    
N1    Zn2   S    
C22   O9    A    
C3    C5    A    
C6    C7    A    
C12   C24   A    
C2    C3    A    
C10   C16   S    
C11   C13   S    
C26   H2    S    
O5    Zn2   S    
C12   C38   A    
C10   C11   A    
C13   H12   S    
C15   C21   S    
C20   C21   S    
C27   C28   A    
C32   H21   S    
C31   H17   S    
C37   H8    S    
