data_mof_unit_48184.cif
_audit_creation_date              2012-10-26T21:12:32-0400
_audit_creation_method            fapswitch 2.2
_symmetry_space_group_name_H-M    P1
_symmetry_Int_Tables_number       1
_space_group_crystal_system       triclinic
_cell_length_a                    23.439513
_cell_length_b                    10.867873
_cell_length_c                    9.581552
_cell_angle_alpha                 89.233741
_cell_angle_beta                  89.588611
_cell_angle_gamma                 92.248308
_cell_volume                      2438.61250617

loop_
_atom_site_label
_atom_site_type_symbol
_atom_type_description
_atom_site_fract_x
_atom_site_fract_y
_atom_site_fract_z
_atom_type_partial_charge
C1    C     C_R   0.503518 0.262192 0.501741 0.585145
C2    C     C_R   0.120804 0.495952 0.620655 0.434322
C3    C     C_R   0.239405 0.588604 0.440561 0.308882
C4    C     C_R   0.391288 0.499335 0.500220 0.619284
C5    C     C_R   0.299594 0.596471 0.449165 0.195087
C6    C     C_R   0.328996 0.494677 0.499342 -0.010992
C7    C     C_R   0.298902 0.386564 0.543416 0.186645
C8    C     C_R   0.239277 0.382644 0.543716 -0.108716
C9    C     C_R   0.209590 0.482858 0.492971 0.166118
C10   C     C_R   0.757977 0.395801 0.534406 -0.051360
C11   C     C_R   0.698539 0.396012 0.532852 0.235788
C12   C     C_R   0.969243 0.450543 0.250866 -0.125899
C13   C     C_R   0.671148 0.505243 0.500311 0.033903
C14   C     C_R   0.703457 0.615907 0.471895 -0.050279
C15   C     C_R   0.763927 0.613773 0.470077 0.058174
C16   C     C_R   0.495613 0.736731 0.499808 0.532039
C17   C     C_R   0.790651 0.502300 0.500871 0.201591
C18   C     C_R   0.500917 0.109628 0.769500 -0.046989
C19   C     C_R   0.477853 0.047356 0.886056 -0.120983
C20   C     C_R   0.451461 0.931985 0.871483 -0.129999
C21   C     C_R   0.452666 0.874580 0.742700 -0.091972
C22   C     C_R   0.479808 0.933272 0.625409 -0.002216
C23   C     C_R   0.028535 0.445399 0.250623 -0.127372
C24   C     C_R   0.496248 0.058863 0.633904 -0.022714
C25   C     C_R   0.507359 0.126982 0.507113 -0.009300
C26   C     C_R   0.516485 0.063607 0.381239 0.231485
C27   C     C_R   0.508627 0.935802 0.380526 -0.153807
C28   C     C_R   0.608734 0.501759 0.499809 0.565651
C29   C     C_R   0.491818 0.870351 0.500999 -0.049505
C30   C     C_R   0.574180 0.666083 0.140396 -0.079229
C31   C     C_R   0.609792 0.749028 0.066577 -0.171542
C32   C     C_R   0.610142 0.748736 0.922910 -0.150273
C33   C     C_R   0.574794 0.665700 0.852359 -0.067911
C34   C     C_R   0.059337 0.461455 0.374709 0.025626
C35   C     C_R   0.536622 0.581497 0.923415 0.110109
C36   C     C_R   0.536411 0.581692 0.072887 0.138405
C37   C     C_R   0.465351 0.422079 0.076644 0.011019
C38   C     C_R   0.463984 0.422723 0.926527 0.368811
C39   C     C_R   0.880352 0.509019 0.624177 0.400772
C40   C     C_R   0.879731 0.476127 0.378155 0.394709
C41   C     C_R   0.939428 0.470683 0.375544 0.034236
C42   C     C_R   0.969839 0.485718 0.501096 -0.043402
C43   C     C_R   0.940108 0.504254 0.626657 -0.018763
C44   C     C_3   0.663971 0.209707 0.461546 -0.124262
C45   C     C_R   0.029996 0.481666 0.500901 -0.073550
C46   C     C_3   0.674540 0.736890 0.448820 -0.413773
C47   C     C_3   0.799377 0.730251 0.437504 -0.344094
C48   C     C_3   0.576668 0.078482 0.187291 -0.145822
C49   C     C_3   0.379450 0.299636 0.924474 -0.109286
C50   C     C_3   0.056826 0.644681 0.928736 -0.091338
C51   C     C_3   0.218854 0.706855 0.249001 -0.069026
C52   C     C_3   0.328842 0.788947 0.513172 -0.110047
C53   C     C_3   0.335535 0.204790 0.482288 -0.113161
C54   C     C_R   0.060641 0.497537 0.626416 0.034918
C55   C     C_R   0.030360 0.516376 0.752465 0.265245
C56   C     C_R   0.970494 0.517205 0.751466 -0.112894
C57   C     C_R   0.119009 0.458513 0.375484 0.423581
Cu1   Cu    Cu3+1 0.500000 0.499990 0.640660 1.005424
Cu2   Cu    Cu3+1 0.500000 0.500010 0.359340 0.962656
H1    H     H_    0.946903 0.438598 0.153097 0.171974
H2    H     H_    0.637647 0.813480 0.121368 0.105642
H3    H     H_    0.638376 0.812667 0.865354 0.124414
H4    H     H_    0.579615 0.672087 0.742398 0.180840
H5    H     H_    0.947921 0.527507 0.849404 0.167617
H6    H     H_    0.215922 0.301134 0.582564 0.154209
H7    H     H_    0.779057 0.312013 0.561922 0.136362
H8    H     H_    0.642965 0.252165 0.369904 0.149001
H9    H     H_    0.637690 0.127098 0.494266 0.136817
H10   H     H_    0.706945 0.178204 0.431894 0.109773
H11   H     H_    0.627473 0.729184 0.459233 0.116545
H12   H     H_    0.524624 0.194163 0.790419 0.172885
H13   H     H_    0.689497 0.804483 0.527647 0.130427
H14   H     H_    0.685023 0.773916 0.342947 0.126239
H15   H     H_    0.790622 0.801350 0.516042 0.126697
H16   H     H_    0.845945 0.716415 0.438743 0.152033
H17   H     H_    0.788683 0.765500 0.332022 0.136376
H18   H     H_    0.561233 0.004704 0.116323 0.123435
H19   H     H_    0.609551 0.042693 0.258939 0.086468
H20   H     H_    0.597734 0.152016 0.121547 0.151045
H21   H     H_    0.349222 0.255944 0.850150 0.208192
H22   H     H_    0.357157 0.376281 0.974704 0.108142
H23   H     H_    0.479895 0.089610 0.987578 0.147971
H24   H     H_    0.390063 0.226891 0.001469 0.086745
H25   H     H_    0.072908 0.713680 0.849351 0.134515
H26   H     H_    0.085057 0.652773 0.020895 0.158379
H27   H     H_    0.013017 0.665950 0.963656 0.101780
H28   H     H_    0.222986 0.619909 0.189972 0.158970
H29   H     H_    0.257361 0.768037 0.232055 0.159019
H30   H     H_    0.182071 0.754751 0.204509 0.131672
H31   H     H_    0.358415 0.867656 0.484793 0.129461
H32   H     H_    0.343378 0.749904 0.614247 0.103188
H33   H     H_    0.285467 0.825385 0.525461 0.163311
H34   H     H_    0.431724 0.885146 0.960946 0.121659
H35   H     H_    0.359967 0.126175 0.521459 0.139125
H36   H     H_    0.360802 0.249475 0.395346 0.119505
H37   H     H_    0.293871 0.167104 0.443318 0.116422
H38   H     H_    0.431455 0.784867 0.736383 0.140536
H39   H     H_    0.515747 0.886950 0.284734 0.139140
H40   H     H_    0.438603 0.358452 0.137831 0.119997
H41   H     H_    0.050174 0.429347 0.152722 0.202923
H42   H     H_    0.578304 0.671941 0.249973 0.178525
N1    N     N_R   0.851662 0.496002 0.501028 -0.399595
N2    N     N_R   0.148341 0.477939 0.496517 -0.378964
N3    N     N_R   0.500540 0.501210 0.147910 -0.268888
N4    N     N_R   0.500560 0.501290 0.852040 -0.239771
O1    O     O_R   0.500000 0.319640 0.618810 -0.470140
O2    O     O_R   0.582120 0.500020 0.618760 -0.504127
O3    O     O_R   0.582120 0.500050 0.381190 -0.524138
O4    O     O_2   0.851101 0.527301 0.743453 -0.483601
O5    O     O_3   0.666945 0.291532 0.574225 -0.562893
O6    O     O_3   0.530308 0.129098 0.258876 -0.555558
O7    O     O_3   0.428757 0.342397 0.850365 -0.517991
O8    O     O_3   0.058730 0.523467 0.878512 -0.525187
O9    O     O_3   0.208562 0.686790 0.393111 -0.554890
O10   O     O_3   0.330113 0.701782 0.405612 -0.571989
O11   O     O_3   0.327724 0.286686 0.593043 -0.558066
O12   O     O_2   0.849899 0.462118 0.259101 -0.488871
O13   O     O_2   0.147613 0.436433 0.256280 -0.503703
O14   O     O_2   0.151843 0.513775 0.737182 -0.438578
O15   O     O_R   0.500000 0.319660 0.381240 -0.453348
O16   O     O_R   0.417880 0.499950 0.618810 -0.443892
O17   O     O_R   0.417880 0.499980 0.381240 -0.499170
O18   O     O_R   0.500000 0.680340 0.618760 -0.547859
O19   O     O_R   0.500000 0.680360 0.381190 -0.525908

loop_
_geom_bond_atom_site_label_1
_geom_bond_atom_site_label_2
_ccdc_geom_bond_type
C7    O11   S    
C55   C56   A    
C27   H39   S    
Cu2   O15   S    
C22   C29   A    
C53   H36   S    
C41   C42   A    
C31   H2    S    
C52   H31   S    
C19   C20   A    
C15   C47   S    
C20   H34   S    
C50   H25   S    
C7    C8    A    
C14   C46   S    
C12   C23   A    
Cu1   O18   S    
C37   C38   A    
C3    C9    A    
Cu2   N3    S    
C48   H20   S    
C16   O18   A    
C47   H17   S    
C18   C19   A    
C30   C31   A    
C27   C29   A    
C10   C17   A    
C48   H19   S    
C28   O2    A    
Cu2   O19   S    
Cu1   O2    S    
C49   H22   S    
C50   H26   S    
C35   C36   A    
C8    C9    A    
C34   C57   A    
C56   H5    S    
C13   C28   S    
C19   H23   S    
C46   H13   S    
C53   O11   S    
C33   H4    S    
C1    O1    A    
Cu2   O17   S    
C23   H41   S    
C8    H6    S    
C13   C14   A    
C5    O10   S    
C11   O5    S    
C1    C25   S    
C10   H7    S    
C57   N2    A    
C51   O9    S    
C44   H8    S    
C24   C25   A    
C4    C6    S    
C2    C54   A    
C51   H28   S    
C39   C43   A    
C55   O8    S    
Cu1   Cu2   S    
Cu1   O1    S    
C42   C45   A    
C48   H18   S    
C17   N1    S    
C12   C41   A    
C35   N4    A    
C21   H38   S    
C31   C32   A    
C9    N2    S    
C23   C34   A    
C26   C27   A    
C4    O17   A    
C44   H10   S    
C34   C45   A    
C49   O7    S    
C40   C41   A    
C45   C54   A    
C18   C24   A    
C44   H9    S    
C42   C43   A    
C38   O7    S    
C37   H40   S    
C39   N1    A    
C52   O10   S    
C18   H12   S    
C15   C17   A    
C54   C55   A    
Cu1   O16   S    
C53   H35   S    
C47   H15   S    
C3    C5    A    
C3    O9    S    
C51   H29   S    
C37   N3    A    
C2    O14   S    
C6    C7    A    
Cu2   O3    S    
C49   H21   S    
C30   C36   A    
C36   N3    A    
C50   O8    S    
C32   C33   A    
Cu1   N4    S    
C38   N4    A    
C25   C26   A    
C47   H16   S    
C51   H30   S    
C11   C13   A    
C49   H24   S    
C5    C6    A    
C2    N2    A    
C28   O3    A    
C30   H42   S    
C33   C35   A    
C4    O16   A    
C40   O12   S    
C22   C24   A    
C16   O19   A    
C46   H11   S    
C52   H33   S    
C10   C11   A    
C50   H27   S    
C40   N1    A    
C12   H1    S    
C43   C56   A    
C39   O4    S    
C48   O6    S    
C20   C21   A    
C16   C29   S    
C14   C15   A    
C52   H32   S    
C32   H3    S    
C21   C22   A    
C26   O6    S    
C1    O15   A    
C46   H14   S    
C57   O13   S    
C53   H37   S    
C44   O5    S    
