data_mof_unit_10311.cif
_audit_creation_date              2012-12-10T20:28:39-0500
_audit_creation_method            fapswitch 2.2
_symmetry_space_group_name_H-M    P1
_symmetry_Int_Tables_number       1
_space_group_crystal_system       triclinic
_cell_length_a                    10.627258
_cell_length_b                    10.675898
_cell_length_c                    9.875765
_cell_angle_alpha                 89.818209
_cell_angle_beta                  89.818121
_cell_angle_gamma                 89.796593
_cell_volume                      1120.44177153

loop_
_atom_site_label
_atom_site_type_symbol
_atom_type_description
_atom_site_fract_x
_atom_site_fract_y
_atom_site_fract_z
_atom_type_partial_charge
C1    C     C_R   0.503054 0.259906 0.500111 0.906201
C2    C     C_R   0.064951 0.614785 0.550654 0.132209
C3    C     C_R   0.128597 0.508975 0.500147 -0.076633
C4    C     C_R   0.066534 0.406083 0.447393 -0.209734
C5    C     C_R   0.937875 0.403822 0.447101 0.162792
C6    C     C_R   0.871943 0.506680 0.499294 -0.127197
C7    C     C_R   0.528214 0.063244 0.622111 0.155864
C8    C     C_R   0.522379 0.128327 0.500015 -0.115958
C9    C     C_R   0.541403 0.064768 0.377442 -0.163589
C10   C     C_R   0.542498 0.935394 0.377386 -0.155896
C11   C     C_R   0.523891 0.871165 0.499815 -0.191945
C12   C     C_R   0.260666 0.502568 0.500158 0.878978
C13   C     C_R   0.529271 0.935447 0.622117 0.179116
C14   C     C_3   0.446657 0.927764 0.744681 0.238730
C15   C     C_3   0.445150 0.069922 0.744311 -0.546884
C16   C     C_R   0.390541 0.484977 0.071839 0.176920
C17   C     C_R   0.606416 0.525784 0.071378 -0.070518
C18   C     C_R   0.606472 0.525621 0.927619 -0.038784
C19   C     C_R   0.390059 0.485931 0.929346 0.207987
C20   C     C_3   0.303260 0.376189 0.925587 0.185049
C21   C     C_3   0.305078 0.375041 0.079519 -0.526888
C22   C     C_R   0.503755 0.739962 0.499819 0.842710
C23   C     C_R   0.739562 0.500724 0.499783 0.904076
C24   C     C_R   0.129157 0.721686 0.598238 -0.215249
C25   C     C_R   0.062591 0.825654 0.645153 -0.176215
C26   C     C_R   0.931573 0.825284 0.644736 0.479115
C27   C     C_R   0.866895 0.720609 0.597369 -0.224061
C28   C     C_R   0.933196 0.613922 0.550107 0.003912
H1    H     H_    0.118711 0.326246 0.408690 0.161110
H2    H     H_    0.350855 0.110008 0.721207 0.178748
H3    H     H_    0.493968 0.112938 0.831944 0.249269
H4    H     H_    0.692861 0.544881 0.124752 0.170518
H5    H     H_    0.692935 0.544708 0.873544 0.179903
H6    H     H_    0.346363 0.292015 0.878701 0.120720
H7    H     H_    0.213553 0.399297 0.127767 0.248387
H8    H     H_    0.352194 0.290832 0.122757 0.188033
H9    H     H_    0.230736 0.726436 0.597991 0.145041
H10   H     H_    0.113087 0.906964 0.680866 0.168647
H11   H     H_    0.765279 0.724499 0.596719 0.169914
H12   H     H_    0.546988 0.113845 0.281430 0.191422
H13   H     H_    0.548594 0.886880 0.281385 0.207960
H14   H     H_    0.353474 0.884944 0.724678 0.096925
N1    N     N_R   0.499160 0.499140 0.142800 -0.115732
N2    N     N_R   0.499160 0.499180 0.857150 -0.140372
O1    O     O_R   0.500020 0.316790 0.614690 -0.614170
O2    O     O_R   0.500000 0.316760 0.385350 -0.621269
O3    O     O_R   0.316770 0.500020 0.614690 -0.578856
O4    O     O_R   0.316760 0.499980 0.385350 -0.623866
O5    O     O_R   0.500000 0.683240 0.614650 -0.599607
O6    O     O_R   0.499980 0.683210 0.385310 -0.607716
O7    O     O_R   0.683240 0.500020 0.614650 -0.615597
O8    O     O_R   0.683230 0.499980 0.385310 -0.614851
Zn1   Zn    Zn3+2 0.500010 0.500020 0.653130 1.003552
Zn2   Zn    Zn3+2 0.499990 0.499980 0.346870 0.977131
Cl1   Cl    Cl    0.528365 0.862633 0.886219 -0.561651
Cl2   Cl    Cl    0.152355 0.417239 0.859553 -0.559511
Cl3   Cl    Cl    0.848293 0.957061 0.702229 -0.548307
I1    I     I_    0.850604 0.239129 0.372047 -0.269886

loop_
_geom_bond_atom_site_label_1
_geom_bond_atom_site_label_2
_ccdc_geom_bond_type
C24   C25   A    
C17   N1    A    
C15   H3    S    
C16   C21   S    
C21   H7    S    
C18   N2    A    
C25   H10   S    
C1    C8    S    
C9    C10   A    
C11   C22   S    
C23   O7    A    
C19   C20   S    
C14   H14   S    
C22   O6    A    
C20   H6    S    
O2    Zn2   S    
C7    C15   S    
C14   Cl1   S    
C23   O8    A    
O1    Zn1   S    
C7    C8    A    
C21   H8    S    
C13   C14   S    
C19   N2    A    
C10   H13   S    
O4    Zn2   S    
C11   C13   A    
C16   N1    A    
C1    O1    A    
C26   C27   A    
O6    Zn2   S    
C5    I1    S    
C12   O3    A    
O5    Zn1   S    
O3    Zn1   S    
C26   Cl3   S    
C12   O4    A    
O8    Zn2   S    
C17   C18   A    
C2    C3    A    
C20   Cl2   S    
C16   C19   A    
C2    C24   A    
C5    C6    A    
C18   H5    S    
C1    O2    A    
C10   C11   A    
C6    C23   S    
C3    C4    A    
C7    C13   A    
C20   C21   S    
C15   H2    S    
C24   H9    S    
C22   O5    A    
C27   C28   A    
C17   H4    S    
C14   C15   S    
C4    C5    A    
C2    C28   A    
C3    C12   S    
N1    Zn2   S    
C25   C26   A    
N2    Zn1   S    
C9    H12   S    
C6    C28   A    
C4    H1    S    
C27   H11   S    
C8    C9    A    
O7    Zn1   S    
