data_mof_unit_61026.cif
_audit_creation_date              2012-12-11T17:26:03-0500
_audit_creation_method            fapswitch 2.2
_symmetry_space_group_name_H-M    P1
_symmetry_Int_Tables_number       1
_space_group_crystal_system       triclinic
_cell_length_a                    6.948538
_cell_length_b                    18.959132
_cell_length_c                    20.734378
_cell_angle_alpha                 107.583245
_cell_angle_beta                  90.255844
_cell_angle_gamma                 90.540311
_cell_volume                      2603.69945318

loop_
_atom_site_label
_atom_site_type_symbol
_atom_type_description
_atom_site_fract_x
_atom_site_fract_y
_atom_site_fract_z
_atom_type_partial_charge
O1    O     O_R   0.505770 0.444240 0.557370 -0.535178
O2    O     O_R   0.169820 0.415250 0.421330 -0.535358
O3    O     O_R   0.005590 0.555760 0.442630 -0.534861
C1    C     C_R   0.338709 0.393629 0.395295 0.719719
O4    O     O_R   0.175660 0.435500 0.555540 -0.537842
O5    O     O_R   0.011460 0.576150 0.577800 -0.533183
C2    C     C_R   0.344495 0.421151 0.575651 0.724788
O6    O     O_R   0.499890 0.423850 0.422200 -0.533694
O7    O     O_3   0.341200 0.546120 0.507150 -0.364131
V1    V     V_3+5 0.063980 0.491440 0.498670 1.437609
O8    O     O_R   0.682100 0.584750 0.578670 -0.536027
C3    C     C_R   0.852043 0.606238 0.604598 0.722160
O9    O     O_R   0.676270 0.564500 0.444460 -0.531921
C4    C     C_R   0.845080 0.578835 0.424376 0.722733
V2    V     V_3+5 0.564720 0.508560 0.501330 1.446999
O10   O     O_3   0.837360 0.453880 0.492850 -0.367928
H1    H     H_    0.163694 0.678477 0.265865 0.168813
C5    C     C_R   0.050740 0.753139 0.215601 -0.174945
H2    H     H_    0.183576 0.753933 0.188631 0.173236
C6    C     C_R   0.893117 0.794634 0.206017 0.010674
C7    C     C_R   0.719899 0.792718 0.242053 0.259445
C8    C     C_R   0.710322 0.749026 0.287229 0.353363
C9    C     C_R   0.870880 0.707739 0.295729 0.034758
C10   C     C_R   0.039645 0.710126 0.259755 -0.245926
C11   C     C_1   0.912774 0.838651 0.159375 -0.028140
C12   C     C_1   0.862843 0.662402 0.341440 0.057701
C13   C     C_1   0.855003 0.624509 0.379405 -0.174839
C14   C     C_1   0.925910 0.875847 0.120925 -0.185815
C15   C     C_1   0.916324 0.831610 0.833093 -0.193126
C16   C     C_1   0.900964 0.780171 0.780822 0.009315
C17   C     C_1   0.881454 0.719785 0.719202 0.009904
C18   C     C_1   0.866098 0.668347 0.666931 -0.191207
C19   C     C_1   0.352936 0.331292 0.332778 -0.193450
C20   C     C_1   0.375704 0.280062 0.280664 0.010787
C21   C     C_1   0.406765 0.220010 0.219287 0.011226
C22   C     C_1   0.429528 0.168775 0.167177 -0.192384
H3    H     H_    0.688955 0.292442 0.706444 0.112778
C23   C     C_R   0.571857 0.231297 0.769782 -0.150911
H4    H     H_    0.712589 0.217235 0.784588 0.111939
C24   C     C_R   0.404973 0.206846 0.794961 0.135463
C25   C     C_R   0.224425 0.225904 0.774798 -0.150377
H5    H     H_    0.093837 0.207609 0.793540 0.112799
C26   C     C_R   0.210936 0.268753 0.730202 -0.150827
H6    H     H_    0.070203 0.282815 0.715396 0.111966
C27   C     C_R   0.377818 0.293205 0.705023 0.135531
C28   C     C_R   0.558368 0.274147 0.725186 -0.150253
C29   C     C_1   0.418617 0.162119 0.841006 -0.054037
C30   C     C_1   0.364162 0.337929 0.658976 -0.053909
C31   C     C_1   0.354107 0.375566 0.620792 -0.184493
C32   C     C_1   0.428630 0.124479 0.879188 -0.184822
O11   O     O_R   0.282550 0.076220 0.077760 -0.532949
O12   O     O_R   0.606940 0.064510 0.944450 -0.537411
O13   O     O_R   0.770980 0.923830 0.922210 -0.533004
C33   C     C_R   0.438146 0.078888 0.924326 0.726705
O14   O     O_R   0.612630 0.084760 0.078660 -0.534963
O15   O     O_R   0.776710 0.944230 0.057380 -0.535880
C34   C     C_R   0.443742 0.106421 0.104673 0.720938
O16   O     O_R   0.276820 0.055820 0.942590 -0.534545
O17   O     O_3   0.441200 0.953910 0.992830 -0.366488
V3    V     V_3+5 0.718480 0.008550 0.001330 1.433294
O18   O     O_R   0.106020 0.935440 0.055580 -0.535563
C35   C     C_R   0.937093 0.921137 0.075649 0.727788
O19   O     O_R   0.100330 0.915180 0.921370 -0.536381
C36   C     C_R   0.930389 0.893719 0.895425 0.721324
V4    V     V_3+5 0.217720 0.991360 0.998720 1.437121
O20   O     O_3   0.945130 0.046090 0.007170 -0.366713
O21   O     O_3   0.558545 0.832052 0.234817 -0.662022
H7    H     H_    0.582120 0.859099 0.201604 0.299222
O22   O     O_3   0.546424 0.745318 0.323781 -0.646613
H8    H     H_    0.445782 0.777501 0.314341 0.332020

loop_
_geom_bond_atom_site_label_1
_geom_bond_atom_site_label_2
_ccdc_geom_bond_type
C3    C18   S    
O5    V1    S    
C24   C29   S    
O2    C1    A    
O8    C3    A    
O19   V4    S    
C24   C25   A    
C15   C16   T    
O11   C34   A    
O9    C4    A    
C4    C13   S    
O6    V2    S    
C26   C27   A    
C25   H5    S    
O16   V4    S    
C17   C18   T    
C21   C22   T    
C1    O6    A    
C9    C10   A    
O15   C35   A    
O9    V2    S    
C19   C20   T    
O7    V2    S    
C15   C36   S    
V3    O20   S    
O4    V1    S    
C32   C33   S    
O3    V1    S    
V1    O10   S    
C27   C28   A    
O17   V4    S    
C11   C14   T    
C23   C24   A    
C25   C26   A    
C12   C13   T    
O18   C35   A    
O3    C4    A    
O1    V2    S    
O7    V1    S    
C7    C8    A    
C30   C31   T    
O15   V3    S    
O13   V3    S    
O12   C33   A    
C20   C21   S    
C29   C32   T    
C5    C6    A    
O22   H8    S    
O14   C34   A    
C26   H6    S    
O5    C3    A    
C16   C17   S    
O13   C36   A    
C5    C10   A    
C23   C28   A    
H1    C10   S    
O11   V4    S    
C6    C11   S    
V2    O10   S    
O2    V1    S    
O18   V4    S    
O17   V3    S    
C23   H4    S    
C6    C7    A    
C2    C31   S    
O12   V3    S    
V4    O20   S    
C33   O16   A    
C9    C12   S    
O4    C2    A    
C1    C19   S    
C5    H2    S    
C22   C34   S    
C8    O22   S    
O1    C2    A    
H3    C28   S    
O14   V3    S    
O8    V2    S    
C8    C9    A    
C7    O21   S    
O21   H7    S    
O19   C36   A    
C27   C30   S    
C14   C35   S    
