data_mof_unit_65240.cif
_audit_creation_date              2012-12-10T16:49:07-0500
_audit_creation_method            fapswitch 2.2
_symmetry_space_group_name_H-M    P1
_symmetry_Int_Tables_number       1
_space_group_crystal_system       triclinic
_cell_length_a                    18.928719
_cell_length_b                    18.984044
_cell_length_c                    18.788879
_cell_angle_alpha                 109.775323
_cell_angle_beta                  109.624477
_cell_angle_gamma                 109.937163
_cell_volume                      5137.32812887

loop_
_atom_site_label
_atom_site_type_symbol
_atom_type_description
_atom_site_fract_x
_atom_site_fract_y
_atom_site_fract_z
_atom_type_partial_charge
C1    C     C_R   0.380676 0.375298 0.493229 0.985239
C2    C     C_2   0.312330 0.297416 0.476812 -0.271655
C3    C     C_2   0.491466 0.171950 0.250226 -0.112159
C4    C     C_R   0.495544 0.614285 0.620337 0.939624
C5    C     C_2   0.517886 0.185950 0.196302 -0.242107
C6    C     C_2   0.503309 0.245950 0.321971 -0.269786
C7    C     C_2   0.481223 0.301980 0.307368 0.244314
C8    C     C_2   0.732509 0.744304 0.411709 0.044739
C9    C     C_2   0.800410 0.817749 0.487030 -0.265334
C10   C     C_2   0.666198 0.683322 0.418832 -0.268913
C11   C     C_2   0.687656 0.663642 0.482662 -0.186868
C12   C     C_R   0.512099 0.680455 0.770920 -0.055139
C13   C     C_R   0.380720 0.995261 0.876133 0.980674
C14   C     C_R   0.500927 0.877687 0.878435 0.861543
C15   C     C_R   0.619225 0.998475 0.117487 0.901552
C16   C     C_R   0.619832 0.615088 0.496282 0.857729
C17   C     C_R   0.504537 0.117031 0.120487 0.930873
C18   C     C_R   0.883373 0.002098 0.380785 0.951172
C19   C     C_R   0.121031 0.119979 0.502471 0.822290
C20   C     C_R   0.115939 0.997173 0.619067 0.981475
C21   C     C_R   0.875964 0.881312 0.494778 0.995720
C22   C     C_2   0.169709 0.918370 0.679729 0.426919
C23   C     C_R   0.491556 0.675171 0.688102 -0.077580
C24   C     C_2   0.174764 0.993239 0.687773 -0.420967
C25   C     C_2   0.233803 0.921397 0.752696 -0.190015
C26   C     C_2   0.315663 0.989458 0.803428 -0.396241
C27   C     C_2   0.821273 0.077423 0.324223 -0.172735
C28   C     C_R   0.496050 0.377329 0.378814 0.839034
C29   C     C_2   0.824633 0.005264 0.311463 -0.305146
C30   C     C_2   0.760071 0.076329 0.250723 -0.142322
C31   C     C_2   0.683320 0.002998 0.189573 -0.328912
C32   C     C_R   0.516131 0.614472 0.789385 0.315924
C33   C     C_R   0.552282 0.632430 0.876627 0.417388
C34   C     C_R   0.474860 0.736040 0.671396 -0.193811
C35   C     C_R   0.577409 0.711959 0.944381 -0.251715
C36   C     C_R   0.562067 0.771707 0.925513 -0.243772
C37   C     C_R   0.526817 0.755411 0.838609 0.058401
C38   C     C_2   0.715830 0.724227 0.322110 0.448152
C39   C     C_2   0.777218 0.680573 0.534998 0.436410
C40   C     C_2   0.206643 0.279214 0.560334 0.474227
C41   C     C_R   0.479863 0.803104 0.735176 -0.203513
C42   C     C_R   0.505179 0.812393 0.817610 -0.041069
C43   C     C_2   0.255395 0.177991 0.499786 -0.175481
C44   C     C_2   0.195213 0.191042 0.515617 -0.184745
C45   C     C_2   0.328268 0.247647 0.508137 -0.080276
Cl1   Cl    Cl    0.417603 0.279381 0.199359 -0.574794
Cl2   Cl    Cl    0.084267 0.814996 0.587694 -0.538001
Cl3   Cl    Cl    0.457989 0.504411 0.706566 -0.483677
Cl4   Cl    Cl    0.563406 0.554697 0.902978 -0.503463
H1    H     H_    0.458939 0.732661 0.608818 0.170049
H2    H     H_    0.337431 0.040378 0.788189 0.168542
H3    H     H_    0.865149 0.137729 0.387454 0.170728
H4    H     H_    0.788218 0.948215 0.245969 0.171911
H5    H     H_    0.776114 0.136222 0.249090 0.171758
H6    H     H_    0.662956 0.946203 0.196846 0.165916
H7    H     H_    0.605034 0.725902 0.011559 0.197476
H8    H     H_    0.578945 0.831187 0.979642 0.165043
H9    H     H_    0.463932 0.848011 0.720265 0.153134
H10   H     H_    0.250852 0.115075 0.480011 0.162366
H11   H     H_    0.393668 0.258627 0.540745 0.173739
H12   H     H_    0.245416 0.280118 0.437176 0.137847
H13   H     H_    0.668889 0.658070 0.267173 0.086910
H14   H     H_    0.799623 0.689277 0.600292 0.078330
H15   H     H_    0.149816 0.286482 0.543302 0.045149
H16   H     H_    0.463726 0.107967 0.243259 0.167939
H17   H     H_    0.554081 0.252153 0.210421 0.191025
H18   H     H_    0.530061 0.254215 0.387152 0.152406
H19   H     H_    0.799509 0.833349 0.547915 0.122585
H20   H     H_    0.598208 0.658789 0.373919 0.172320
H21   H     H_    0.220151 0.054192 0.750274 0.146855
H22   H     H_    0.214532 0.866338 0.762734 0.202230
O1    O     O_R   0.460610 0.409240 0.550770 -0.570758
O2    O     O_R   0.909530 0.949160 0.358700 -0.591975
O3    O     O_R   0.090460 0.141840 0.551380 -0.627987
O4    O     O_R   0.358470 0.409870 0.449260 -0.631315
O5    O     O_R   0.090460 0.039050 0.448590 -0.619571
O6    O     O_R   0.090470 0.050840 0.641300 -0.619157
O7    O     O_R   0.090460 0.948050 0.538510 -0.570277
O8    O     O_R   0.909540 0.960950 0.551410 -0.644791
O9    O     O_R   0.909540 0.858160 0.448620 -0.541671
O10   O     O_R   0.551070 0.590720 0.641790 -0.588828
O11   O     O_R   0.448930 0.591350 0.540280 -0.628797
O12   O     O_R   0.358520 0.946380 0.906940 -0.610987
O13   O     O_R   0.641530 0.590130 0.550740 -0.635846
O14   O     O_R   0.539390 0.590760 0.449230 -0.607686
O15   O     O_R   0.551070 0.408650 0.459720 -0.650701
O16   O     O_R   0.448930 0.409280 0.358210 -0.570882
O17   O     O_R   0.460650 0.048500 0.906910 -0.614624
O18   O     O_2   0.750347 0.780743 0.307678 -0.574963
O19   O     O_2   0.824787 0.680719 0.504282 -0.506329
O20   O     O_2   0.277996 0.342511 0.619873 -0.467663
O21   O     O_R   0.551120 0.956920 0.905770 -0.623095
O22   O     O_R   0.449000 0.854790 0.905800 -0.612115
O23   O     O_R   0.641600 0.047410 0.086710 -0.615017
O24   O     O_R   0.539480 0.945290 0.086740 -0.627263
O25   O     O_R   0.551130 0.138990 0.087850 -0.618867
O26   O     O_R   0.449000 0.036870 0.087880 -0.612054
O27   O     O_R   0.909540 0.051950 0.461490 -0.628403
Zn1   Zn    Zn3+2 0.568200 0.499580 0.567780 1.026565
Zn2   Zn    Zn3+2 0.431800 0.500420 0.432220 1.019408
Zn3   Zn    Zn3+2 0.568250 0.065080 0.996810 0.993939
Zn4   Zn    Zn3+2 0.431870 0.928710 0.996840 0.995107
Zn5   Zn    Zn3+2 0.000000 0.068630 0.568630 0.994733
Zn6   Zn    Zn3+2 1.000000 0.931370 0.431370 1.074410

loop_
_geom_bond_atom_site_label_1
_geom_bond_atom_site_label_2
_ccdc_geom_bond_type
O5    Zn6   S    
C45   H11   S    
O12   Zn4   S    
C27   C29   D    
C41   C42   A    
C35   C36   A    
C3    C6    S    
C15   O23   A    
O17   Zn3   S    
C24   H21   S    
C19   C44   S    
C30   H5    S    
C12   C23   A    
C20   O6    A    
O9    Zn6   S    
C36   C37   A    
C41   H9    S    
C15   O24   A    
C30   C31   D    
C5    C17   S    
C33   Cl4   S    
O27   Zn5   S    
C16   O13   A    
C13   O17   A    
C1    C2    S    
C37   C42   A    
O2    Zn6   S    
C4    O10   A    
C20   C24   S    
O23   Zn3   S    
C8    C9    D    
C22   C25   S    
C25   H22   S    
C39   O19   D    
O26   Zn4   S    
C2    H12   S    
C43   H10   S    
C14   C42   S    
C22   Cl2   S    
O25   Zn3   S    
C12   C32   A    
C27   C30   S    
C32   Cl3   S    
O8    Zn5   S    
C3    H16   S    
C34   C41   A    
C8    C38   S    
C2    C45   D    
C34   H1    S    
C1    O1    A    
O7    Zn6   S    
C1    O4    A    
C7    Cl1   S    
C36   H8    S    
C18   C29   S    
C4    C23   S    
O10   Zn1   S    
C25   C26   D    
C7    C28   S    
C43   C44   D    
C11   C16   S    
C38   O18   D    
C23   C34   A    
C21   O8    A    
C28   O16   A    
C17   O25   A    
C11   C39   S    
O15   Zn1   S    
C43   C45   S    
C14   O21   A    
O21   Zn3   S    
C6    H18   S    
C18   O2    A    
C28   O15   A    
C16   O14   A    
C22   C24   D    
C13   C26   S    
O6    Zn5   S    
C27   H3    S    
O16   Zn2   S    
C19   O5    A    
C14   O22   A    
C35   H7    S    
O13   Zn1   S    
O11   Zn2   S    
C19   O3    A    
C5    H17   S    
C3    C5    D    
O22   Zn4   S    
O24   Zn4   S    
C15   C31   S    
C6    C7    D    
C39   H14   S    
C13   O12   A    
C40   H15   S    
C20   O7    A    
C32   C33   A    
C9    H19   S    
O14   Zn2   S    
C26   H2    S    
C9    C21   S    
C29   H4    S    
C21   O9    A    
O4    Zn2   S    
C33   C35   A    
C40   O20   D    
C10   C11   D    
C10   H20   S    
C40   C44   S    
C4    O11   A    
C8    C10   S    
C12   C37   A    
C18   O27   A    
C31   H6    S    
C17   O26   A    
O3    Zn5   S    
C38   H13   S    
O1    Zn1   S    
