data_mof_unit_14872.cif
_audit_creation_date              2013-03-05T15:53:42-0500
_audit_creation_method            fapswitch 2.2
_symmetry_space_group_name_H-M    P1
_symmetry_Int_Tables_number       1
_space_group_crystal_system       triclinic
_cell_length_a                    14.979502
_cell_length_b                    14.770318
_cell_length_c                    17.028141
_cell_angle_alpha                 108.969401
_cell_angle_beta                  106.389971
_cell_angle_gamma                 108.186059
_cell_volume                      3060.85198527

loop_
_atom_site_label
_atom_site_type_symbol
_atom_site_description
_atom_site_fract_x
_atom_site_fract_y
_atom_site_fract_z
_atom_type_partial_charge
C1    C     C_R   0.088737 0.272471 0.039865 -0.136598
H1    H     H_    0.166802 0.286613 0.077171 0.099069
N1    N     N_R   0.055640 0.348550 0.045600 -0.042352
C2    C     C_R   0.935130 0.465681 0.733826 -0.130499
H2    H     H_    0.856501 0.419051 0.680998 0.095247
N2    N     N_R   0.960830 0.507850 0.823710 -0.041071
C3    C     C_R   0.718649 0.216584 0.824179 -0.144315
H3    H     H_    0.687726 0.164435 0.851901 0.096908
N3    N     N_R   0.811290 0.303400 0.871650 -0.040581
C4    C     C_R   0.269812 0.545282 0.959440 -0.125889
H4    H     H_    0.291168 0.588136 0.922873 0.099274
N4    N     N_R   0.205180 0.552990 0.997660 -0.039878
C5    C     C_R   0.727148 0.312926 0.747958 -0.132761
H5    H     H_    0.706626 0.351943 0.707064 0.082978
N5    N     N_R   0.814810 0.361830 0.823710 -0.038865
C6    C     C_R   0.265724 0.449814 0.037050 -0.129368
H6    H     H_    0.285356 0.405041 0.071907 0.088485
N6    N     N_R   0.201660 0.494570 0.045600 -0.040545
C7    C     C_R   0.108090 0.559022 0.810514 -0.131121
H7    H     H_    0.187652 0.605935 0.826756 0.083990
N7    N     N_R   0.068420 0.560530 0.871650 -0.038920
C8    C     C_R   0.916545 0.190132 0.958260 -0.070310
H8    H     H_    0.836668 0.131428 0.915185 0.094548
N8    N     N_R   0.948050 0.295860 0.997660 -0.042451
C9    C     C_R   0.003823 0.171998 0.981068 0.060048
C10   C     C_R   0.027158 0.493337 0.723472 0.060389
C11   C     C_R   0.662857 0.221735 0.746740 0.067550
C12   C     C_R   0.304409 0.475437 0.978120 0.068571
C13   C     C_R   0.232948 0.704427 0.266377 0.335727
N9    N     N_R   0.185190 0.638170 0.176290 -0.058814
C14   C     C_R   0.704875 0.499452 0.917417 -0.145690
H9    H     H_    0.682030 0.520480 0.862421 0.098732
N10   N     N_R   0.798340 0.505430 0.954400 -0.039523
C15   C     C_R   0.891679 0.392517 0.173759 -0.092052
H10   H     H_    0.810008 0.341571 0.147788 0.146146
N11   N     N_R   0.931580 0.439470 0.128350 -0.053042
C16   C     C_R   0.080586 0.807507 0.021456 -0.134506
H11   H     H_    0.159253 0.866888 0.047124 0.096185
N12   N     N_R   0.051950 0.704140 0.002340 -0.039700
C17   C     C_R   0.908686 0.723028 0.949729 -0.114414
H12   H     H_    0.828148 0.703567 0.913216 0.097950
N13   N     N_R   0.944360 0.651450 0.954400 -0.044327
C18   C     C_R   0.063232 0.467781 0.245728 -0.125458
H13   H     H_    0.139179 0.474855 0.279946 0.110496
N14   N     N_R   0.039170 0.492150 0.176290 -0.044790
C19   C     C_R   0.233003 0.799991 0.188195 -0.193793
H14   H     H_    0.247109 0.864566 0.170160 0.114718
N15   N     N_R   0.188710 0.696600 0.128350 -0.054254
C20   C     C_R   0.699445 0.407290 0.997641 -0.123891
H15   H     H_    0.672028 0.347414 0.019648 0.100267
N16   N     N_R   0.794820 0.447010 0.002340 -0.042137
Ni1   Ni    Ni4+2 0.119330 0.493420 0.109950 0.212581
Ni2   Ni    Ni4+2 0.880670 0.506580 0.890050 0.205487
Ni3   Ni    Ni4+2 0.872590 0.372590 0.000000 0.229930
Ni4   Ni    Ni4+2 0.127410 0.627410 0.000000 0.217307
C21   C     C_R   0.257598 0.808037 0.275891 0.041939
C22   C     C_R   0.640460 0.437841 0.942892 0.079770
C23   C     C_R   0.973124 0.404717 0.246200 0.092092
C24   C     C_R   0.992616 0.823502 0.992153 0.072413
C25   C     C_R   0.400599 0.467616 0.880591 0.166004
C26   C     C_R   0.364076 0.431987 0.937423 0.031845
C27   C     C_R   0.391322 0.356907 0.957930 -0.196620
H16   H     H_    0.359814 0.320921 0.995848 0.133131
C28   C     C_R   0.473086 0.341104 0.942836 -0.184043
H17   H     H_    0.500835 0.293251 0.969726 0.135987
C29   C     C_R   0.529450 0.403941 0.910712 0.024803
C30   C     C_R   0.482791 0.453738 0.867226 0.161942
C31   C     C_3   0.526906 0.560292 0.867868 -0.514088
C32   C     C_3   0.436928 0.575112 0.882231 -0.515774
H18   H     H_    0.602168 0.619563 0.928064 0.207054
H19   H     H_    0.524713 0.552593 0.800112 0.190657
H20   H     H_    0.462562 0.641966 0.950451 0.206059
H21   H     H_    0.382666 0.575852 0.822688 0.188501
C33   C     C_R   0.969143 0.360141 0.311771 -0.018033
C34   C     C_R   0.038043 0.457047 0.637479 0.126207
C35   C     C_R   0.144860 0.473333 0.554970 -0.206724
C36   C     C_R   0.136158 0.497766 0.637208 -0.175755
C37   C     C_R   0.950336 0.382027 0.554751 -0.235226
C38   C     C_R   0.958144 0.359934 0.471822 0.127383
C39   C     C_R   0.055429 0.409664 0.472423 0.197781
C40   C     C_R   0.060647 0.405789 0.391868 -0.309395
C41   C     C_R   0.874627 0.292287 0.306774 0.356963
C42   C     C_R   0.869528 0.294826 0.388312 -0.331855
H22   H     H_    0.135443 0.451811 0.396325 0.135720
H23   H     H_    0.220391 0.510322 0.555999 0.124541
H24   H     H_    0.796136 0.249542 0.387053 0.179966
H25   H     H_    0.206217 0.552020 0.699639 0.110718
H26   H     H_    0.874921 0.345624 0.553773 0.120424
C43   C     C_R   0.553465 0.152824 0.681110 0.119670
C44   C     C_R   0.301207 0.907585 0.360815 0.085665
C45   C     C_R   0.403223 0.100671 0.444329 0.271523
C46   C     C_R   0.342783 0.007321 0.361488 -0.196326
C47   C     C_R   0.305670 0.903841 0.442787 -0.283014
C48   C     C_R   0.375590 0.992718 0.525952 0.135570
C49   C     C_R   0.427756 0.091315 0.526946 0.128637
C50   C     C_R   0.511641 0.173411 0.607841 -0.265005
C51   C     C_R   0.495205 0.059223 0.682985 -0.169205
C52   C     C_R   0.404015 0.980646 0.606346 -0.189546
H27   H     H_    0.551750 0.248418 0.608842 0.135186
H28   H     H_    0.523136 0.043087 0.740360 0.117353
H29   H     H_    0.363255 0.905805 0.606431 0.126029
H30   H     H_    0.333635 0.013002 0.298296 0.130195
H31   H     H_    0.263758 0.829876 0.442951 0.154185
C53   C     C_R   0.100543 0.061323 0.953498 0.153587
C54   C     C_R   0.006461 0.067664 0.941504 0.038397
C55   C     C_R   0.913979 0.971960 0.880846 -0.187273
H32   H     H_    0.838713 0.969602 0.871482 0.131590
C56   C     C_R   0.917332 0.880075 0.824444 -0.193549
H33   H     H_    0.845739 0.810009 0.773756 0.131949
C57   C     C_R   0.012614 0.881661 0.828363 0.024666
C58   C     C_R   0.103232 0.970073 0.898481 0.152792
C59   C     C_3   0.199780 0.032152 0.894242 -0.470315
C60   C     C_3   0.196970 0.132316 0.953892 -0.531078
H34   H     H_    0.266524 0.020224 0.929849 0.195004
H35   H     H_    0.187222 0.022577 0.823883 0.200487
H36   H     H_    0.262477 0.178113 0.023587 0.188861
H37   H     H_    0.182192 0.180466 0.917836 0.207057
N17   N     N_R   0.785588 0.219496 0.220673 0.221538
O1    O     O_R   0.797822 0.167316 0.149736 -0.421916
O2    O     O_R   0.692270 0.192399 0.216386 -0.417481
C61   C     C_3   0.448944 0.205917 0.441918 -1.022445
H38   H     H_    0.415232 0.198082 0.371604 0.258054
H39   H     H_    0.432374 0.265400 0.487267 0.250032
H40   H     H_    0.534213 0.235727 0.465026 0.251547
C62   C     C_3   0.283207 0.674412 0.336849 -1.081713
H41   H     H_    0.362231 0.739335 0.386093 0.265491
H42   H     H_    0.235754 0.658780 0.374751 0.245823
H43   H     H_    0.292646 0.602170 0.302907 0.252924

loop_
_geom_bond_atom_site_label_1
_geom_bond_atom_site_label_2
_geom_bond_distance
_ccdc_geom_bond_type
C6    C12   1.387133 A    
N15   Ni4   1.869176 S    
C47   C48   1.386299 A    
C13   C62   1.499238 S    
C49   C50   1.390293 A    
C22   C29   1.450454 S    
C47   H31   1.078208 S    
C59   H34   1.111549 S    
C51   C52   1.391283 A    
N6    Ni1   1.866433 S    
C3    H3    1.080641 S    
C16   H11   1.078828 S    
N5    Ni2   1.817889 S    
N9    N15   1.366712 A    
C7    N7    1.334040 A    
C15   H10   1.078046 S    
N13   Ni2   1.816848 S    
C55   H32   1.080843 S    
C48   C52   1.401513 A    
N8    Ni3   1.832872 S    
C50   H27   1.074758 S    
C3    C11   1.387817 A    
C56   H33   1.081763 S    
C1    H1    1.075478 S    
C7    C10   1.387332 A    
N17   O1    1.301745 A    
C59   C60   1.519312 S    
C61   H40   1.110330 S    
C27   C28   1.392024 A    
C18   C23   1.384123 A    
C57   C58   1.392356 A    
N12   Ni4   1.832872 S    
C7    H7    1.072809 S    
C25   C30   1.376579 A    
C6    H6    1.074337 S    
C20   N16   1.331710 A    
C8    C9    1.389791 A    
C62   H43   1.109949 S    
C14   N10   1.324265 A    
C32   H21   1.111968 S    
C46   H30   1.079972 S    
C60   H36   1.111500 S    
C12   C26   1.452386 S    
C17   N13   1.339015 A    
C29   C30   1.400248 A    
C17   C24   1.389489 A    
C5    H5    1.078051 S    
C1    C9    1.399891 A    
N1    N8    1.389619 A    
C48   C49   1.413483 A    
C33   C41   1.416694 A    
C53   C54   1.403208 A    
N12   N13   1.389620 A    
N10   Ni2   1.866436 S    
C19   N15   1.336042 A    
C9    C54   1.486047 S    
C30   C31   1.499769 S    
C35   C36   1.382789 A    
C2    N2    1.332963 A    
C45   C46   1.395078 A    
N7    Ni4   1.869481 S    
C37   C38   1.389874 A    
C31   C32   1.503249 S    
N14   Ni1   1.866411 S    
N2    N7    1.389618 A    
C53   C60   1.493472 S    
C43   C51   1.401888 A    
C25   C26   1.401047 A    
C1    N1    1.349737 A    
C28   C29   1.405364 A    
C32   H20   1.112565 S    
C18   H13   1.075550 S    
C13   N9    1.338050 A    
C18   N14   1.332174 A    
C44   C46   1.403710 A    
C14   H9    1.079413 S    
C27   H16   1.077351 S    
C10   C34   1.461881 S    
N11   N14   1.389618 A    
C34   C36   1.405574 A    
C61   H38   1.110941 S    
C16   C24   1.393258 A    
C4    N4    1.322894 A    
C60   H37   1.112296 S    
C6    N6    1.338432 A    
C17   H12   1.081056 S    
C20   H15   1.080203 S    
C5    N5    1.325225 A    
C62   H41   1.110157 S    
C8    N8    1.338532 A    
C41   N17   1.435588 S    
N2    Ni2   1.866409 S    
N4    N6    1.366594 A    
C40   H22   1.079927 S    
C23   C33   1.474700 S    
C44   C47   1.398475 A    
C15   C23   1.382548 A    
C4    C12   1.374064 A    
C3    N3    1.343789 A    
N9    Ni1   1.817888 S    
C19   H14   1.072349 S    
C37   H26   1.081645 S    
C51   H28   1.081342 S    
C58   C59   1.487195 S    
C35   C39   1.395107 A    
C39   C40   1.379564 A    
C53   C58   1.389294 A    
C2    C10   1.389529 A    
N1    Ni1   1.816849 S    
C13   C21   1.398897 A    
N10   N16   1.366593 A    
C52   H29   1.083974 S    
C54   C55   1.416010 A    
N16   Ni3   1.834120 S    
C28   H17   1.080930 S    
C14   C22   1.375542 A    
C43   C50   1.402147 A    
N3    N5    1.366713 A    
C16   N12   1.345458 A    
C38   C42   1.399222 A    
C20   C22   1.382364 A    
C55   C56   1.410384 A    
C25   C32   1.497043 S    
C31   H19   1.111815 S    
C21   C44   1.471349 S    
C56   C57   1.402323 A    
C11   C43   1.468321 S    
C15   N11   1.336708 A    
C26   C27   1.404323 A    
C34   C37   1.403692 A    
N17   O2    1.301424 A    
C61   H39   1.110422 S    
N4    Ni4   1.834122 S    
N11   Ni3   1.869478 S    
C4    H4    1.064405 S    
C45   C49   1.414082 A    
C38   C39   1.407779 A    
C2    H2    1.078766 S    
C42   H24   1.083899 S    
C36   H25   1.079467 S    
C31   H18   1.111972 S    
C41   C42   1.401003 A    
C45   C61   1.509975 S    
C19   C21   1.388014 A    
C62   H42   1.108353 S    
C8    H8    1.079400 S    
C5    C11   1.379475 A    
N3    Ni3   1.869179 S    
C33   C40   1.401376 A    
C35   H23   1.084261 S    
C59   H35   1.112135 S    
