data_mof_unit_41940.cif
_audit_creation_date              2012-12-11T15:35:33-0500
_audit_creation_method            fapswitch 2.2
_symmetry_space_group_name_H-M    P1
_symmetry_Int_Tables_number       1
_space_group_crystal_system       triclinic
_cell_length_a                    17.375664
_cell_length_b                    24.204225
_cell_length_c                    14.904993
_cell_angle_alpha                 89.071404
_cell_angle_beta                  124.4916
_cell_angle_gamma                 91.182779
_cell_volume                      5165.38582946

loop_
_atom_site_label
_atom_site_type_symbol
_atom_type_description
_atom_site_fract_x
_atom_site_fract_y
_atom_site_fract_z
_atom_type_partial_charge
C1    C     C_R   0.350550 0.151950 0.909157 0.480354
C2    C     C_R   0.599322 0.124130 0.907871 -0.175264
C3    C     C_R   0.259314 0.545851 0.298575 -0.137076
C4    C     C_3   0.356328 0.178369 0.766138 0.220706
C5    C     C_3   0.300542 0.203976 0.652803 -0.918272
C6    C     C_3   0.195307 0.835468 0.780458 0.225339
C7    C     C_3   0.124444 0.809381 0.670233 -0.949573
C8    C     C_3   0.856328 0.678369 0.766139 0.220710
C9    C     C_3   0.800544 0.703977 0.652804 -0.918275
C10   C     C_3   0.695307 0.335469 0.780457 0.225339
C11   C     C_3   0.624444 0.309381 0.670233 -0.949574
C12   C     C_3   0.186993 0.995133 0.443349 -0.262558
C13   C     C_R   0.098479 0.374275 0.909748 -0.113669
C14   C     C_3   0.090791 0.112470 0.383591 -0.278767
C15   C     C_3   0.686991 0.495127 0.443348 -0.262585
C16   C     C_3   0.590800 0.612466 0.383589 -0.278716
C17   C     C_3   0.400401 0.824363 0.206392 0.219297
C18   C     C_3   0.437115 0.801331 0.319341 -0.926403
C19   C     C_3   0.574535 0.212849 0.181043 0.285272
C20   C     C_3   0.670157 0.216489 0.288138 -0.914627
C21   C     C_3   0.900401 0.324363 0.206392 0.219298
C22   C     C_3   0.937115 0.301331 0.319341 -0.926403
C23   C     C_3   0.074535 0.712849 0.181041 0.285274
C24   C     C_R   0.099322 0.624130 0.907871 -0.175265
C25   C     C_3   0.170158 0.716488 0.288135 -0.914614
C26   C     C_R   0.437136 0.000357 0.634445 0.050243
C27   C     C_R   0.937135 0.500356 0.634445 0.050243
C28   C     C_R   0.810061 0.999363 0.351829 0.048378
C29   C     C_R   0.310062 0.499363 0.351828 0.048377
C30   C     C_R   0.688840 0.136044 0.997522 0.055708
C31   C     C_R   0.686103 0.861682 0.001977 0.034444
C32   C     C_R   0.188840 0.636044 0.997522 0.055708
C33   C     C_R   0.349616 0.847724 0.908255 0.460125
C34   C     C_R   0.186103 0.361682 0.001977 0.034444
C35   C     C_3   0.052388 0.940041 0.534803 -0.462772
C36   C     C_3   0.043575 0.029927 0.611426 -0.438455
C37   C     C_3   0.552389 0.440040 0.534801 -0.462769
C38   C     C_3   0.543576 0.529928 0.611424 -0.438454
C39   C     C_3   0.948182 0.939570 0.450920 -0.405932
C40   C     C_3   0.937343 0.025179 0.536659 -0.422952
C41   C     C_3   0.448183 0.439570 0.450918 -0.405933
C42   C     C_3   0.437344 0.525179 0.536658 -0.422951
C43   C     C_3   0.064227 0.030361 0.452723 1.117974
C44   C     C_R   0.850549 0.651950 0.909156 0.480354
C45   C     C_3   0.564227 0.530361 0.452720 1.117977
C46   C     C_3   0.090410 0.000364 0.561210 0.175287
C47   C     C_3   0.590411 0.500364 0.561208 0.175280
C48   C     C_3   0.910801 0.999354 0.429281 0.306014
C49   C     C_3   0.410802 0.499354 0.429280 0.306013
C50   C     C_R   0.439473 0.845538 0.087558 0.461828
C51   C     C_R   0.447746 0.153592 0.089927 0.429931
C52   C     C_R   0.939473 0.345538 0.087558 0.461828
C53   C     C_R   0.947746 0.653592 0.089927 0.429931
C54   C     C_3   0.955912 0.034126 0.380960 -0.566108
C55   C     C_R   0.849616 0.347724 0.908255 0.460125
C56   C     C_3   0.455913 0.534127 0.380959 -0.566105
C57   C     C_R   0.302425 0.723761 0.896055 -0.156687
C58   C     C_R   0.304543 0.274383 0.913064 -0.127794
C59   C     C_R   0.802425 0.223761 0.896055 -0.156688
C60   C     C_R   0.804543 0.774383 0.913065 -0.127795
C61   C     C_R   0.748704 0.180459 0.896068 -0.214639
C62   C     C_R   0.755448 0.818690 0.913974 -0.208376
C63   C     C_R   0.248704 0.680459 0.896068 -0.214639
C64   C     C_R   0.255447 0.318690 0.913973 -0.208376
C65   C     C_R   0.764849 0.162237 0.995108 0.165861
C66   C     C_R   0.689566 0.123616 0.089497 -0.136202
C67   C     C_R   0.757063 0.828585 0.007279 0.164746
C68   C     C_R   0.264849 0.662237 0.995108 0.165860
C69   C     C_R   0.257063 0.328585 0.007278 0.164746
C70   C     C_R   0.849914 0.176797 0.091958 -0.224028
C71   C     C_R   0.816868 0.798690 0.102985 -0.192717
C72   C     C_R   0.349914 0.676797 0.091958 -0.224027
C73   C     C_R   0.316869 0.298691 0.102984 -0.192716
C74   C     C_R   0.403681 0.719822 0.090323 -0.165465
C75   C     C_R   0.361692 0.253690 0.100551 -0.179210
C76   C     C_R   0.903681 0.219822 0.090323 -0.165466
C77   C     C_R   0.687695 0.876505 0.091992 -0.118620
C78   C     C_R   0.861691 0.753690 0.100551 -0.179208
C79   C     C_R   0.367336 0.750755 0.994052 0.188584
C80   C     C_R   0.352597 0.239467 0.004465 0.174777
C81   C     C_R   0.867336 0.250755 0.994052 0.188585
C82   C     C_R   0.852597 0.739467 0.004466 0.174777
C83   C     C_R   0.393906 0.950497 0.468774 -0.188021
C84   C     C_R   0.397201 0.050655 0.468338 -0.190237
C85   C     C_R   0.893906 0.450497 0.468774 -0.188024
C86   C     C_R   0.897201 0.550655 0.468337 -0.190238
C87   C     C_R   0.396995 0.950550 0.378418 -0.181963
C88   C     C_R   0.189566 0.623616 0.089497 -0.136201
C89   C     C_R   0.400141 0.050570 0.377773 -0.160851
C90   C     C_R   0.896995 0.450550 0.378418 -0.181963
C91   C     C_R   0.900141 0.550570 0.377773 -0.160853
C92   C     C_R   0.411618 0.000413 0.341290 0.158130
C93   C     C_R   0.911618 0.500413 0.341290 0.158131
C94   C     C_R   0.481660 0.046028 0.249722 -0.100820
C95   C     C_R   0.488895 0.954492 0.260003 -0.139264
C96   C     C_R   0.981660 0.546028 0.249722 -0.100820
C97   C     C_R   0.988895 0.454492 0.260003 -0.139265
C98   C     C_R   0.404647 0.000542 0.520840 0.118984
C99   C     C_R   0.187695 0.376505 0.091992 -0.118619
C100  C     C_R   0.904647 0.500542 0.520840 0.118986
C101  C     C_R   0.242509 0.954337 0.700262 -0.150233
C102  C     C_R   0.240846 0.046607 0.703210 -0.111419
C103  C     C_R   0.742509 0.454337 0.700261 -0.150232
C104  C     C_R   0.740847 0.546607 0.703209 -0.111415
C105  C     C_R   0.383215 0.184780 0.999799 -0.298658
C106  C     C_R   0.384315 0.811766 0.996501 -0.302196
C107  C     C_R   0.883215 0.684780 0.999799 -0.298659
C108  C     C_R   0.884315 0.311766 0.996501 -0.302196
C109  C     C_R   0.454902 0.000075 0.281780 -0.013677
C110  C     C_R   0.598479 0.874275 0.909748 -0.113669
C111  C     C_R   0.954902 0.500075 0.281780 -0.013676
C112  C     C_R   0.190569 0.000476 0.646076 -0.019147
C113  C     C_R   0.690569 0.500476 0.646075 -0.019150
C114  C     C_R   0.452266 0.045888 0.697085 -0.146250
C115  C     C_R   0.452294 0.954476 0.697916 -0.135501
C116  C     C_R   0.952266 0.545888 0.697085 -0.146249
C117  C     C_R   0.952294 0.454476 0.697916 -0.135501
C118  C     C_R   0.756978 0.953469 0.298023 -0.151808
C119  C     C_R   0.759313 0.045851 0.298576 -0.137075
C120  C     C_R   0.256978 0.453469 0.298023 -0.151806
H1    H     H_    0.066090 0.919468 0.609592 0.188890
H2    H     H_    0.906514 0.066900 0.522797 0.167718
H3    H     H_    0.573665 0.656188 0.385162 0.162982
H4    H     H_    0.343843 0.796242 0.146042 0.107440
H5    H     H_    0.365817 0.864435 0.194784 0.075329
H6    H     H_    0.494077 0.828230 0.382888 0.257009
H7    H     H_    0.379760 0.799082 0.331602 0.214168
H8    H     H_    0.464600 0.759152 0.328013 0.253134
H9    H     H_    0.542415 0.254252 0.162792 0.106886
H10   H     H_    0.584731 0.202227 0.116029 0.084411
H11   H     H_    0.704299 0.175658 0.309123 0.249056
H12   H     H_    0.714680 0.247250 0.280840 0.206705
H13   H     H_    0.432805 0.421012 0.374347 0.179479
H14   H     H_    0.663011 0.229391 0.354233 0.261765
H15   H     H_    0.843843 0.296242 0.146042 0.107440
H16   H     H_    0.865817 0.364435 0.194784 0.075328
H17   H     H_    0.994077 0.328230 0.382888 0.257010
H18   H     H_    0.879760 0.299082 0.331602 0.214168
H19   H     H_    0.964600 0.259152 0.328012 0.253130
H20   H     H_    0.042415 0.754252 0.162792 0.106884
H21   H     H_    0.084729 0.702227 0.116025 0.084408
H22   H     H_    0.204299 0.675657 0.309120 0.249054
H23   H     H_    0.214681 0.747248 0.280836 0.206702
H24   H     H_    0.406514 0.566899 0.522797 0.167717
H25   H     H_    0.163014 0.729391 0.354232 0.261762
H26   H     H_    0.927485 0.020018 0.296689 0.177448
H27   H     H_    0.935317 0.078071 0.373874 0.155817
H28   H     H_    0.427485 0.520019 0.296687 0.177449
H29   H     H_    0.435319 0.578072 0.373876 0.155815
H30   H     H_    0.286241 0.738667 0.818927 0.185795
H31   H     H_    0.300030 0.266265 0.839346 0.165677
H32   H     H_    0.786241 0.238667 0.818926 0.185795
H33   H     H_    0.067506 0.011524 0.692125 0.180544
H34   H     H_    0.800032 0.766266 0.839346 0.165676
H35   H     H_    0.690038 0.165470 0.818659 0.118603
H36   H     H_    0.712109 0.842751 0.840338 0.119615
H37   H     H_    0.190038 0.665470 0.818659 0.118604
H38   H     H_    0.212107 0.342750 0.840337 0.119615
H39   H     H_    0.870708 0.159095 0.169596 0.112999
H40   H     H_    0.821520 0.805010 0.177412 0.113755
H41   H     H_    0.370707 0.659095 0.169596 0.113000
H42   H     H_    0.321522 0.305012 0.177411 0.113755
H43   H     H_    0.465889 0.732766 0.166490 0.174963
H44   H     H_    0.566090 0.419469 0.609591 0.188891
H45   H     H_    0.396537 0.227664 0.172289 0.166250
H46   H     H_    0.965889 0.232766 0.166490 0.174964
H47   H     H_    0.896535 0.727663 0.172289 0.166249
H48   H     H_    0.392405 0.911025 0.502650 0.115980
H49   H     H_    0.398645 0.090102 0.502185 0.113147
H50   H     H_    0.892406 0.411025 0.502650 0.115980
H51   H     H_    0.898644 0.590102 0.502185 0.113148
H52   H     H_    0.397986 0.911359 0.346072 0.119132
H53   H     H_    0.403725 0.089985 0.345167 0.110392
H54   H     H_    0.897986 0.411359 0.346073 0.119132
H55   H     H_    0.567508 0.511525 0.692124 0.180545
H56   H     H_    0.903724 0.589985 0.345166 0.110392
H57   H     H_    0.470421 0.088905 0.256674 0.139490
H58   H     H_    0.495083 0.913514 0.290351 0.161910
H59   H     H_    0.970421 0.588905 0.256674 0.139489
H60   H     H_    0.995083 0.413514 0.290351 0.161910
H61   H     H_    0.230160 0.912722 0.670274 0.159907
H62   H     H_    0.223073 0.089230 0.680333 0.194407
H63   H     H_    0.730161 0.412722 0.670274 0.159907
H64   H     H_    0.723074 0.589230 0.680331 0.194405
H65   H     H_    0.434948 0.088158 0.669629 0.082434
H66   H     H_    0.914836 0.913057 0.481985 0.158814
H67   H     H_    0.434874 0.911977 0.672095 0.093460
H68   H     H_    0.934948 0.588158 0.669629 0.082436
H69   H     H_    0.934874 0.411977 0.672095 0.093459
H70   H     H_    0.769878 0.910801 0.324176 0.095155
H71   H     H_    0.777426 0.088173 0.325473 0.088079
H72   H     H_    0.269879 0.410801 0.324176 0.095155
H73   H     H_    0.277427 0.588173 0.325473 0.088080
H74   H     H_    0.747262 0.129262 0.172899 0.097345
H75   H     H_    0.744172 0.872423 0.176108 0.091593
H76   H     H_    0.247262 0.629262 0.172899 0.097345
H77   H     H_    0.910508 0.998902 0.575547 0.175025
H78   H     H_    0.244171 0.372422 0.176108 0.091592
H79   H     H_    0.572547 0.867238 0.825666 0.101309
H80   H     H_    0.573077 0.128736 0.823089 0.103732
H81   H     H_    0.072547 0.367239 0.825666 0.101309
H82   H     H_    0.073077 0.628736 0.823089 0.103732
H83   H     H_    0.086282 0.915831 0.503722 0.187289
H84   H     H_    0.063512 0.074525 0.624710 0.196448
H85   H     H_    0.586282 0.415831 0.503722 0.187285
H86   H     H_    0.563512 0.574525 0.624706 0.196448
H87   H     H_    0.383726 0.138533 0.760840 0.108205
H88   H     H_    0.414837 0.413056 0.481982 0.158814
H89   H     H_    0.415792 0.206837 0.821195 0.086943
H90   H     H_    0.272655 0.244486 0.654693 0.255169
H91   H     H_    0.346238 0.210346 0.623393 0.207869
H92   H     H_    0.241472 0.176202 0.595450 0.280135
H93   H     H_    0.174807 0.878652 0.780486 0.092083
H94   H     H_    0.191514 0.811992 0.842867 0.096773
H95   H     H_    0.135644 0.764243 0.673333 0.250397
H96   H     H_    0.052605 0.816094 0.648063 0.217073
H97   H     H_    0.131187 0.827871 0.606389 0.261016
H98   H     H_    0.883727 0.638533 0.760841 0.108205
H99   H     H_    0.410510 0.498901 0.575546 0.175025
H100  H     H_    0.915793 0.706837 0.821196 0.086942
H101  H     H_    0.772656 0.744486 0.654694 0.255169
H102  H     H_    0.846240 0.710347 0.623394 0.207870
H103  H     H_    0.741474 0.676203 0.595450 0.280132
H104  H     H_    0.674807 0.378652 0.780485 0.092084
H105  H     H_    0.691514 0.311993 0.842866 0.096773
H106  H     H_    0.635644 0.264243 0.673332 0.250398
H107  H     H_    0.552605 0.316094 0.648062 0.217073
H108  H     H_    0.631188 0.327871 0.606389 0.261015
H109  H     H_    0.212818 0.955662 0.489164 0.144488
H110  H     H_    0.932804 0.921012 0.374349 0.179477
H111  H     H_    0.228566 0.030161 0.497850 0.165872
H112  H     H_    0.199703 0.994433 0.378390 0.185977
H113  H     H_    0.033750 0.094915 0.303969 0.158614
H114  H     H_    0.156815 0.112286 0.388240 0.168544
H115  H     H_    0.073600 0.156183 0.385133 0.162979
H116  H     H_    0.712809 0.455654 0.489158 0.144490
H117  H     H_    0.728568 0.530152 0.497855 0.165867
H118  H     H_    0.699704 0.494427 0.378391 0.185980
H119  H     H_    0.533724 0.594931 0.303968 0.158579
H120  H     H_    0.656809 0.612252 0.388209 0.168545
N1    N     N_R   0.392140 0.102630 0.941800 -0.133010
N2    N     N_R   0.525160 0.972040 0.206160 -0.037029
N3    N     N_R   0.025160 0.527960 0.206160 -0.033582
N4    N     N_R   0.025160 0.472040 0.206160 -0.037029
N5    N     N_R   0.317870 0.971120 0.792790 -0.034856
N6    N     N_R   0.317870 0.028880 0.792790 -0.049263
N7    N     N_R   0.817870 0.471120 0.792790 -0.034856
N8    N     N_R   0.817870 0.528880 0.792790 -0.049264
N9    N     N_R   0.473480 0.027920 0.793480 -0.038583
N10   N     N_R   0.473480 0.972080 0.793480 -0.033687
N11   N     N_R   0.973480 0.527920 0.793480 -0.038583
N12   N     N_R   0.392140 0.897370 0.941800 -0.121944
N13   N     N_R   0.973480 0.472080 0.793480 -0.033687
N14   N     N_R   0.681610 0.971120 0.207570 -0.036120
N15   N     N_R   0.681610 0.028880 0.207570 -0.032475
N16   N     N_R   0.181610 0.471120 0.207570 -0.036120
N17   N     N_R   0.181610 0.528880 0.207570 -0.032475
N18   N     N_R   0.605410 0.102620 0.056870 -0.043280
N19   N     N_R   0.605410 0.897380 0.056870 -0.045995
N20   N     N_R   0.105410 0.602620 0.056870 -0.043279
N21   N     N_R   0.105410 0.397380 0.056870 -0.045995
N22   N     N_R   0.549680 0.896430 0.944180 -0.046437
N23   N     N_R   0.892140 0.602630 0.941800 -0.133011
N24   N     N_R   0.549680 0.103570 0.944180 -0.064183
N25   N     N_R   0.049680 0.396430 0.944180 -0.046437
N26   N     N_R   0.049680 0.603570 0.944180 -0.064183
N27   N     N_R   0.892140 0.397370 0.941800 -0.121944
N28   N     N_R   0.450890 0.896450 0.057150 -0.120654
N29   N     N_R   0.450890 0.103550 0.057150 -0.112083
N30   N     N_R   0.950890 0.396450 0.057150 -0.120655
N31   N     N_R   0.950890 0.603550 0.057150 -0.112083
N32   N     N_R   0.525160 0.027960 0.206160 -0.033582
Ni1   Ni    Ni4+2 0.433410 0.064680 0.868830 0.190335
Ni2   Ni    Ni4+2 0.433410 0.935320 0.868830 0.229530
Ni3   Ni    Ni4+2 0.933410 0.564680 0.868830 0.190335
Ni4   Ni    Ni4+2 0.933410 0.435320 0.868830 0.229529
Ni5   Ni    Ni4+2 0.565650 0.934380 0.131170 0.238486
Ni6   Ni    Ni4+2 0.565650 0.065620 0.131170 0.235430
Ni7   Ni    Ni4+2 0.065650 0.434380 0.131170 0.238486
Ni8   Ni    Ni4+2 0.065650 0.565620 0.131170 0.235431
O1    O     O_3   0.297494 0.169907 0.802377 -0.638884
O2    O     O_3   0.518830 0.173277 0.191425 -0.646017
O3    O     O_3   0.975582 0.330552 0.193932 -0.637613
O4    O     O_3   0.018830 0.673277 0.191424 -0.646016
O5    O     O_3   0.285407 0.834813 0.800464 -0.639701
O6    O     O_3   0.797494 0.669907 0.802377 -0.638884
O7    O     O_3   0.785407 0.334813 0.800464 -0.639701
O8    O     O_3   0.089705 0.998716 0.393209 -0.662642
O9    O     O_3   0.104046 0.084843 0.475980 -0.692155
O10   O     O_3   0.589703 0.498716 0.393205 -0.662631
O11   O     O_3   0.604047 0.584842 0.475977 -0.692160
O12   O     O_3   0.475582 0.830552 0.193932 -0.637613

loop_
_geom_bond_atom_site_label_1
_geom_bond_atom_site_label_2
_ccdc_geom_bond_type
C19   H9    S    
C83   C87   A    
N29   Ni6   S    
C46   C112  S    
C78   C82   A    
C88   H76   S    
N16   Ni7   S    
C102  C112  A    
C25   H22   S    
C102  N6    A    
C89   H53   S    
N19   N22   A    
C101  N5    A    
C44   N23   A    
C41   H13   S    
C97   N4    A    
C12   H109  S    
C75   H45   S    
C115  N10   A    
C29   C49   S    
C23   O4    S    
C101  C112  A    
C31   C67   S    
C5    H90   S    
C116  H68   S    
C15   H118  S    
C24   H82   S    
N9    N10   A    
C73   H42   S    
C114  H65   S    
C62   C67   A    
C90   C93   A    
C2    H80   S    
C99   N21   A    
N1    N29   A    
C103  C113  A    
C16   H3    S    
C119  H71   S    
C38   C42   S    
C7    H95   S    
C86   C91   A    
C120  H72   S    
C74   H43   S    
C97   C111  A    
N14   Ni5   S    
C92   C109  S    
N11   N13   A    
C40   H77   S    
N3    N4    A    
C32   C88   A    
C93   C111  S    
C6    H93   S    
C60   C62   A    
C70   H39   S    
N1    Ni1   S    
C3    C29   A    
C9    H103  S    
C26   C115  A    
C118  N14   A    
C18   H8    S    
C63   C68   A    
C39   H66   S    
C117  N13   A    
C9    H102  S    
N12   N28   A    
C52   N30   A    
C19   C20   S    
C17   H4    S    
C62   H36   S    
C8    C9    S    
C53   N31   A    
C83   C98   A    
C6    H94   S    
C15   H116  S    
N18   Ni6   S    
C10   H105  S    
C72   H41   S    
C51   O2    S    
C69   C73   A    
C95   H58   S    
C37   C47   S    
C86   C100  A    
C75   C80   A    
C21   H16   S    
C67   C71   A    
C7    H96   S    
C10   H104  S    
C32   C68   S    
C39   C48   S    
C8    O6    S    
C27   C116  A    
C19   H10   S    
N23   N31   A    
C81   C108  S    
C21   C22   S    
C57   H30   S    
C10   C11   S    
C37   C41   S    
C73   C75   A    
C16   H119  S    
C25   H23   S    
C60   C82   A    
C57   C79   A    
C20   H12   S    
C5    H91   S    
C61   H35   S    
C41   C49   S    
C14   H115  S    
C66   H74   S    
C36   H33   S    
C12   H112  S    
C17   H5    S    
C45   C47   S    
C120  N16   A    
C58   C64   A    
N22   Ni2   S    
C96   C111  A    
C50   N28   A    
N27   Ni4   S    
C59   C61   A    
C21   H15   S    
C86   H51   S    
C102  H62   S    
C59   C81   A    
C23   H20   S    
C35   H1    S    
C6    O5    S    
C55   N27   A    
C45   C56   S    
N8    Ni3   S    
C72   C74   A    
C84   H49   S    
C95   C109  A    
N28   Ni5   S    
C48   C54   S    
N5    N6    A    
C11   H108  S    
C97   H60   S    
C95   N2    A    
C15   O10   S    
C104  N8    A    
C3    N17   A    
C114  N9    A    
C80   C105  S    
N13   Ni4   S    
N4    Ni7   S    
C103  N7    A    
C4    H89   S    
C14   H113  S    
C79   C106  S    
C2    N24   A    
N5    Ni2   S    
C89   C92   A    
C94   H57   S    
N2    N32   A    
N30   Ni7   S    
C56   H28   S    
C33   N12   A    
C35   C39   S    
C24   C32   A    
C96   N3    A    
N21   N25   A    
N14   N15   A    
C8    H100  S    
C61   C65   A    
C18   H7    S    
C91   C93   A    
C115  H67   S    
C53   C107  A    
N25   Ni4   S    
C13   N25   A    
C22   H17   S    
C36   C40   S    
N26   Ni3   S    
C68   C72   A    
C94   N32   A    
N16   N17   A    
C44   C107  A    
C14   O9    S    
C55   O7    S    
C4    O1    S    
C78   H47   S    
C12   H111  S    
C22   H19   S    
C3    H73   S    
C64   C69   A    
C43   C54   S    
C76   H46   S    
C34   C69   S    
C52   C108  A    
C38   C47   S    
C30   C66   A    
C117  H69   S    
C26   C98   S    
C37   H44   S    
C1    N1    A    
C15   H117  S    
N31   Ni8   S    
C104  H64   S    
C33   O5    S    
C42   H99   S    
N23   Ni3   S    
C74   C79   A    
C51   N29   A    
N15   Ni6   S    
C70   C76   A    
N17   Ni8   S    
C85   H50   S    
C103  H63   S    
N19   Ni5   S    
C71   H40   S    
C84   C89   A    
C63   H37   S    
C20   H11   S    
N20   N26   A    
C39   H110  S    
C29   C120  A    
C14   H114  S    
C101  H61   S    
C58   H31   S    
C4    H87   S    
C43   O8    S    
C27   C117  A    
C26   C114  A    
C47   C113  S    
C19   O2    S    
C90   H54   S    
C40   C48   S    
C28   C48   S    
C31   C77   A    
N32   Ni6   S    
C38   H86   S    
C24   N26   A    
C110  H79   S    
C45   O10   S    
C37   H85   S    
C10   O7    S    
N6    Ni1   S    
N18   N24   A    
C33   C106  A    
N24   Ni1   S    
C57   C63   A    
N11   Ni3   S    
C4    C5    S    
C66   N18   A    
C28   C119  A    
C119  N15   A    
C76   C81   A    
C25   H25   S    
N7    N8    A    
C5    H92   S    
C6    C7    S    
C116  N11   A    
C58   C80   A    
C49   C56   S    
C34   C99   A    
C83   H48   S    
C22   H18   S    
C94   C109  A    
C53   O4    S    
C17   C18   S    
C54   H26   S    
C55   C108  A    
C2    C30   A    
C84   C98   A    
C85   C90   A    
C41   H88   S    
C77   H75   S    
C13   C34   A    
C16   O11   S    
C85   C100  A    
C28   C118  A    
C18   H6    S    
C52   O3    S    
C1    O1    S    
C36   C46   S    
C118  H70   S    
C35   H83   S    
C38   H55   S    
N3    Ni8   S    
N12   Ni2   S    
C82   C107  S    
C11   H106  S    
N20   Ni8   S    
C87   H52   S    
C43   O9    S    
C99   H78   S    
N27   N30   A    
C31   C110  A    
C13   H81   S    
C91   H56   S    
N9    Ni1   S    
C44   O6    S    
N10   Ni2   S    
C96   H59   S    
C21   O3    S    
C43   C46   S    
C60   H34   S    
C51   C105  A    
C110  N22   A    
C30   C65   S    
C8    H98   S    
C42   H24   S    
C88   N20   A    
C42   C49   S    
C104  C113  A    
C7    H97   S    
C59   H32   S    
C9    H101  S    
C23   C25   S    
C16   H120  S    
C17   O12   S    
C11   H107  S    
C77   N19   A    
C64   H38   S    
N21   Ni7   S    
C50   C106  A    
C56   H29   S    
C23   H21   S    
C27   C100  S    
C36   H84   S    
N2    Ni5   S    
C20   H14   S    
N7    Ni4   S    
C87   C92   A    
C35   C46   S    
C50   O12   S    
C40   H2    S    
C71   C78   A    
C12   O8    S    
C65   C70   A    
C1    C105  A    
C54   H27   S    
C45   O11   S    
