data_mof_unit_60743.cif
_audit_creation_date              2012-12-10T19:46:43-0500
_audit_creation_method            fapswitch 2.2
_symmetry_space_group_name_H-M    P1
_symmetry_Int_Tables_number       1
_space_group_crystal_system       triclinic
_cell_length_a                    18.534006
_cell_length_b                    18.534004
_cell_length_c                    32.771
_cell_angle_alpha                 89.999648
_cell_angle_beta                  89.999624
_cell_angle_gamma                 89.999918
_cell_volume                      11257.1446246

loop_
_atom_site_label
_atom_site_type_symbol
_atom_type_description
_atom_site_fract_x
_atom_site_fract_y
_atom_site_fract_z
_atom_type_partial_charge
C1    C     C_R   0.500000 0.000000 0.896061 0.483310
C2    C     C_1   0.499999 0.000000 0.768842 -0.013982
C3    C     C_3   0.284126 0.348186 0.444264 0.182191
C4    C     C_3   0.664039 0.715830 0.439465 0.169679
C5    C     C_3   0.715830 0.336007 0.439476 0.169657
C6    C     C_3   0.335977 0.284164 0.439470 0.169704
C7    C     C_3   0.284160 0.664033 0.439464 0.169722
C8    C     C_1   0.500000 1.000000 0.149166 -0.012905
C9    C     C_1   0.999999 0.500000 0.149166 -0.012904
C10   C     C_1   1.000000 0.500000 0.649166 -0.012903
C11   C     C_1   0.499999 0.000000 0.649166 -0.012905
C12   C     C_1   0.500000 1.000000 0.186789 -0.043867
C13   C     C_1   0.500000 1.000000 0.268842 -0.013983
C14   C     C_1   0.999998 0.500001 0.186789 -0.043865
C15   C     C_1   0.000000 0.500000 0.686789 -0.043870
C16   C     C_1   0.499999 0.000000 0.686789 -0.043871
C17   C     C_3   0.064433 0.857004 0.980745 0.069250
C18   C     C_3   0.025298 0.810172 0.012576 -0.258076
C19   C     C_3   0.011109 0.852156 0.051756 -0.520007
C20   C     C_3   0.142998 0.064434 0.980744 0.069249
C21   C     C_3   0.189828 0.025297 0.012576 -0.258074
C22   C     C_3   0.147842 0.011109 0.051756 -0.520012
C23   C     C_3   0.935573 0.143004 0.980742 0.069266
C24   C     C_1   0.999998 0.500002 0.268842 -0.013990
C25   C     C_3   0.974704 0.189836 0.012575 -0.258083
C26   C     C_3   0.988889 0.147850 0.051756 -0.520010
C27   C     C_3   0.857004 0.935566 0.980741 0.069245
C28   C     C_3   0.810172 0.974707 0.012570 -0.258089
C29   C     C_3   0.852159 0.988902 0.051749 -0.520003
C30   C     C_3   0.068732 0.195675 0.894980 0.036504
C31   C     C_3   0.036945 0.269486 0.883862 -0.230698
C32   C     C_3   0.002499 0.268488 0.841607 -0.490848
C33   C     C_3   0.195684 0.931277 0.894981 0.036496
C34   C     C_3   0.269498 0.963063 0.883869 -0.230688
C35   C     C_1   0.000000 0.500000 0.813267 -0.059484
C36   C     C_3   0.268506 0.997524 0.841618 -0.490847
C37   C     C_3   0.931276 0.804316 0.894982 0.036501
C38   C     C_3   0.963069 0.730504 0.883872 -0.230688
C39   C     C_3   0.997531 0.731496 0.841620 -0.490845
C40   C     C_3   0.804261 0.068713 0.894984 0.036435
C41   C     C_3   0.730425 0.036927 0.883917 -0.230639
C42   C     C_3   0.731340 0.002441 0.841672 -0.490822
C43   C     C_3   0.564430 0.357029 0.480832 0.069219
C44   C     C_3   0.525305 0.310171 0.512654 -0.257996
C45   C     C_3   0.511123 0.352128 0.551845 -0.520003
C46   C     C_1   0.500000 0.000000 0.813267 -0.059500
C47   C     C_3   0.642990 0.564429 0.480818 0.069288
C48   C     C_3   0.689833 0.525327 0.512659 -0.257986
C49   C     C_3   0.647851 0.511153 0.551842 -0.520010
C50   C     C_3   0.435575 0.642989 0.480798 0.069264
C51   C     C_3   0.474697 0.689837 0.512626 -0.258051
C52   C     C_3   0.488869 0.647870 0.551814 -0.520008
C53   C     C_3   0.357019 0.435577 0.480808 0.069259
C54   C     C_3   0.310167 0.474702 0.512634 -0.258041
C55   C     C_3   0.352130 0.488880 0.551823 -0.520003
C56   C     C_3   0.568676 0.695579 0.395026 0.036514
C57   C     C_1   0.500000 0.000000 0.313267 -0.059423
C58   C     C_3   0.536904 0.769387 0.383885 -0.230637
C59   C     C_3   0.502316 0.768313 0.341668 -0.490816
C60   C     C_3   0.695226 0.431326 0.395061 0.036815
C61   C     C_3   0.768930 0.463094 0.383697 -0.230804
C62   C     C_3   0.767374 0.497916 0.341545 -0.490755
C63   C     C_3   0.431321 0.304524 0.395035 0.036639
C64   C     C_3   0.463112 0.230756 0.383828 -0.230745
C65   C     C_3   0.497648 0.231947 0.341598 -0.490881
C66   C     C_3   0.304463 0.568671 0.395031 0.036577
C67   C     C_3   0.230672 0.536892 0.383861 -0.230682
C68   C     C_1   0.999998 0.500002 0.313267 -0.059355
C69   C     C_3   0.231824 0.502239 0.341661 -0.490812
C70   C     C_1   1.000000 0.500000 0.850881 -0.031918
C71   C     C_1   0.500000 0.000000 0.850881 -0.031944
C72   C     C_1   0.500000 0.000001 0.350881 -0.031844
C73   C     C_R   0.000000 0.500000 0.896061 0.483301
C74   C     C_1   0.999999 0.500001 0.350881 -0.031747
C75   C     C_R   0.500000 1.000000 0.103966 0.487621
C76   C     C_R   1.000000 0.500000 0.103966 0.487620
C77   C     C_R   1.000000 0.500000 0.603966 0.487613
C78   C     C_R   0.500000 0.000000 0.603966 0.487617
C79   C     C_R   0.640488 0.859389 0.000199 0.501104
C80   C     C_R   0.140611 0.640488 0.000199 0.501092
C81   C     C_R   0.359512 0.140611 0.000199 0.501090
C82   C     C_R   0.859389 0.359513 0.000199 0.501087
C83   C     C_R   0.639950 0.141152 0.999519 0.511013
C84   C     C_R   0.000000 0.500000 0.396061 0.483289
C85   C     C_R   0.141153 0.360051 0.999518 0.511007
C86   C     C_R   0.360051 0.858847 0.999519 0.511011
C87   C     C_R   0.858847 0.639949 0.999519 0.511011
C88   C     C_R   0.140487 0.359388 0.500200 0.501101
C89   C     C_R   0.640613 0.140486 0.500198 0.501098
C90   C     C_R   0.859514 0.640612 0.500199 0.501065
C91   C     C_R   0.359388 0.859514 0.500199 0.501099
C92   C     C_R   0.139949 0.641153 0.499518 0.511019
C93   C     C_R   0.641153 0.860051 0.499518 0.511019
C94   C     C_R   0.860053 0.358846 0.499518 0.511025
C95   C     C_R   0.500000 0.000000 0.396061 0.483299
C96   C     C_R   0.358847 0.139949 0.499519 0.511014
C97   C     C_R   0.236806 0.815597 0.982280 0.002199
C98   C     C_R   0.184405 0.236806 0.982280 0.002199
C99   C     C_R   0.763198 0.184404 0.982281 0.002186
C100  C     C_R   0.815596 0.763194 0.982280 0.002203
C101  C     C_R   0.235392 0.182744 0.984799 -0.032250
C102  C     C_R   0.182744 0.764610 0.984799 -0.032252
C103  C     C_R   0.764609 0.817256 0.984799 -0.032248
C104  C     C_R   0.817258 0.235392 0.984799 -0.032261
C105  C     C_R   0.736802 0.315602 0.482295 0.002249
C106  C     C_1   0.500000 1.000000 0.231223 -0.010089
C107  C     C_R   0.684398 0.736797 0.482293 0.002186
C108  C     C_R   0.263202 0.684399 0.482292 0.002206
C109  C     C_R   0.315606 0.263205 0.482297 0.002214
C110  C     C_R   0.735389 0.682739 0.484814 -0.032239
C111  C     C_R   0.682740 0.264618 0.484814 -0.032189
C112  C     C_R   0.264618 0.317265 0.484816 -0.032227
C113  C     C_R   0.317261 0.735387 0.484810 -0.032231
C114  C     C_R   0.303484 0.804180 0.001009 -0.005293
C115  C     C_R   0.195821 0.303485 0.001008 -0.005294
C116  C     C_R   0.696518 0.195820 0.001008 -0.005295
C117  C     C_1   0.999998 0.500002 0.231223 -0.010092
C118  C     C_R   0.804180 0.696516 0.001009 -0.005295
C119  C     C_R   0.302038 0.194204 0.003207 -0.014190
C120  C     C_R   0.194204 0.697962 0.003207 -0.014191
C121  C     C_R   0.697962 0.805796 0.003207 -0.014188
C122  C     C_R   0.805796 0.302038 0.003208 -0.014193
C123  C     C_R   0.803491 0.304175 0.501007 -0.005279
C124  C     C_R   0.695825 0.803488 0.501005 -0.005283
C125  C     C_R   0.196514 0.695822 0.501008 -0.005288
C126  C     C_R   0.304179 0.196515 0.501010 -0.005291
C127  C     C_R   0.802045 0.694210 0.503207 -0.014191
C128  C     C_1   0.000000 0.500000 0.731223 -0.010089
C129  C     C_R   0.694211 0.197956 0.503203 -0.014167
C130  C     C_R   0.197960 0.305794 0.503208 -0.014177
C131  C     C_R   0.305792 0.802042 0.503206 -0.014179
C132  C     C_R   0.312068 0.741627 0.025044 -0.162923
C133  C     C_R   0.258374 0.312069 0.025043 -0.162922
C134  C     C_R   0.687932 0.258372 0.025044 -0.162917
C135  C     C_R   0.741626 0.687931 0.025045 -0.162922
C136  C     C_R   0.311423 0.258082 0.025849 -0.158558
C137  C     C_R   0.258081 0.688578 0.025850 -0.158558
C138  C     C_R   0.688578 0.741919 0.025850 -0.158559
C139  C     C_1   0.499999 0.000000 0.731223 -0.010088
C140  C     C_R   0.741919 0.311422 0.025851 -0.158555
C141  C     C_R   0.812091 0.241604 0.525026 -0.162934
C142  C     C_R   0.758392 0.812088 0.525027 -0.162920
C143  C     C_R   0.187917 0.758387 0.525032 -0.162923
C144  C     C_R   0.241613 0.187917 0.525033 -0.162924
C145  C     C_R   0.811442 0.758101 0.525835 -0.158559
C146  C     C_R   0.758103 0.188554 0.525830 -0.158565
C147  C     C_R   0.188563 0.241905 0.525839 -0.158559
C148  C     C_R   0.241904 0.811436 0.525838 -0.158560
C149  C     C_3   0.151850 0.784088 0.944235 0.182279
C150  C     C_1   1.000000 0.500000 0.768842 -0.013986
C151  C     C_3   0.215916 0.151850 0.944235 0.182276
C152  C     C_3   0.848153 0.215921 0.944236 0.182329
C153  C     C_3   0.784085 0.848148 0.944234 0.182265
C154  C     C_3   0.164072 0.215877 0.939442 0.169743
C155  C     C_3   0.215878 0.835931 0.939442 0.169747
C156  C     C_3   0.835930 0.784121 0.939442 0.169755
C157  C     C_3   0.784129 0.164075 0.939442 0.169756
C158  C     C_3   0.651808 0.284151 0.444268 0.182067
C159  C     C_3   0.715888 0.651807 0.444265 0.182318
C160  C     C_3   0.348181 0.715884 0.444258 0.182225
H1    H     H_    0.361496 0.732204 0.041843 0.143704
H2    H     H_    0.767824 0.861527 0.541815 0.143700
H3    H     H_    0.637344 0.562798 0.567964 0.155234
H4    H     H_    0.679859 0.475612 0.572246 0.154594
H5    H     H_    0.595723 0.484492 0.544969 0.131789
H6    H     H_    0.472560 0.598760 0.471575 0.137155
H7    H     H_    0.388287 0.616054 0.494796 0.157393
H8    H     H_    0.526611 0.709410 0.500283 0.223529
H9    H     H_    0.442521 0.737893 0.520692 0.177972
H10   H     H_    0.437225 0.637387 0.567943 0.155237
H11   H     H_    0.524427 0.679877 0.572210 0.154604
H12   H     H_    0.515509 0.595730 0.544947 0.131787
H13   H     H_    0.138481 0.767816 0.541823 0.143702
H14   H     H_    0.401251 0.472560 0.471586 0.137129
H15   H     H_    0.383949 0.388288 0.494808 0.157386
H16   H     H_    0.290595 0.526614 0.500289 0.223537
H17   H     H_    0.262110 0.442526 0.520700 0.177963
H18   H     H_    0.362611 0.437239 0.567954 0.155234
H19   H     H_    0.320121 0.524440 0.572215 0.154606
H20   H     H_    0.404270 0.515521 0.544955 0.131790
H21   H     H_    0.526084 0.653860 0.391597 0.181182
H22   H     H_    0.612697 0.680334 0.373421 0.101772
H23   H     H_    0.495452 0.784868 0.406752 0.238066
H24   H     H_    0.232180 0.138479 0.541822 0.143701
H25   H     H_    0.580076 0.810949 0.384350 0.156238
H26   H     H_    0.542935 0.753563 0.318182 0.142669
H27   H     H_    0.480628 0.822687 0.334435 0.160650
H28   H     H_    0.457185 0.728883 0.340868 0.146198
H29   H     H_    0.653468 0.473908 0.391739 0.181253
H30   H     H_    0.679795 0.387282 0.373514 0.101883
H31   H     H_    0.784731 0.504408 0.406576 0.238003
H32   H     H_    0.810452 0.419876 0.383928 0.155607
H33   H     H_    0.752161 0.457475 0.318054 0.142609
H34   H     H_    0.821713 0.519482 0.334109 0.160434
H35   H     H_    0.860770 0.767781 0.542679 0.144071
H36   H     H_    0.728071 0.543174 0.341004 0.146343
H37   H     H_    0.473896 0.346267 0.391633 0.181118
H38   H     H_    0.387285 0.319806 0.373450 0.101856
H39   H     H_    0.504597 0.215240 0.406667 0.237939
H40   H     H_    0.419961 0.189174 0.384280 0.156222
H41   H     H_    0.456990 0.246717 0.318139 0.142686
H42   H     H_    0.519369 0.177607 0.334318 0.160608
H43   H     H_    0.542746 0.271415 0.340806 0.146134
H44   H     H_    0.346194 0.526087 0.391618 0.181205
H45   H     H_    0.319725 0.612695 0.373432 0.101831
H46   H     H_    0.767783 0.139223 0.542673 0.144071
H47   H     H_    0.215143 0.495477 0.406738 0.238079
H48   H     H_    0.189117 0.580068 0.384282 0.156128
H49   H     H_    0.246656 0.542809 0.318167 0.142657
H50   H     H_    0.177455 0.480575 0.334398 0.160613
H51   H     H_    0.271226 0.457083 0.340913 0.146215
H52   H     H_    0.139235 0.232226 0.542683 0.144070
H53   H     H_    0.232227 0.860762 0.542685 0.144070
H54   H     H_    0.153977 0.738633 0.922138 0.089749
H55   H     H_    0.261371 0.153977 0.922138 0.089751
H56   H     H_    0.846024 0.261377 0.922139 0.089750
H57   H     H_    0.267796 0.361498 0.041842 0.143704
H58   H     H_    0.738631 0.846019 0.922137 0.089746
H59   H     H_    0.182596 0.257530 0.917170 0.054685
H60   H     H_    0.257531 0.817408 0.917170 0.054683
H61   H     H_    0.817408 0.742466 0.917170 0.054681
H62   H     H_    0.742476 0.182601 0.917170 0.054650
H63   H     H_    0.653916 0.238727 0.422150 0.089759
H64   H     H_    0.761327 0.653914 0.422157 0.089816
H65   H     H_    0.346065 0.761322 0.422149 0.089760
H66   H     H_    0.238691 0.346073 0.422154 0.089773
H67   H     H_    0.682549 0.757464 0.417177 0.054713
H68   H     H_    0.638503 0.267794 0.041843 0.143703
H69   H     H_    0.757459 0.317540 0.417176 0.054924
H70   H     H_    0.317482 0.242526 0.417182 0.054760
H71   H     H_    0.242521 0.682531 0.417177 0.054744
H72   H     H_    0.027449 0.901225 0.971507 0.137190
H73   H     H_    0.111712 0.883951 0.994744 0.157396
H74   H     H_    0.973390 0.790592 0.000230 0.223557
H75   H     H_    0.057470 0.762120 0.020655 0.177992
H76   H     H_    0.062745 0.862645 0.067891 0.155242
H77   H     H_    0.975542 0.820159 0.072152 0.154609
H78   H     H_    0.984472 0.904293 0.044877 0.131790
H79   H     H_    0.732204 0.638503 0.041844 0.143704
H80   H     H_    0.098776 0.027451 0.971507 0.137189
H81   H     H_    0.116051 0.111714 0.994744 0.157393
H82   H     H_    0.209407 0.973390 0.000229 0.223559
H83   H     H_    0.237881 0.057468 0.020654 0.177993
H84   H     H_    0.137365 0.062744 0.067894 0.155244
H85   H     H_    0.179832 0.975531 0.072148 0.154607
H86   H     H_    0.095699 0.984485 0.044876 0.131785
H87   H     H_    0.972559 0.098786 0.971504 0.137201
H88   H     H_    0.888295 0.116053 0.994742 0.157401
H89   H     H_    0.026613 0.209416 0.000231 0.223555
H90   H     H_    0.360741 0.267752 0.042704 0.144072
H91   H     H_    0.942531 0.237887 0.020654 0.177997
H92   H     H_    0.937250 0.137356 0.067888 0.155242
H93   H     H_    0.024449 0.179849 0.072153 0.154611
H94   H     H_    0.015530 0.095715 0.044877 0.131791
H95   H     H_    0.901226 0.972547 0.971502 0.137215
H96   H     H_    0.883949 0.888288 0.994743 0.157398
H97   H     H_    0.790592 0.026612 0.000221 0.223565
H98   H     H_    0.762121 0.942536 0.020651 0.177991
H99   H     H_    0.862636 0.937270 0.067890 0.155243
H100  H     H_    0.820168 0.024484 0.072139 0.154609
H101  H     H_    0.267750 0.639259 0.042705 0.144073
H102  H     H_    0.904302 0.015525 0.044867 0.131781
H103  H     H_    0.026152 0.153950 0.891527 0.181176
H104  H     H_    0.112770 0.180468 0.873377 0.101889
H105  H     H_    0.995407 0.284880 0.906697 0.237984
H106  H     H_    0.080084 0.311078 0.884405 0.156424
H107  H     H_    0.043223 0.253883 0.818151 0.142703
H108  H     H_    0.980743 0.322847 0.834406 0.160689
H109  H     H_    0.957439 0.228984 0.840718 0.146203
H110  H     H_    0.153961 0.973859 0.891528 0.181176
H111  H     H_    0.180480 0.887242 0.873376 0.101886
H112  H     H_    0.639259 0.732250 0.042706 0.144072
H113  H     H_    0.284894 0.004592 0.906709 0.237996
H114  H     H_    0.311087 0.919920 0.884409 0.156419
H115  H     H_    0.253892 0.956814 0.818157 0.142703
H116  H     H_    0.322870 0.019271 0.834419 0.160696
H117  H     H_    0.229013 0.042594 0.840735 0.146192
H118  H     H_    0.973854 0.846043 0.891528 0.181176
H119  H     H_    0.887241 0.819514 0.873376 0.101886
H120  H     H_    0.004599 0.715115 0.906712 0.237999
H121  H     H_    0.919932 0.688911 0.884413 0.156428
H122  H     H_    0.956816 0.746093 0.818158 0.142703
H123  H     H_    0.732248 0.360739 0.042706 0.144072
H124  H     H_    0.019294 0.677138 0.834425 0.160692
H125  H     H_    0.042588 0.771004 0.840733 0.146191
H126  H     H_    0.845977 0.026128 0.891513 0.181192
H127  H     H_    0.819429 0.112737 0.873364 0.101867
H128  H     H_    0.715068 0.995413 0.906773 0.238071
H129  H     H_    0.688840 0.080071 0.884472 0.156467
H130  H     H_    0.745911 0.043138 0.818195 0.142696
H131  H     H_    0.676964 0.980690 0.834508 0.160727
H132  H     H_    0.770833 0.957372 0.840773 0.146190
H133  H     H_    0.527453 0.401271 0.471618 0.137073
H134  H     H_    0.861529 0.232170 0.541813 0.143702
H135  H     H_    0.611726 0.383946 0.494832 0.157397
H136  H     H_    0.473393 0.290601 0.500307 0.223538
H137  H     H_    0.557483 0.262114 0.520717 0.177948
H138  H     H_    0.562763 0.362614 0.567975 0.155231
H139  H     H_    0.475569 0.320111 0.572237 0.154603
H140  H     H_    0.484475 0.404265 0.544980 0.131799
H141  H     H_    0.598765 0.527437 0.471600 0.137070
H142  H     H_    0.616050 0.611723 0.494806 0.157376
H143  H     H_    0.709427 0.473415 0.500325 0.223560
H144  H     H_    0.737877 0.557518 0.520729 0.177909
O1    O     O_3   0.500000 1.000000 0.000010 -0.413546
O2    O     O_R   0.500000 0.939250 0.416010 -0.549458
O3    O     O_R   0.060750 0.500000 0.416010 -0.549466
O4    O     O_R   0.500000 0.060750 0.416010 -0.549368
O5    O     O_R   0.500000 0.939250 0.084010 -0.531075
O6    O     O_R   0.060750 0.500000 0.084010 -0.531074
O7    O     O_R   0.500000 0.060750 0.084010 -0.531072
O8    O     O_R   0.939250 0.500000 0.084010 -0.531075
O9    O     O_R   1.000000 0.439250 0.584010 -0.531080
O10   O     O_R   0.560750 0.000000 0.584010 -0.531073
O11   O     O_R   1.000000 0.560750 0.584010 -0.531077
O12   O     O_3   0.000000 0.500000 0.000010 -0.413559
O13   O     O_R   0.439250 0.000000 0.584010 -0.531077
O14   O     O_R   0.646150 0.914530 0.977990 -0.543280
O15   O     O_R   0.085470 0.646150 0.977990 -0.543240
O16   O     O_R   0.353850 0.085470 0.977990 -0.543238
O17   O     O_R   0.914530 0.353850 0.977990 -0.543233
O18   O     O_R   0.646150 0.085470 0.977990 -0.532457
O19   O     O_R   0.085470 0.353850 0.977990 -0.532381
O20   O     O_R   0.353850 0.914530 0.977990 -0.532386
O21   O     O_R   0.914530 0.646150 0.977990 -0.532388
O22   O     O_R   0.146150 0.414530 0.477990 -0.543223
O23   O     O_3   1.000000 0.500000 0.500010 -0.413621
O24   O     O_R   0.585470 0.146150 0.477990 -0.543166
O25   O     O_R   0.853850 0.585470 0.477990 -0.543083
O26   O     O_R   0.414530 0.853850 0.477990 -0.543239
O27   O     O_R   0.146150 0.585470 0.477990 -0.532353
O28   O     O_R   0.585470 0.853850 0.477990 -0.532383
O29   O     O_R   0.853850 0.414530 0.477990 -0.532132
O30   O     O_R   0.414530 0.146150 0.477990 -0.532281
O31   O     O_R   0.414550 0.146120 0.022030 -0.543509
O32   O     O_R   0.853880 0.414550 0.022030 -0.543510
O33   O     O_R   0.585450 0.853880 0.022030 -0.543502
O34   O     O_3   0.500000 0.000000 0.500010 -0.413583
O35   O     O_R   0.146120 0.585450 0.022030 -0.543508
O36   O     O_R   0.414550 0.853880 0.022030 -0.546375
O37   O     O_R   0.853880 0.585450 0.022030 -0.546374
O38   O     O_R   0.585450 0.146120 0.022030 -0.546362
O39   O     O_R   0.146120 0.414550 0.022030 -0.546376
O40   O     O_R   0.914550 0.646120 0.522030 -0.543543
O41   O     O_R   0.353880 0.914550 0.522030 -0.543514
O42   O     O_R   0.085450 0.353880 0.522030 -0.543518
O43   O     O_R   0.646120 0.085450 0.522030 -0.543527
O44   O     O_R   0.914550 0.353880 0.522030 -0.546421
O45   O     O_R   0.439250 0.000000 0.916010 -0.549448
O46   O     O_R   0.353880 0.085450 0.522030 -0.546392
O47   O     O_R   0.085450 0.646120 0.522030 -0.546383
O48   O     O_R   0.646120 0.914550 0.522030 -0.546377
O49   O     O_3   0.081862 0.817004 0.944930 -0.545422
O50   O     O_3   0.182999 0.081862 0.944930 -0.545421
O51   O     O_3   0.918143 0.183007 0.944929 -0.545388
O52   O     O_3   0.817003 0.918135 0.944927 -0.545455
O53   O     O_3   0.090972 0.195334 0.936235 -0.553041
O54   O     O_3   0.195334 0.909032 0.936235 -0.553042
O55   O     O_3   0.909030 0.804665 0.936235 -0.553042
O56   O     O_R   0.000000 0.439250 0.916010 -0.549448
O57   O     O_3   0.804681 0.090977 0.936233 -0.553075
O58   O     O_3   0.581819 0.317063 0.444999 -0.545502
O59   O     O_3   0.682978 0.581817 0.444993 -0.545312
O60   O     O_3   0.418170 0.682971 0.444974 -0.545444
O61   O     O_3   0.317041 0.418174 0.444982 -0.545447
O62   O     O_3   0.590938 0.695281 0.436277 -0.553047
O63   O     O_3   0.695295 0.409113 0.436321 -0.553041
O64   O     O_3   0.409080 0.304708 0.436290 -0.552976
O65   O     O_3   0.304709 0.590931 0.436282 -0.553039
O66   O     O_R   0.560750 0.000000 0.916010 -0.549504
O67   O     O_R   1.000000 0.560750 0.916010 -0.549460
O68   O     O_R   0.939250 0.500000 0.416010 -0.549239
Zn1   Zn    Zn3+2 0.500000 0.913220 0.031480 0.932966
Zn2   Zn    Zn3+2 0.000000 0.586740 0.968550 0.922701
Zn3   Zn    Zn3+2 0.413260 0.000000 0.968550 0.922707
Zn4   Zn    Zn3+2 0.000000 0.413260 0.968550 0.922714
Zn5   Zn    Zn3+2 0.086740 0.500000 0.468550 0.922740
Zn6   Zn    Zn3+2 0.500000 0.086740 0.468550 0.922837
Zn7   Zn    Zn3+2 0.913260 0.500000 0.468550 0.923037
Zn8   Zn    Zn3+2 0.500000 0.913260 0.468550 0.922709
Zn9   Zn    Zn3+2 0.086780 0.500000 0.031480 0.932960
Zn10  Zn    Zn3+2 0.500000 0.086780 0.031480 0.932964
Zn11  Zn    Zn3+2 0.913220 0.500000 0.031480 0.932961
Zn12  Zn    Zn3+2 0.000000 0.413220 0.531480 0.932948
Zn13  Zn    Zn3+2 0.586780 0.000000 0.531480 0.932953
Zn14  Zn    Zn3+2 1.000000 0.586780 0.531480 0.932936
Zn15  Zn    Zn3+2 0.413220 0.000000 0.531480 0.932956
Zn16  Zn    Zn3+2 0.586740 0.000000 0.968550 0.922623

loop_
_geom_bond_atom_site_label_1
_geom_bond_atom_site_label_2
_ccdc_geom_bond_type
C144  H24   S    
C43   H135  S    
C55   H20   S    
O40   Zn14  S    
C42   H130  S    
C5    C105  S    
C79   C121  S    
C94   O29   A    
C61   H32   S    
O12   Zn9   S    
C91   C131  S    
C1    O66   A    
O21   Zn2   S    
C89   C129  S    
C160  H65   S    
C105  C123  A    
C59   H26   S    
C160  O60   S    
O8    Zn11  S    
C54   H16   S    
C23   H88   S    
C132  H1    S    
C49   H4    S    
C25   H89   S    
O12   Zn2   S    
C69   H51   S    
C62   H36   S    
C37   H118  S    
C151  H55   S    
C21   C22   S    
C33   H111  S    
C31   H106  S    
C136  H90   S    
C32   H109  S    
C47   H141  S    
C107  C124  A    
C3    O61   S    
O6    Zn9   S    
O18   Zn16  S    
C20   H81   S    
C77   O11   A    
C4    C107  S    
C51   C52   S    
C51   H9    S    
C20   O50   S    
C87   C118  S    
C19   H78   S    
C52   H10   S    
C99   C116  A    
C138  H112  S    
C132  C137  A    
C101  C151  S    
C63   H37   S    
C58   H23   S    
C101  C119  A    
C108  C113  A    
C43   C44   S    
C37   C38   S    
O29   Zn7   S    
C65   H43   S    
C3    C112  S    
C123  C141  A    
C155  H60   S    
C153  C156  S    
O16   Zn3   S    
C157  O57   S    
C127  C145  A    
C6    H70   S    
C128  C150  T    
C50   H7    S    
O31   Zn10  S    
C64   H40   S    
C107  C110  A    
C62   H34   S    
C147  H52   S    
C103  C121  A    
O39   Zn9   S    
C93   O28   A    
C152  C157  S    
O24   Zn6   S    
O66   Zn16  S    
O12   Zn11  S    
C119  C136  A    
C13   C106  T    
C84   O3    A    
C18   H74   S    
O32   Zn11  S    
C12   C106  S    
C81   C119  S    
C153  O52   S    
O46   Zn15  S    
C45   H138  S    
C104  C152  S    
C149  C155  S    
C25   H91   S    
C141  H134  S    
O12   Zn4   S    
C85   O39   A    
C102  C149  S    
C20   C21   S    
C60   H30   S    
C5    C158  S    
C44   H136  S    
C37   O55   S    
O42   Zn12  S    
C154  H59   S    
C159  O59   S    
C36   H116  S    
C92   O47   A    
C98   C154  S    
O11   Zn14  S    
C158  H63   S    
C78   O10   A    
C155  O54   S    
C90   O25   A    
C19   H76   S    
C52   H12   S    
O9    Zn12  S    
C53   C54   S    
C39   H125  S    
C152  H56   S    
C29   H99   S    
C66   O65   S    
C111  C158  S    
C88   O42   A    
C18   C19   S    
C93   O48   A    
C38   C39   S    
O5    Zn1   S    
C13   C57   S    
C7    O65   S    
C68   C74   T    
O33   Zn1   S    
C4    H67   S    
C4    O62   S    
C85   O19   A    
C38   H121  S    
C6    O64   S    
C59   H27   S    
C35   C150  S    
C27   H96   S    
C73   O67   A    
C21   H83   S    
C75   O7    A    
C14   C117  S    
C66   C67   S    
C76   O8    A    
C144  C147  A    
O44   Zn12  S    
C30   O53   S    
O34   Zn8   S    
C17   H72   S    
C29   H102  S    
C143  C148  A    
C34   H113  S    
C45   H140  S    
O14   Zn16  S    
C131  C148  A    
C88   O22   A    
C22   H86   S    
C66   H45   S    
C25   C26   S    
C20   H80   S    
C23   O51   S    
C91   O41   A    
C31   C32   S    
O7    Zn10  S    
C39   H124  S    
C8    C12   T    
O67   Zn2   S    
C83   O18   A    
C17   C18   S    
C96   C126  S    
C3    H66   S    
C26   H92   S    
C76   O6    A    
C28   H98   S    
C99   C157  S    
C6    C109  S    
O23   Zn12  S    
O37   Zn11  S    
C53   H15   S    
C61   H31   S    
C63   O64   S    
C54   C55   S    
C130  C147  A    
O27   Zn5   S    
C55   H19   S    
C73   O56   A    
C74   C84   S    
C26   H93   S    
O43   Zn13  S    
O41   Zn15  S    
C90   O40   A    
C122  C140  A    
O15   Zn2   S    
O23   Zn14  S    
O22   Zn5   S    
C100  C156  S    
C98   C115  A    
C125  C143  A    
C126  C144  A    
O17   Zn4   S    
C56   C58   S    
C96   O46   A    
C23   H87   S    
C61   C62   S    
O30   Zn6   S    
C80   O15   A    
C49   H3    S    
C87   O21   A    
C33   O54   S    
C75   O5    A    
C109  C126  A    
C79   O33   A    
C69   H50   S    
C5    O63   S    
C86   O20   A    
O34   Zn15  S    
O34   Zn6   S    
C67   H48   S    
O48   Zn13  S    
C137  H101  S    
O68   Zn7   S    
C33   H110  S    
C31   H105  S    
C41   C42   S    
C48   H143  S    
C22   H84   S    
C7    H71   S    
O1    Zn10  S    
C156  O55   S    
C24   C117  T    
C78   O13   A    
C2    C139  T    
O23   Zn7   S    
C28   C29   S    
C47   O59   S    
C19   H77   S    
O20   Zn3   S    
C30   C31   S    
C4    C159  S    
C116  C134  A    
C56   H21   S    
C39   H122  S    
C159  H64   S    
C151  O50   S    
C32   H107  S    
C30   H103  S    
C53   O61   S    
C42   H131  S    
O4    Zn6   S    
C111  C129  A    
O1    Zn1   S    
C65   H42   S    
O36   Zn1   S    
O25   Zn7   S    
C50   H6    S    
C90   C127  S    
C9    C76   S    
C113  C131  A    
O19   Zn4   S    
C97   C102  A    
C94   C123  S    
C3    C6    S    
C99   C104  A    
C105  C111  A    
C92   C125  S    
C58   H25   S    
C142  C145  A    
C85   C115  S    
C1    O45   A    
C18   H75   S    
C7    C160  S    
C115  C133  A    
C58   C59   S    
C100  C103  A    
C60   C61   S    
C79   O14   A    
C134  H68   S    
C9    C14   T    
C49   H5    S    
C11   C16   T    
C70   C73   S    
C50   C51   S    
C158  O58   S    
O34   Zn13  S    
C149  O49   S    
C46   C71   T    
C141  C146  A    
C37   H119  S    
C38   H120  S    
C48   C49   S    
C15   C128  S    
O3    Zn5   S    
C47   H142  S    
C100  C118  A    
C95   O4    A    
C102  C120  A    
C44   C45   S    
O23   Zn5   S    
C142  H2    S    
C81   O16   A    
C17   H73   S    
C98   C101  A    
C40   H127  S    
C96   O30   A    
C54   H17   S    
C64   C65   S    
C82   O32   A    
C87   O37   A    
C84   O68   A    
O1    Zn3   S    
C92   O27   A    
C80   O35   A    
C86   O36   A    
C97   C155  S    
C57   C72   T    
C82   C122  S    
C145  H35   S    
C24   C68   S    
C104  C122  A    
C64   H39   S    
C44   H137  S    
C40   O57   S    
C82   O17   A    
C120  C137  A    
C62   H33   S    
C27   H95   S    
C118  C135  A    
C21   H82   S    
C43   O58   S    
C135  C138  A    
O26   Zn8   S    
C80   C120  S    
O38   Zn10  S    
C93   C124  S    
C88   C130  S    
C146  H46   S    
C148  H53   S    
C2    C46   S    
C34   H114  S    
C1    C71   S    
C45   H139  S    
C10   C15   T    
C63   H38   S    
C134  C140  A    
O10   Zn13  S    
C151  C154  S    
C56   O62   S    
C149  H54   S    
C72   C95   S    
C103  C153  S    
C35   C70   T    
C60   H29   S    
C133  C136  A    
C108  C125  A    
C41   H128  S    
C36   H115  S    
C34   C36   S    
C110  C127  A    
C94   O44   A    
C60   O63   S    
C124  C142  A    
C51   H8    S    
O35   Zn9   S    
C52   H11   S    
C10   C77   S    
C53   H14   S    
C154  O53   S    
C36   H117  S    
O1    Zn16  S    
C42   H132  S    
C29   H100  S    
O28   Zn8   S    
C83   O38   A    
O2    Zn8   S    
C26   H94   S    
C109  C112  A    
C17   O49   S    
C8    C75   S    
C133  H57   S    
C63   C64   S    
C156  H61   S    
C67   C69   S    
C121  C138  A    
C11   C78   S    
O47   Zn14  S    
C47   C48   S    
C81   O31   A    
C33   C34   S    
C129  C146  A    
C59   H28   S    
C153  H58   S    
C40   C41   S    
C157  H62   S    
C5    H69   S    
C91   O26   A    
C69   H49   S    
C140  H123  S    
C152  O51   S    
C27   C28   S    
C67   H47   S    
C95   O2    A    
C114  C132  A    
C83   C116  S    
C48   H144  S    
C22   H85   S    
C41   H129  S    
C89   O43   A    
C77   O9    A    
C86   C114  S    
C112  C130  A    
C43   H133  S    
C97   C114  A    
C66   H44   S    
C50   O60   S    
C56   H22   S    
C40   H126  S    
C55   H18   S    
C135  H79   S    
C32   H108  S    
C30   H104  S    
C23   C25   S    
C113  C160  S    
C27   O52   S    
O13   Zn15  S    
C65   H41   S    
C28   H97   S    
C16   C139  S    
C89   O24   A    
C143  H13   S    
C7    C108  S    
O45   Zn3   S    
C110  C159  S    
O56   Zn4   S    
