data_mof_unit_24518.cif
_audit_creation_date              2012-12-11T14:36:01-0500
_audit_creation_method            fapswitch 2.2
_symmetry_space_group_name_H-M    P1
_symmetry_Int_Tables_number       1
_space_group_crystal_system       triclinic
_cell_length_a                    13.503743
_cell_length_b                    13.501775
_cell_length_c                    27.475111
_cell_angle_alpha                 90.374856
_cell_angle_beta                  89.639838
_cell_angle_gamma                 60.414726
_cell_volume                      4355.91734982

loop_
_atom_site_label
_atom_site_type_symbol
_atom_type_description
_atom_site_fract_x
_atom_site_fract_y
_atom_site_fract_z
_atom_type_partial_charge
C1    C     C_R   0.618157 0.098271 0.571435 0.543770
C2    C     C_1   0.619850 0.755581 0.664654 0.026314
C3    C     C_3   0.016467 0.806037 0.760586 -0.380513
C4    C     C_3   0.848259 0.748661 0.119570 -0.008602
C5    C     C_3   0.798546 0.784263 0.068850 -0.374001
C6    C     C_3   0.903826 0.617356 0.689973 -0.021417
C7    C     C_3   0.951812 0.573178 0.639244 -0.352053
C8    C     C_3   0.009251 0.831203 0.279306 -0.027354
C9    C     C_3   0.095265 0.758284 0.317418 -0.363789
C10   C     C_3   0.014945 0.041746 0.673790 0.014594
C11   C     C_3   0.943682 0.027116 0.634818 -0.325562
C12   C     C_3   0.022660 0.175735 0.724317 0.259632
C13   C     C_R   0.573099 0.825928 0.574563 0.563013
C14   C     C_3   0.098608 0.107357 0.767244 -0.101426
C15   C     C_1   0.016294 0.248139 0.892768 -0.010886
C16   C     C_1   0.210558 0.149471 0.613486 0.023063
C17   C     C_3   0.976140 0.288397 0.753998 -0.046269
C18   C     C_3   0.055519 0.219991 0.796176 -0.039615
C19   C     C_3   0.073421 0.305309 0.732139 -0.141915
C20   C     C_3   0.117330 0.193606 0.702685 0.030296
C21   C     C_1   0.599692 0.785621 0.623167 0.035557
C22   C     C_3   0.151516 0.237544 0.774847 -0.129954
C23   C     C_3   0.192970 0.126818 0.745271 0.256772
C24   C     C_1   0.031917 0.234810 0.849125 -0.048051
C25   C     C_R   0.275818 0.122903 0.569102 0.550244
C26   C     C_1   0.163550 0.172421 0.652742 0.004464
C27   C     C_3   0.632649 0.247914 0.741546 0.255639
C28   C     C_3   0.550883 0.248538 0.781234 -0.163546
C29   C     C_1   0.688622 0.206157 0.905110 -0.015410
C30   C     C_1   0.628161 0.120030 0.621883 0.034315
C31   C     C_3   0.737543 0.175406 0.773461 -0.109449
C32   C     C_3   0.688140 0.586174 0.767022 -0.032229
C33   C     C_3   0.655714 0.174127 0.812791 -0.040666
C34   C     C_3   0.743796 0.067201 0.750949 0.286191
C35   C     C_3   0.641459 0.140258 0.718268 0.018430
C36   C     C_3   0.662713 0.066869 0.790229 0.283077
C37   C     C_R   0.622726 0.099580 0.431384 0.548917
C38   C     C_3   0.559269 0.139170 0.757604 -0.180004
C39   C     C_1   0.669294 0.192050 0.863947 -0.050121
C40   C     C_1   0.634712 0.129350 0.665302 0.038557
C41   C     C_R   0.735433 0.702904 0.359820 -0.129386
C42   C     C_R   0.747068 0.684921 0.309508 0.009499
C43   C     C_3   0.678623 0.668913 0.807987 -0.044269
C44   C     C_R   0.759135 0.669133 0.207268 0.007315
C45   C     C_R   0.847290 0.669712 0.234018 -0.095569
C46   C     C_R   0.841707 0.676355 0.284698 -0.109470
C47   C     C_R   0.766857 0.654390 0.156305 0.263056
C48   C     C_R   0.682809 0.640035 0.132095 -0.002522
C49   C     C_R   0.602185 0.775181 0.430648 0.558650
C50   C     C_R   0.557458 0.698885 0.358040 -0.128071
C51   C     C_R   0.564793 0.687200 0.307873 0.018171
C52   C     C_R   0.658880 0.682484 0.283233 0.065328
C53   C     C_R   0.475830 0.687478 0.281892 -0.129783
C54   C     C_3   0.574878 0.680818 0.745932 -0.041701
C55   C     C_R   0.479467 0.684257 0.231384 -0.122405
C56   C     C_R   0.573352 0.678026 0.206566 0.001034
C57   C     C_R   0.663775 0.676851 0.232313 0.019033
C58   C     C_R   0.581617 0.664450 0.156553 -0.179650
C59   C     C_R   0.637189 0.716700 0.383577 -0.005398
C60   C     C_R   0.221373 0.055423 0.355716 -0.130724
C61   C     C_R   0.280783 0.119680 0.430150 0.545229
C62   C     C_R   0.201130 0.065764 0.305547 0.030424
C63   C     C_R   0.158989 0.089205 0.205133 0.023112
C64   C     C_R   0.167022 0.994889 0.229811 -0.128788
C65   C     C_3   0.641965 0.723138 0.715552 0.038922
C66   C     C_R   0.189794 0.982374 0.279584 -0.129357
C67   C     C_R   0.126223 0.107725 0.156474 -0.132932
C68   C     C_R   0.115075 0.204313 0.132784 -0.027350
C69   C     C_R   0.220531 0.235802 0.356211 -0.122973
C70   C     C_R   0.206482 0.244097 0.306184 -0.045617
C71   C     C_R   0.195357 0.159794 0.280640 0.051610
C72   C     C_R   0.208338 0.333333 0.281394 -0.113092
C73   C     C_3   0.753644 0.630724 0.736426 0.277750
C74   C     C_R   0.196472 0.341960 0.230933 0.276341
C75   C     C_R   0.176901 0.261933 0.205227 -0.002871
C76   C     C_3   0.565702 0.762198 0.787658 -0.058333
C77   C     C_R   0.177934 0.169912 0.230253 0.018748
C78   C     C_R   0.150182 0.274383 0.155833 -0.084312
C79   C     C_R   0.232880 0.139665 0.381072 0.002520
C80   C     C_R   0.569201 0.238343 0.363600 -0.132985
C81   C     C_R   0.576561 0.256595 0.313999 0.008313
C82   C     C_R   0.586288 0.287456 0.213449 0.033851
C83   C     C_R   0.508691 0.377787 0.243144 -0.067410
C84   C     C_R   0.502018 0.361744 0.292982 -0.109177
C85   C     C_3   0.746976 0.711192 0.778002 -0.118053
C86   C     C_R   0.596740 0.303248 0.163827 -0.096534
C87   C     C_3   0.632804 0.805357 0.756600 -0.061591
C88   C     C_R   0.678282 0.212552 0.135298 0.000940
C89   C     C_R   0.733353 0.048623 0.355274 -0.107485
C90   C     C_R   0.738113 0.062351 0.305434 0.028423
C91   C     C_R   0.658094 0.166560 0.284565 0.015576
C92   C     C_R   0.819641 0.972471 0.276209 0.268824
C93   C     C_R   0.814078 0.984792 0.225498 -0.125798
C94   C     C_R   0.736619 0.088581 0.204787 -0.029717
C95   C     C_R   0.659768 0.180719 0.234242 0.042194
C96   C     C_R   0.740882 0.103707 0.155185 -0.128628
C97   C     C_1   0.698976 0.610245 0.901005 -0.010682
C98   C     C_1   0.690795 0.639823 0.859415 -0.056583
C99   C     C_R   0.645224 0.132804 0.383857 -0.020185
C100  C     C_R   0.994804 0.268041 0.944577 0.560544
C101  C     C_R   0.712183 0.562985 0.948376 0.529813
C102  C     C_R   0.722008 0.225282 0.951573 0.534054
C103  C     C_R   0.049733 0.244129 0.087819 0.557745
C104  C     C_R   0.707295 0.576030 0.086104 0.556087
C105  C     C_R   0.718169 0.233895 0.089164 0.544754
C106  C     C_3   0.614105 0.985648 0.854722 -0.008383
C107  C     C_3   0.684830 0.934748 0.900099 -0.384225
C108  C     C_3   0.923528 0.926890 0.772692 0.001439
Cr1   Cr    Cr6+3 0.417550 0.169090 0.500530 1.037947
Cr2   Cr    Cr6+3 0.669180 0.913420 0.499920 1.019295
Cr3   Cr    Cr6+3 0.413260 0.917540 0.499520 1.032373
Cr4   Cr    Cr6+3 0.909170 0.177380 0.020380 1.016105
Cr5   Cr    Cr6+3 0.912710 0.429210 0.018220 1.056700
Cr6   Cr    Cr6+3 0.657170 0.432570 0.019030 1.029860
H1    H     H_    0.817781 0.722665 0.791751 0.139289
H2    H     H_    0.911122 0.675284 0.304555 0.160225
H3    H     H_    0.513698 0.659975 0.137585 0.144664
H4    H     H_    0.410065 0.684225 0.211778 0.102057
H5    H     H_    0.402705 0.692100 0.300583 0.095953
H6    H     H_    0.482593 0.706451 0.376355 0.131251
H7    H     H_    0.102542 0.051201 0.138165 0.127323
H8    H     H_    0.232205 0.980398 0.374510 0.118323
H9    H     H_    0.154693 0.931418 0.210685 0.093257
H10   H     H_    0.607847 0.895335 0.749651 0.218751
H11   H     H_    0.196778 0.908577 0.297977 0.095837
H12   H     H_    0.204943 0.263989 0.795656 0.107780
H13   H     H_    0.146864 0.344342 0.135810 0.224630
H14   H     H_    0.221060 0.395316 0.301542 0.158881
H15   H     H_    0.230032 0.301274 0.375172 0.133982
H16   H     H_    0.547501 0.387365 0.148397 0.142859
H17   H     H_    0.501946 0.304033 0.385846 0.122031
H18   H     H_    0.453285 0.460607 0.227780 0.148902
H19   H     H_    0.439686 0.431841 0.315144 0.120012
H20   H     H_    0.802269 0.032892 0.132954 0.121804
H21   H     H_    0.489499 0.809887 0.811260 0.204279
H22   H     H_    0.872341 0.914681 0.202269 0.084199
H23   H     H_    0.065241 0.385717 0.718238 0.151734
H24   H     H_    0.793060 0.967843 0.371198 0.185934
H25   H     H_    0.502170 0.673752 0.731504 0.209417
H26   H     H_    0.709749 0.496947 0.773379 0.179004
H27   H     H_    0.111820 0.025189 0.781624 0.117963
H28   H     H_    0.445851 0.498097 0.745530 0.344621
H29   H     H_    0.565865 0.940362 0.848226 0.191430
H30   H     H_    0.550499 0.076896 0.861644 0.129087
H31   H     H_    0.739485 0.973158 0.907181 0.163109
H32   H     H_    0.627815 0.950901 0.932024 0.107104
H33   H     H_    0.740128 0.841315 0.895075 0.156595
H34   H     H_    0.885481 0.353590 0.757648 0.166434
H35   H     H_    0.886516 0.924575 0.808641 0.176711
H36   H     H_    0.962139 0.982403 0.776382 0.122300
H37   H     H_    0.051850 0.801217 0.723533 0.156029
H38   H     H_    0.086149 0.778032 0.787419 0.110712
H39   H     H_    0.980816 0.747703 0.762257 0.137186
H40   H     H_    0.933695 0.741724 0.119590 0.169635
H41   H     H_    0.795202 0.817111 0.146544 0.103261
H42   H     H_    0.710460 0.798035 0.068074 0.136311
H43   H     H_    0.796129 0.865024 0.058917 0.101317
H44   H     H_    0.851952 0.717313 0.041720 0.171236
H45   H     H_    0.471361 0.324120 0.794309 0.132416
H46   H     H_    0.975144 0.601132 0.714525 0.125073
H47   H     H_    0.846632 0.711347 0.687445 0.141732
H48   H     H_    0.881338 0.590615 0.613935 0.175314
H49   H     H_    0.998051 0.616661 0.625787 0.105592
H50   H     H_    0.011648 0.480005 0.639909 0.162286
H51   H     H_    0.233019 0.593020 0.223407 0.347559
H52   H     H_    0.025658 0.902072 0.270092 0.127843
H53   H     H_    0.022907 0.777501 0.246381 0.153103
H54   H     H_    0.084253 0.684333 0.326631 0.172344
H55   H     H_    0.183075 0.726304 0.303130 0.104087
H56   H     H_    0.485494 0.127315 0.750978 0.186553
H57   H     H_    0.083408 0.809741 0.350880 0.146932
H58   H     H_    0.041281 0.973086 0.700738 0.147310
H59   H     H_    0.093109 0.030632 0.655484 0.136613
H60   H     H_    0.919290 0.094018 0.606849 0.165465
H61   H     H_    0.993374 0.942130 0.617067 0.097657
H62   H     H_    0.865617 0.033803 0.651164 0.205071
H63   H     H_    0.373924 0.090153 0.803955 0.317403
H64   H     H_    0.809677 0.191221 0.779830 0.137624
H65   H     H_    0.798026 0.714834 0.379642 0.130791
H66   H     H_    0.920874 0.664843 0.216046 0.197137
O1    O     O_R   0.301710 0.195650 0.554160 -0.503554
O2    O     O_R   0.635520 0.542770 0.964420 -0.500468
O3    O     O_R   0.665950 0.325030 0.970100 -0.490486
O4    O     O_R   0.522390 0.158990 0.550460 -0.479141
O5    O     O_R   0.816620 0.158530 0.074540 -0.523350
O6    O     O_R   0.004460 0.188870 0.069750 -0.497843
O7    O     O_R   0.025800 0.341780 0.072300 -0.485937
O8    O     O_R   0.807650 0.528950 0.067500 -0.443105
O9    O     O_R   0.633420 0.550490 0.071810 -0.532534
O10   O     O_R   0.664000 0.332180 0.069640 -0.494735
O11   O     O_3   0.826350 0.346390 0.019210 -0.277096
O12   O     O_R   0.658900 0.818120 0.449760 -0.495634
O13   O     O_R   0.694390 0.003530 0.554040 -0.526044
O14   O     O_R   0.657700 0.819660 0.549320 -0.505720
O15   O     O_R   0.501930 0.803280 0.552920 -0.488135
O16   O     O_R   0.318170 0.023580 0.549580 -0.505024
O17   O     O_R   0.303010 0.193990 0.446760 -0.522944
O18   O     O_R   0.523600 0.157450 0.450900 -0.495845
O19   O     O_R   0.695690 0.001860 0.446640 -0.521970
O20   O     O_2   0.711890 0.372274 0.696966 -0.231210
O21   O     O_2   0.536662 0.386084 0.664949 -0.280844
O22   O     O_3   0.524555 0.485050 0.747909 -0.574975
O23   O     O_R   0.503220 0.801620 0.445520 -0.518486
O24   O     O_3   0.687693 0.965301 0.814500 -0.580190
O25   O     O_3   0.842099 0.967054 0.735158 -0.563202
O26   O     O_3   0.862249 0.640444 0.131214 -0.511637
O27   O     O_3   0.849237 0.558058 0.707470 -0.550449
O28   O     O_2   0.308265 0.399943 0.166949 -0.303828
O29   O     O_2   0.102389 0.526450 0.173804 -0.304330
O30   O     O_3   0.228805 0.533560 0.242779 -0.593633
O31   O     O_3   0.897959 0.871386 0.298054 -0.590443
O32   O     O_3   0.950573 0.149464 0.696698 -0.524427
O33   O     O_2   0.338674 0.906383 0.730806 -0.303254
O34   O     O_R   0.319370 0.022040 0.450020 -0.503316
O35   O     O_2   0.397918 0.039810 0.700740 -0.331260
O36   O     O_3   0.397688 0.010593 0.794672 -0.589070
O37   O     O_3   0.499990 0.000010 0.499990 -0.268709
O38   O     O_R   0.818720 0.150820 0.967160 -0.523787
O39   O     O_R   0.006410 0.181720 0.970200 -0.490413
O40   O     O_R   0.027890 0.334070 0.964920 -0.502659
O41   O     O_R   0.809600 0.521790 0.967960 -0.524651
S1    S     S_3+6 0.602818 0.374496 0.710379 -0.001123
S2    S     S_3+6 0.208661 0.452439 0.201734 -0.052275
S3    S     S_3+6 0.336364 0.016917 0.740996 -0.061164

loop_
_geom_bond_atom_site_label_1
_geom_bond_atom_site_label_2
_ccdc_geom_bond_type
C4    H40   S    
C55   C56   A    
C88   C96   A    
C60   C79   A    
C93   C94   A    
Cr6   O10   S    
C80   C81   A    
C29   C102  S    
C41   C42   A    
C14   C18   S    
Cr1   O17   S    
C19   C20   S    
Cr3   O34   S    
C37   C99   S    
C15   C100  S    
C93   H22   S    
O35   S3    D    
C49   O23   A    
C97   C98   T    
C106  H29   S    
C49   O12   A    
C45   C46   A    
O28   S2    D    
C68   C103  S    
C11   H62   S    
C33   C39   S    
C32   C43   S    
C89   C99   A    
C18   C24   S    
C50   C59   A    
H28   O22   S    
C35   C38   S    
Cr4   O5    S    
C32   H26   S    
Cr4   O6    S    
C87   H10   S    
C107  H31   S    
O33   S3    D    
C86   C88   A    
H51   O30   S    
C22   H12   S    
C106  C107  S    
Cr1   O1    S    
Cr6   O3    S    
Cr5   O7    S    
C43   C76   S    
C33   C36   S    
C65   C73   S    
C56   C57   A    
C60   C62   A    
C34   C35   S    
C42   C46   A    
C105  O5    A    
Cr2   O37   S    
O22   S1    S    
C1    C30   S    
C45   H66   S    
C9    H55   S    
C1    O4    A    
C54   H25   S    
C100  O39   A    
C8    C9    S    
C27   S1    S    
C12   C17   S    
Cr2   O14   S    
C43   C98   S    
C65   C87   S    
C70   C71   A    
Cr6   O11   S    
C8    O31   S    
Cr5   O40   S    
C34   C36   S    
C44   C47   A    
Cr3   O16   S    
C58   H3    S    
C2    C65   S    
C10   H59   S    
C53   C55   A    
C73   O27   S    
C14   H27   S    
C63   C64   A    
C80   H17   S    
C16   C26   T    
H63   O36   S    
C12   C20   S    
Cr1   O18   S    
C69   C70   A    
C103  O6    A    
O21   S1    D    
C2    C21   T    
C104  O8    A    
C78   H13   S    
C67   H7    S    
C32   C54   S    
C76   H21   S    
C25   O1    A    
C38   H56   S    
C85   C87   S    
C34   O25   S    
C68   C78   A    
Cr5   O11   S    
C7    H48   S    
C63   C67   A    
C84   H19   S    
C74   C75   A    
C62   C66   A    
C31   H64   S    
C27   C31   S    
C51   C52   A    
C43   C85   S    
C47   C48   A    
C85   H1    S    
C19   C22   S    
C103  O7    A    
C12   O32   S    
C3    H39   S    
C72   C74   A    
C10   C11   S    
Cr3   O23   S    
C32   C73   S    
C54   C65   S    
C107  H32   S    
C17   H34   S    
C86   H16   S    
C96   H20   S    
C27   C35   S    
Cr6   O2    S    
Cr5   O8    S    
C7    H49   S    
C74   S2    S    
C28   H45   S    
C67   C68   A    
C25   O16   A    
C51   C53   A    
C64   C66   A    
C14   C23   S    
C60   H8    S    
O36   S3    S    
C8    H53   S    
C89   H24   S    
C107  H33   S    
C90   C92   A    
C83   C84   A    
C20   C23   S    
C28   C38   S    
C44   C57   A    
C19   H23   S    
Cr5   O41   S    
C29   C39   T    
Cr2   O13   S    
C31   C33   S    
C50   C51   A    
C3    H38   S    
C31   C34   S    
C30   C40   T    
C37   O18   A    
C94   C96   A    
C75   C77   A    
C76   C87   S    
C73   C85   S    
C6    O27   S    
C6    H47   S    
C8    H52   S    
C108  H36   S    
Cr1   O4    S    
C10   O32   S    
C15   C24   T    
C72   H14   S    
C28   C33   S    
C5    H44   S    
C5    H43   S    
C13   O14   A    
C80   C99   A    
O29   S2    D    
C54   C76   S    
C69   C79   A    
C61   O34   A    
C102  O3    A    
C61   O17   A    
C64   H9    S    
C71   C77   A    
C81   C84   A    
C44   C45   A    
C63   C77   A    
C101  O41   A    
C16   C25   S    
C11   H60   S    
C82   C95   A    
C47   O26   S    
Cr2   O19   S    
C18   C22   S    
C11   H61   S    
C105  O10   A    
C41   H65   S    
C9    H54   S    
C106  H30   S    
C12   C14   S    
C4    C5    S    
C6    H46   S    
C48   C58   A    
C53   H5    S    
C4    O26   S    
C6    C7    S    
C3    C108  S    
C5    H42   S    
Cr3   O37   S    
C7    H50   S    
C3    H37   S    
C50   H6    S    
C49   C59   S    
C17   C18   S    
C46   H2    S    
O30   S2    S    
O20   S1    D    
C36   C38   S    
C35   C40   S    
C83   H18   S    
Cr1   O37   S    
C82   C86   A    
C13   C21   S    
Cr4   O11   S    
C66   H11   S    
C88   C105  S    
C90   C91   A    
C20   C26   S    
C61   C79   S    
C104  O9    A    
Cr2   O12   S    
C92   C93   A    
C17   C19   S    
Cr4   O39   S    
C56   C58   A    
C62   C71   A    
C22   C23   S    
C37   O19   A    
C94   C95   A    
C75   C78   A    
C9    H57   S    
C52   C57   A    
C102  O38   A    
C106  O24   S    
C108  H35   S    
C81   C91   A    
C4    H41   S    
C23   S3    S    
C100  O40   A    
C91   C95   A    
C69   H15   S    
C82   C83   A    
C13   O15   A    
C41   C59   A    
C42   C52   A    
C27   C28   S    
Cr6   O9    S    
Cr4   O38   S    
C1    O13   A    
C92   O31   S    
C70   C72   A    
C36   O24   S    
C89   C90   A    
C10   H58   S    
C97   C101  S    
C101  O2    A    
C108  O25   S    
Cr3   O15   S    
C55   H4    S    
C48   C104  S    
