data_mof_unit_7736.cif
_audit_creation_date              2012-12-10T18:21:23-0500
_audit_creation_method            fapswitch 2.2
_symmetry_space_group_name_H-M    P1
_symmetry_Int_Tables_number       1
_space_group_crystal_system       triclinic
_cell_length_a                    14.981472
_cell_length_b                    14.024528
_cell_length_c                    10.709377
_cell_angle_alpha                 90.548008
_cell_angle_beta                  89.149026
_cell_angle_gamma                 89.023073
_cell_volume                      2249.44288864

loop_
_atom_site_label
_atom_site_type_symbol
_atom_type_description
_atom_site_fract_x
_atom_site_fract_y
_atom_site_fract_z
_atom_type_partial_charge
Br1   Br    Br    0.775205 0.112814 0.447418 -0.424626
Br2   Br    Br    0.776194 0.877238 0.458274 -0.497646
Br3   Br    Br    0.744885 0.355016 0.698938 -0.569609
C1    C     C_R   0.326812 0.501223 0.497740 0.857183
C2    C     C_R   0.049638 0.435679 0.716142 -0.276662
C3    C     C_R   0.094229 0.472515 0.612733 0.072445
C4    C     C_R   0.502244 0.499270 0.257303 0.811438
C5    C     C_R   0.046588 0.496406 0.505387 0.043239
C6    C     C_R   0.092352 0.528153 0.397421 0.146924
C7    C     C_R   0.045055 0.561454 0.294833 -0.208339
C8    C     C_R   0.952555 0.566729 0.300819 -0.194032
C9    C     C_R   0.185547 0.491869 0.616798 0.052103
C10   C     C_R   0.231107 0.504973 0.503084 -0.078548
C11   C     C_R   0.184980 0.526712 0.394798 -0.317183
C12   C     C_3   0.584421 0.438289 0.925258 -0.354728
C13   C     C_R   0.578919 0.796099 0.483406 -0.011191
C14   C     C_R   0.578800 0.200972 0.482408 0.032225
C15   C     C_R   0.422088 0.800350 0.517086 -0.075542
C16   C     C_R   0.422257 0.202645 0.518414 -0.090435
C17   C     C_R   0.421069 0.900748 0.517134 0.049977
C18   C     C_R   0.421162 0.102350 0.517798 0.048497
C19   C     C_R   0.673225 0.498873 0.502760 0.930556
C20   C     C_R   0.501979 0.949441 0.500163 0.041619
C21   C     C_R   0.501989 0.050539 0.500204 0.041286
C22   C     C_R   0.582479 0.896962 0.484090 -0.113234
C23   C     C_R   0.814912 0.538903 0.410991 -0.282641
C24   C     C_R   0.582381 0.099956 0.483109 -0.123643
C25   C     C_R   0.341079 0.953184 0.534244 -0.198654
C26   C     C_R   0.341135 0.053100 0.534674 -0.202669
C27   C     C_R   0.663500 0.047457 0.468357 0.247180
C28   C     C_R   0.663672 0.946415 0.470128 0.220736
C29   C     C_R   0.503784 0.500448 0.742182 0.862927
C30   C     C_3   0.521770 0.602519 0.071605 -0.052911
C31   C     C_3   0.413884 0.459394 0.070082 -0.060511
C32   C     C_3   0.514827 0.604044 0.928917 -0.425735
C33   C     C_3   0.416654 0.461995 0.926572 -0.457514
C34   C     C_R   0.768861 0.495417 0.507461 -0.111238
C35   C     C_3   0.581999 0.432615 0.068826 -0.418552
C36   C     C_3   0.505155 0.497760 0.120419 0.089515
C37   C     C_3   0.505554 0.501229 0.878299 0.105784
C38   C     C_3   0.613447 0.644299 0.111329 -0.390368
C39   C     C_3   0.610808 0.753694 0.114864 -0.383981
C40   C     C_3   0.702552 0.793105 0.143845 -0.794956
C41   C     C_3   0.385008 0.357545 0.114606 -0.377325
C42   C     C_3   0.300923 0.362296 0.197473 -0.376272
C43   C     C_3   0.273005 0.263588 0.240365 -0.827236
C44   C     C_3   0.228992 0.517860 0.739752 -0.448554
C45   C     C_R   0.813245 0.445351 0.602534 0.179977
C46   C     C_3   0.182384 0.606638 0.799273 -0.302314
C47   C     C_3   0.223484 0.635785 0.923025 -0.931607
C48   C     C_3   0.918623 0.399718 0.847078 -0.344199
C49   C     C_3   0.868553 0.483691 0.910837 -0.339793
C50   C     C_3   0.834597 0.455816 0.040182 -0.888619
C51   C     C_R   0.906894 0.454114 0.612479 0.045657
C52   C     C_R   0.953318 0.493562 0.507893 0.000064
C53   C     C_R   0.906761 0.532691 0.405888 0.152661
C54   C     C_R   0.957031 0.426934 0.720034 0.117885
H1    H     H_    0.087589 0.415153 0.796925 0.152671
H2    H     H_    0.278519 0.091903 0.548140 0.149791
H3    H     H_    0.467123 0.649773 0.109945 0.156611
H4    H     H_    0.361598 0.512181 0.101873 0.123662
H5    H     H_    0.455854 0.648517 0.902800 0.163378
H6    H     H_    0.362244 0.509537 0.897728 0.165204
H7    H     H_    0.573793 0.637798 0.884088 0.191469
H8    H     H_    0.404953 0.391757 0.881364 0.181867
H9    H     H_    0.646742 0.454691 0.107582 0.161870
H10   H     H_    0.573736 0.357356 0.097146 0.188724
H11   H     H_    0.648672 0.469443 0.894311 0.191553
H12   H     H_    0.221196 0.545836 0.310445 0.128347
H13   H     H_    0.581049 0.364870 0.885489 0.221332
H14   H     H_    0.778566 0.573076 0.336144 0.138341
H15   H     H_    0.727438 0.762982 0.232522 0.277491
H16   H     H_    0.750728 0.774512 0.067235 0.256716
H17   H     H_    0.697887 0.871951 0.153402 0.272725
H18   H     H_    0.588874 0.781891 0.023465 0.230811
H19   H     H_    0.562414 0.778814 0.188253 0.233854
H20   H     H_    0.633914 0.618975 0.204546 0.208629
H21   H     H_    0.667394 0.619342 0.045821 0.204179
H22   H     H_    0.254240 0.219086 0.158850 0.256483
H23   H     H_    0.079610 0.586403 0.212029 0.147295
H24   H     H_    0.328409 0.227625 0.290124 0.260024
H25   H     H_    0.214525 0.270622 0.304939 0.255492
H26   H     H_    0.314567 0.406650 0.280105 0.240830
H27   H     H_    0.245018 0.395854 0.145610 0.213278
H28   H     H_    0.369508 0.309225 0.035464 0.202102
H29   H     H_    0.438671 0.319052 0.163961 0.229749
H30   H     H_    0.222317 0.575451 0.989448 0.253642
H31   H     H_    0.292988 0.659596 0.907796 0.257879
H32   H     H_    0.184264 0.696233 0.964897 0.260350
H33   H     H_    0.187036 0.667410 0.733664 0.228951
H34   H     H_    0.916720 0.596560 0.222763 0.154333
H35   H     H_    0.110567 0.593460 0.817340 0.228882
H36   H     H_    0.228280 0.456439 0.804307 0.189786
H37   H     H_    0.299563 0.536404 0.723348 0.202099
H38   H     H_    0.788352 0.395081 0.032585 0.284457
H39   H     H_    0.891272 0.434685 0.100217 0.273332
H40   H     H_    0.798857 0.517396 0.084886 0.229229
H41   H     H_    0.914525 0.544626 0.920919 0.216760
H42   H     H_    0.811250 0.507872 0.854159 0.238017
H43   H     H_    0.879142 0.334223 0.842310 0.254184
H44   H     H_    0.972957 0.378302 0.911324 0.182208
H45   H     H_    0.638865 0.753654 0.469124 0.188118
H46   H     H_    0.638550 0.241428 0.468131 0.202706
H47   H     H_    0.360548 0.762310 0.530721 0.143925
H48   H     H_    0.360738 0.242893 0.533119 0.149838
H49   H     H_    0.278428 0.916886 0.547481 0.148757
N1    N     N_R   0.500070 0.750030 0.500050 -0.114131
N2    N     N_R   0.500070 0.249970 0.500050 -0.113114
O1    O     O_R   0.367860 0.580280 0.500020 -0.623673
O2    O     O_R   0.367860 0.419720 0.500020 -0.628406
O3    O     O_R   0.500000 0.580270 0.314790 -0.632187
O4    O     O_R   0.500000 0.419730 0.314790 -0.623509
O5    O     O_R   0.632160 0.580270 0.499960 -0.639735
O6    O     O_R   0.632160 0.419730 0.499960 -0.586436
O7    O     O_R   0.500030 0.580270 0.685200 -0.626327
O8    O     O_R   0.500030 0.419730 0.685200 -0.603420
Zn1   Zn    Zn3+2 0.500020 0.607200 0.499990 0.936571
Zn2   Zn    Zn3+2 0.500020 0.392800 0.499990 0.963620

loop_
_geom_bond_atom_site_label_1
_geom_bond_atom_site_label_2
_ccdc_geom_bond_type
C22   C28   A    
C52   C53   A    
C40   H16   S    
C40   H15   S    
C50   H38   S    
C38   C39   S    
C21   C24   A    
C46   H33   S    
C1    O1    A    
O2    Zn2   S    
O1    Zn1   S    
C44   C46   S    
C42   C43   S    
C49   C50   S    
C45   C51   A    
C9    C10   A    
C39   H18   S    
C30   C36   S    
C2    H1    S    
C2    C3    A    
C25   C26   A    
C16   C18   A    
C38   H20   S    
C27   C28   A    
Br3   C45   S    
C48   H43   S    
C4    O4    A    
C1    C10   S    
C15   N1    A    
C1    O2    A    
C13   N1    A    
C43   H25   S    
C19   O5    A    
C43   H22   S    
C26   H2    S    
C25   H49   S    
C5    C6    A    
O7    Zn1   S    
C20   C21   A    
C32   H7    S    
C48   C54   S    
C33   H6    S    
C6    C7    A    
C31   C33   S    
C47   H31   S    
C16   N2    A    
C40   H17   S    
C29   C37   S    
C10   C11   A    
C24   C27   A    
C23   H14   S    
C42   H26   S    
C9    C44   S    
C41   H29   S    
C5    C52   A    
C4    O3    A    
C48   C49   S    
C14   C24   A    
N2    Zn2   S    
C33   C37   S    
C31   C41   S    
C14   N2    A    
C38   H21   S    
C7    H23   S    
C33   H8    S    
C3    C5    A    
C17   C25   A    
C50   H40   S    
C19   C34   S    
C18   C26   A    
C31   H4    S    
C31   C36   S    
Br2   C28   S    
C6    C11   A    
C12   C35   S    
C43   H24   S    
C47   H32   S    
C17   C20   A    
C44   H36   S    
C15   H47   S    
C29   O8    A    
C34   C45   A    
O6    Zn2   S    
C47   H30   S    
O5    Zn1   S    
C16   H48   S    
C13   H45   S    
C30   H3    S    
C11   H12   S    
C42   H27   S    
C39   C40   S    
C46   H35   S    
C41   H28   S    
C3    C9    A    
C41   C42   S    
C13   C22   A    
C12   H13   S    
C35   H9    S    
C51   C52   A    
C23   C53   A    
C23   C34   A    
C48   H44   S    
C49   H42   S    
C39   H19   S    
C2    C54   A    
O3    Zn1   S    
C30   C38   S    
C32   C37   S    
C14   H46   S    
O4    Zn2   S    
C35   C36   S    
C12   H11   S    
C49   H41   S    
Br1   C27   S    
C30   C32   S    
C44   H37   S    
O8    Zn2   S    
C32   H5    S    
C15   C17   A    
C20   C22   A    
C29   O7    A    
C12   C37   S    
C7    C8    A    
C8    H34   S    
C19   O6    A    
C35   H10   S    
C46   C47   S    
C18   C21   A    
C4    C36   S    
N1    Zn1   S    
C8    C53   A    
C50   H39   S    
C51   C54   A    
