data_mof_unit_30216.cif
_audit_creation_date              2012-12-10T17:20:53-0500
_audit_creation_method            fapswitch 2.2
_symmetry_space_group_name_H-M    P1
_symmetry_Int_Tables_number       1
_space_group_crystal_system       triclinic
_cell_length_a                    14.339575
_cell_length_b                    10.840016
_cell_length_c                    9.613719
_cell_angle_alpha                 88.755493
_cell_angle_beta                  89.772045
_cell_angle_gamma                 94.002175
_cell_volume                      1490.34981117

loop_
_atom_site_label
_atom_site_type_symbol
_atom_type_description
_atom_site_fract_x
_atom_site_fract_y
_atom_site_fract_z
_atom_type_partial_charge
C1    C     C_R   0.499337 0.262732 0.501767 0.778200
C2    C     C_1   0.770481 0.488881 0.500641 -0.149499
C3    C     C_R   0.650164 0.143805 0.641158 -0.178273
C4    C     C_R   0.729622 0.090137 0.687923 -0.155356
C5    C     C_R   0.745271 0.970763 0.650297 -0.167061
C6    C     C_R   0.678434 0.900941 0.574059 -0.020311
C7    C     C_R   0.589524 0.946478 0.547020 0.041230
C8    C     C_R   0.579998 0.074010 0.567675 0.096131
C9    C     C_R   0.503715 0.129693 0.506307 -0.097903
C10   C     C_R   0.433329 0.058955 0.439315 -0.242534
C11   C     C_R   0.435001 0.931321 0.436517 -0.019938
C12   C     C_R   0.331158 0.498893 0.500285 0.823200
C13   C     C_R   0.512212 0.873446 0.491763 -0.147635
C14   C     C_R   0.624433 0.666057 0.139323 -0.124714
C15   C     C_R   0.687819 0.745395 0.066043 -0.182849
C16   C     C_R   0.689801 0.743734 0.922882 -0.205125
C17   C     C_R   0.627385 0.664363 0.852029 -0.128615
C18   C     C_R   0.562016 0.581222 0.923001 0.209226
C19   C     C_R   0.561358 0.581598 0.072300 0.191919
C20   C     C_R   0.441236 0.421999 0.076121 -0.041213
C21   C     C_R   0.441146 0.422180 0.928303 -0.053653
C22   C     C_R   0.507426 0.737944 0.498096 0.789046
C23   C     C_R   0.668380 0.494726 0.500092 0.805091
C24   C     C_1   0.228640 0.496480 0.500811 -0.178305
C25   C     C_1   0.143059 0.493928 0.501056 0.004561
C26   C     C_1   0.042194 0.490814 0.501205 0.011537
C27   C     C_1   0.956628 0.488666 0.501210 0.008377
C28   C     C_1   0.855862 0.487503 0.501028 0.008965
Cu1   Cu    Cu3+1 0.499990 0.499990 0.640660 0.933040
Cu2   Cu    Cu3+1 0.500010 0.500010 0.359340 0.949827
H1    H     H_    0.740201 0.804514 0.866450 0.158454
H2    H     H_    0.633789 0.672113 0.742097 0.194552
H3    H     H_    0.392959 0.358340 0.875027 0.137316
H4    H     H_    0.782801 0.144708 0.743627 0.146616
N1    N     N_R   0.500820 0.501210 0.147910 -0.193112
N2    N     N_R   0.500850 0.501290 0.852040 -0.193397
O1    O     O_R   0.499990 0.319640 0.618810 -0.586244
O2    O     O_R   0.500000 0.319660 0.381240 -0.569365
O3    O     O_R   0.376050 0.499990 0.618810 -0.555504
O4    O     O_R   0.376060 0.500010 0.381240 -0.549975
O5    O     O_R   0.500000 0.680340 0.618760 -0.578838
O6    O     O_R   0.500010 0.680360 0.381190 -0.582856
O7    O     O_R   0.623940 0.499990 0.618760 -0.594108
O8    O     O_R   0.623950 0.500010 0.381190 -0.567033
H5    H     H_    0.375188 0.103609 0.392870 0.141437
H6    H     H_    0.646084 0.240587 0.661891 0.160692
H7    H     H_    0.813107 0.936286 0.671418 0.139586
C29   C     C_1   0.715964 0.809756 0.488241 0.155230
N3    N     N_1   0.750651 0.742036 0.416580 -0.325732
C30   C     C_1   0.355844 0.861440 0.376996 0.257452
N4    N     N_1   0.292543 0.805499 0.329412 -0.277156
H8    H     H_    0.393106 0.357997 0.132984 0.134655
H9    H     H_    0.627575 0.673824 0.248351 0.215982
H10   H     H_    0.735894 0.808395 0.120897 0.173984

loop_
_geom_bond_atom_site_label_1
_geom_bond_atom_site_label_2
_ccdc_geom_bond_type
C12   O4    A    
C6    C7    A    
C11   C13   A    
C9    C10   A    
C12   C24   S    
C3    H6    S    
C1    O1    A    
Cu1   O3    S    
C10   H5    S    
C30   N4    T    
Cu2   O4    S    
C7    C8    A    
C20   H8    S    
C11   C30   S    
C19   N1    A    
C24   C25   T    
C16   H1    S    
C5    H7    S    
Cu1   N2    S    
Cu2   O8    S    
C26   C27   T    
Cu1   Cu2   S    
C6    C29   S    
Cu2   N1    S    
C12   O3    A    
C4    C5    A    
C1    O2    A    
C29   N3    T    
C13   C22   S    
C17   C18   A    
C5    C6    A    
C4    H4    S    
C3    C8    A    
C22   O5    A    
C21   H3    S    
C10   C11   A    
C23   O8    A    
Cu1   O1    S    
C3    C4    A    
C15   H10   S    
C7    C13   A    
C14   H9    S    
C23   O7    A    
C20   C21   A    
Cu2   O2    S    
C18   C19   A    
C22   O6    A    
C2    C23   S    
C21   N2    A    
C17   H2    S    
C14   C15   A    
Cu2   O6    S    
C2    C28   T    
Cu1   O5    S    
C25   C26   S    
C20   N1    A    
C18   N2    A    
C14   C19   A    
Cu1   O7    S    
C1    C9    S    
C15   C16   A    
C16   C17   A    
C8    C9    A    
C27   C28   S    
