data_mof_unit_55029.cif
_audit_creation_date              2012-12-10T17:48:39-0500
_audit_creation_method            fapswitch 2.2
_symmetry_space_group_name_H-M    P1
_symmetry_Int_Tables_number       1
_space_group_crystal_system       triclinic
_cell_length_a                    15.724584
_cell_length_b                    10.641847
_cell_length_c                    9.958469
_cell_angle_alpha                 89.867933
_cell_angle_beta                  90.785728
_cell_angle_gamma                 91.368164
_cell_volume                      1665.80143922

loop_
_atom_site_label
_atom_site_type_symbol
_atom_type_description
_atom_site_fract_x
_atom_site_fract_y
_atom_site_fract_z
_atom_type_partial_charge
C1    C     C_R   0.502513 0.260805 0.500287 0.853966
C2    C     C_3   0.949601 0.490529 0.667223 0.340812
C3    C     C_3   0.916858 0.484762 0.514638 -0.372876
C4    C     C_3   0.952852 0.598212 0.423972 0.104979
C5    C     C_3   0.051860 0.617594 0.438062 0.310959
C6    C     C_1   0.825156 0.489195 0.509906 0.292081
C7    C     C_1   0.174924 0.490408 0.500071 0.278865
C8    C     C_1   0.250144 0.495262 0.497680 0.002240
C9    C     C_R   0.640666 0.134901 0.639511 -0.141844
C10   C     C_R   0.704734 0.070945 0.707103 -0.044188
C11   C     C_R   0.705733 0.940391 0.704228 -0.057115
C12   C     C_R   0.338703 0.499654 0.499182 0.876945
C13   C     C_R   0.642016 0.873083 0.634994 -0.182323
C14   C     C_R   0.574867 0.936242 0.569472 0.082658
C15   C     C_R   0.574449 0.068060 0.570927 0.087466
C16   C     C_R   0.508378 0.128564 0.500573 -0.075018
C17   C     C_R   0.446045 0.062510 0.427441 -0.206519
C18   C     C_R   0.446116 0.934088 0.426973 -0.176208
C19   C     C_R   0.508685 0.871852 0.499253 -0.087749
C20   C     C_R   0.387064 0.338463 0.137735 -0.127810
C21   C     C_R   0.331042 0.259216 0.066962 -0.123631
C22   C     C_R   0.331422 0.258379 0.927973 -0.136976
C23   C     C_R   0.502494 0.739307 0.499843 0.866216
C24   C     C_R   0.387661 0.336995 0.858812 -0.110095
C25   C     C_R   0.444557 0.420022 0.926932 0.163183
C26   C     C_R   0.444413 0.420387 0.071246 0.160279
C27   C     C_R   0.553287 0.576048 0.072291 -0.079403
C28   C     C_R   0.553229 0.576078 0.929488 -0.079903
C29   C     C_R   0.661400 0.500027 0.500991 0.860947
C30   C     C_3   0.052028 0.475875 0.664321 0.311366
C31   C     C_3   0.046466 0.364133 0.413308 0.448485
C32   C     C_3   0.949493 0.354780 0.454278 0.007710
C33   C     C_1   0.749974 0.494908 0.504688 -0.016455
C34   C     C_3   0.083889 0.486940 0.504479 -0.411331
H1    H     H_    0.943206 0.559867 0.324123 0.192533
H2    H     H_    0.396074 0.110634 0.373267 0.152217
H3    H     H_    0.644338 0.236398 0.640749 0.175108
H4    H     H_    0.754081 0.122814 0.761164 0.209389
H5    H     H_    0.756346 0.891149 0.755024 0.189158
H6    H     H_    0.646630 0.771931 0.632354 0.152914
H7    H     H_    0.396122 0.882837 0.372687 0.166248
H8    H     H_    0.596928 0.638374 0.126354 0.161907
H9    H     H_    0.383783 0.332521 0.244208 0.201692
H10   H     H_    0.287400 0.197540 0.120507 0.191183
H11   H     H_    0.288164 0.195891 0.873178 0.179987
H12   H     H_    0.384882 0.329418 0.752320 0.204888
H13   H     H_    0.596805 0.638440 0.876896 0.153682
H14   H     H_    0.951154 0.289854 0.537732 0.216600
N1    N     N_R   0.499210 0.498800 0.142780 -0.123802
N2    N     N_R   0.499180 0.498720 0.857170 -0.123778
O1    O     O_R   0.500000 0.316780 0.614690 -0.655642
O2    O     O_R   0.499990 0.316750 0.385360 -0.625064
O3    O     O_R   0.377150 0.500020 0.614720 -0.597053
O4    O     O_R   0.377140 0.499990 0.385380 -0.633543
O5    O     O_R   0.500010 0.683250 0.614640 -0.612938
O6    O     O_R   0.500000 0.683220 0.385310 -0.612435
O7    O     O_R   0.622860 0.500010 0.614620 -0.612192
O8    O     O_R   0.622850 0.499980 0.385280 -0.598348
Zn1   Zn    Zn3+2 0.500010 0.500020 0.653130 0.969764
Zn2   Zn    Zn3+2 0.499990 0.499980 0.346870 0.973230
S1    S     S_3+6 0.891608 0.376101 0.776564 0.059604
O9    O     O_2   0.897056 0.240630 0.736240 -0.289430
O10   O     O_2   0.926208 0.388319 0.917315 -0.159957
O11   O     O_3   0.787552 0.409605 0.781409 -0.579945
H15   H     H_    0.764217 0.357994 0.855810 0.383534
S2    S     S_3+6 0.110670 0.570933 0.794968 0.131473
O12   O     O_2   0.089829 0.518299 0.930946 -0.179884
O13   O     O_2   0.204805 0.558099 0.776648 -0.288357
O14   O     O_3   0.091821 0.724243 0.811974 -0.424255
H16   H     H_    0.131331 0.754210 0.884019 0.394184
I1    I     I_    0.903559 0.656344 0.769215 0.048152
I2    I     I_    0.090980 0.297343 0.758784 -0.006654
S3    S     S_3+6 0.055528 0.369810 0.226653 0.145598
O15   O     O_2   0.001292 0.463558 0.155946 -0.217045
O16   O     O_2   0.147530 0.392753 0.192446 -0.288498
O17   O     O_3   0.025843 0.232884 0.153462 -0.368078
H17   H     H_    0.052403 0.234645 0.063907 0.404101
S4    S     S_3+6 0.102437 0.212561 0.447075 0.100904
O18   O     O_2   0.047411 0.123425 0.527326 -0.187415
O19   O     O_2   0.124486 0.143403 0.321411 -0.209921
O20   O     O_3   0.196883 0.233618 0.526464 -0.617237
H18   H     H_    0.218502 0.147939 0.541427 0.375136
S5    S     S_3+6 0.874962 0.265825 0.346793 0.145831
O21   O     O_2   0.911673 0.141251 0.311951 -0.077573
O22   O     O_2   0.794291 0.237904 0.421662 -0.317454
O23   O     O_3   0.850668 0.343933 0.204934 -0.435127
H19   H     H_    0.813615 0.412705 0.233170 0.360909
S6    S     S_3+6 0.085483 0.767339 0.518647 0.143665
O24   O     O_2   0.021744 0.815239 0.614359 -0.119518
O25   O     O_2   0.170438 0.753600 0.587456 -0.309177
O26   O     O_3   0.097421 0.887006 0.408444 -0.403087
H20   H     H_    0.157840 0.915043 0.415988 0.373545
I3    I     I_    0.113645 0.666085 0.245836 -0.021543
S7    S     S_3+6 0.888580 0.736380 0.391266 0.107333
O27   O     O_2   0.858950 0.799148 0.516250 -0.248661
O28   O     O_2   0.937768 0.830622 0.308818 -0.127353
O29   O     O_3   0.802476 0.690758 0.299991 -0.598487
H21   H     H_    0.767103 0.766348 0.293043 0.385269

loop_
_geom_bond_atom_site_label_1
_geom_bond_atom_site_label_2
_ccdc_geom_bond_type
S2    O13   D    
C24   C25   A    
C28   H13   S    
O5    Zn1   S    
C32   H14   S    
S3    O15   D    
C27   H8    S    
C3    C6    S    
O29   H21   S    
O3    Zn1   S    
C7    C8    T    
O4    Zn2   S    
N1    Zn2   S    
N2    Zn1   S    
O14   H16   S    
C11   H5    S    
S4    O19   D    
O7    Zn1   S    
S2    O14   S    
O8    Zn2   S    
C15   C16   A    
C29   C33   S    
C18   C19   A    
S1    O10   D    
C25   N2    A    
C13   H6    S    
O2    Zn2   S    
C5    S6    S    
C28   N2    A    
S5    O21   D    
C16   C17   A    
C17   H2    S    
C9    C10   A    
C12   O3    A    
C2    S1    S    
S6    O24   D    
S2    O12   D    
C4    H1    S    
C21   C22   A    
S3    O16   D    
S1    O9    D    
O20   H18   S    
C30   C34   S    
C23   O6    A    
O17   H17   S    
C18   H7    S    
O26   H20   S    
O23   H19   S    
S7    O29   S    
C25   C26   A    
C3    C4    S    
O6    Zn2   S    
S1    O11   S    
C19   C23   S    
C21   H10   S    
C30   I2    S    
C31   C32   S    
S6    O26   S    
C8    C12   S    
C5    C34   S    
S5    O23   S    
C9    H3    S    
C17   C18   A    
C31   C34   S    
S7    O27   D    
C1    C16   S    
C29   O8    A    
S7    O28   D    
C1    O1    A    
C30   S2    S    
C4    S7    S    
S5    O22   D    
S6    O25   D    
C7    C34   S    
C22   C24   A    
C26   N1    A    
O1    Zn1   S    
C2    I1    S    
C20   H9    S    
C31   S4    S    
C32   S5    S    
S4    O18   D    
C14   C19   A    
C29   O7    A    
C4    C5    S    
C5    I3    S    
C23   O5    A    
C6    C33   T    
C2    C30   S    
C10   H4    S    
C24   H12   S    
O11   H15   S    
C2    C3    S    
C9    C15   A    
C11   C13   A    
S4    O20   S    
C20   C26   A    
S3    O17   S    
C3    C32   S    
C1    O2    A    
C31   S3    S    
C10   C11   A    
C22   H11   S    
C20   C21   A    
C27   C28   A    
C14   C15   A    
C13   C14   A    
C12   O4    A    
C27   N1    A    
