data_mof_unit_10471.cif
_audit_creation_date              2012-12-10T19:59:41-0500
_audit_creation_method            fapswitch 2.2
_symmetry_space_group_name_H-M    P1
_symmetry_Int_Tables_number       1
_space_group_crystal_system       triclinic
_cell_length_a                    18.254624
_cell_length_b                    18.396707
_cell_length_c                    36.263823
_cell_angle_alpha                 89.979942
_cell_angle_beta                  89.851898
_cell_angle_gamma                 90.026845
_cell_volume                      12178.2544663

loop_
_atom_site_label
_atom_site_type_symbol
_atom_type_description
_atom_site_fract_x
_atom_site_fract_y
_atom_site_fract_z
_atom_type_partial_charge
C1    C     C_R   0.500142 0.999866 0.901122 0.853012
C2    C     C_R   0.461953 0.056431 0.730833 -0.022275
C3    C     C_R   0.302023 0.752541 0.534455 0.299440
C4    C     C_3   0.121576 0.814291 0.002544 0.265097
C5    C     C_3   0.331097 0.266808 0.945161 0.136998
C6    C     C_3   0.721886 0.339885 0.949911 0.190111
C7    C     C_3   0.766764 0.833406 0.941244 0.199434
C8    C     C_3   0.274040 0.328269 0.945476 0.189790
C9    C     C_3   0.181045 0.874997 0.003688 0.133739
C10   C     C_3   0.815199 0.765344 0.937401 0.208331
C11   C     C_3   0.662233 0.280587 0.949097 0.186668
C12   C     C_3   0.641825 0.293705 0.456349 0.215228
C13   C     C_R   0.016902 0.435304 0.730705 -0.041033
C14   C     C_3   0.833983 0.772222 0.445333 0.128592
C15   C     C_3   0.228886 0.833320 0.446356 0.193040
C16   C     C_3   0.211517 0.275006 0.433037 0.179846
C17   C     C_3   0.774835 0.831957 0.445328 0.189924
C18   C     C_3   0.706705 0.346820 0.451604 0.132833
C19   C     C_3   0.260308 0.207272 0.434799 0.105426
C20   C     C_3   0.169098 0.774216 0.445740 0.187841
C21   C     C_R   0.022634 0.437276 0.769730 0.371405
C22   C     C_R   0.548888 0.953764 0.769666 0.398407
C23   C     C_R   0.974506 0.562888 0.769593 0.380031
C24   C     C_R   0.543755 0.949765 0.730667 -0.042341
C25   C     C_R   0.457872 0.053263 0.769925 0.287184
C26   C     C_R   0.505492 0.933726 0.269679 0.291720
C27   C     C_R   0.049161 0.456232 0.269917 0.317166
C28   C     C_R   0.492840 0.067756 0.269481 0.387590
C29   C     C_R   0.951415 0.549161 0.269344 0.299680
C30   C     C_R   0.998637 0.500203 0.788781 -0.189509
C31   C     C_R   0.502969 0.003015 0.788909 -0.189178
C32   C     C_R   0.499387 0.000836 0.288774 -0.195943
C33   C     C_R   0.000249 0.503139 0.288770 -0.181182
C34   C     C_3   0.493442 0.862660 0.208936 -0.334551
C35   C     C_R   0.498529 0.000274 0.211338 0.007167
C36   C     C_3   0.567322 0.839311 0.192269 -0.335089
C37   C     C_3   0.563041 0.762555 0.176520 -0.635151
C38   C     C_3   0.082177 0.388683 0.210307 -0.324164
C39   C     C_3   0.154285 0.413851 0.192361 -0.348786
C40   C     C_3   0.202769 0.349116 0.182306 -0.668451
C41   C     C_3   0.500009 0.137977 0.208131 -0.327679
C42   C     C_3   0.424887 0.157788 0.191845 -0.316654
C43   C     C_3   0.426569 0.232783 0.173880 -0.718620
C44   C     C_3   0.914730 0.608795 0.207910 -0.327714
C45   C     C_3   0.843472 0.578761 0.191250 -0.357669
C46   C     C_R   0.999523 0.499730 0.211440 0.013841
C47   C     C_3   0.799532 0.638731 0.172445 -0.648219
C48   C     C_3   0.027025 0.364778 0.709273 -0.326063
C49   C     C_3   0.105017 0.358027 0.693517 -0.324389
C50   C     C_3   0.121135 0.280277 0.681276 -0.639026
C51   C     C_3   0.580059 0.888266 0.709149 -0.315422
C52   C     C_3   0.653057 0.912368 0.691729 -0.339860
C53   C     C_3   0.699536 0.846968 0.680539 -0.706471
C54   C     C_3   0.969766 0.634596 0.708828 -0.332426
C55   C     C_3   0.892206 0.639854 0.692580 -0.296961
C56   C     C_3   0.876901 0.716066 0.677844 -0.711417
C57   C     C_R   0.998901 0.499806 0.711422 0.004217
C58   C     C_3   0.425379 0.117529 0.709294 -0.319647
C59   C     C_3   0.350056 0.094220 0.694550 -0.335598
C60   C     C_3   0.303851 0.159941 0.683780 -0.649536
C61   C     C_R   0.502085 0.002554 0.711540 0.009508
C62   C     C_1   0.998983 0.500331 0.828614 0.217487
C63   C     C_1   0.501774 0.001661 0.828650 0.167250
C64   C     C_1   0.499457 0.000674 0.328565 0.161387
C65   C     C_R   0.999826 0.500033 0.901180 0.850205
C66   C     C_1   0.999921 0.502959 0.328567 0.115000
C67   C     C_1   0.499087 0.999975 0.171405 -0.021730
C68   C     C_1   0.999966 0.498729 0.171524 -0.016448
C69   C     C_1   0.999543 0.499761 0.671478 -0.015532
C70   C     C_1   0.500694 0.001525 0.671598 -0.013115
C71   C     C_1   0.499598 0.999931 0.138227 -0.147012
C72   C     C_1   0.999950 0.498909 0.138339 -0.165125
C73   C     C_1   0.999904 0.499869 0.638282 -0.150816
C74   C     C_1   0.499986 0.000741 0.638397 -0.162990
C75   C     C_1   0.999390 0.500168 0.861799 -0.013512
C76   C     C_R   0.000047 0.500137 0.401099 0.833663
C77   C     C_1   0.500742 0.000669 0.861802 -0.017397
C78   C     C_1   0.499605 0.000237 0.361776 -0.002813
C79   C     C_1   0.000038 0.501750 0.361742 -0.040437
C80   C     C_R   0.500082 0.999978 0.098826 0.873145
C81   C     C_R   0.999951 0.499682 0.098924 0.838831
C82   C     C_R   0.000091 0.499975 0.598845 0.842006
C83   C     C_R   0.499939 0.000068 0.598945 0.850518
C84   C     C_R   0.642375 0.862195 0.001481 0.888562
C85   C     C_R   0.141690 0.638333 0.999121 0.968913
C86   C     C_R   0.358112 0.138286 0.001275 0.967305
C87   C     C_R   0.499894 0.000032 0.401172 0.863392
C88   C     C_R   0.861284 0.358543 0.001172 0.996647
C89   C     C_R   0.640073 0.140233 0.999682 0.991784
C90   C     C_R   0.140530 0.360241 0.999788 1.001195
C91   C     C_R   0.360501 0.859564 0.999515 1.019189
C92   C     C_R   0.857735 0.638616 0.999100 0.952296
C93   C     C_R   0.140909 0.360697 0.500133 0.921506
C94   C     C_R   0.638514 0.141868 0.501720 0.884040
C95   C     C_R   0.859672 0.639877 0.499913 0.993704
C96   C     C_R   0.361163 0.858692 0.501039 0.992911
C97   C     C_R   0.140164 0.640235 0.499771 0.988488
C98   C     C_R   0.496609 0.067447 0.230328 -0.033775
C99   C     C_R   0.639998 0.859581 0.500259 0.975520
C100  C     C_R   0.861393 0.358299 0.498868 0.927682
C101  C     C_R   0.359231 0.139947 0.500453 0.935148
C102  C     C_R   0.235249 0.815180 0.998296 -0.083660
C103  C     C_R   0.229730 0.281171 0.970682 -0.022201
C104  C     C_R   0.713607 0.234820 0.971250 -0.015037
C105  C     C_R   0.811478 0.757492 0.978802 0.017948
C106  C     C_R   0.281182 0.226796 0.971028 -0.093175
C107  C     C_R   0.184088 0.762954 0.997351 -0.095662
C108  C     C_R   0.763502 0.815298 0.981373 -0.022651
C109  C     C_R   0.955257 0.551153 0.230206 -0.017854
C110  C     C_R   0.766552 0.287608 0.971998 -0.012475
C111  C     C_R   0.734599 0.319660 0.488128 0.011501
C112  C     C_R   0.731142 0.783536 0.470284 -0.003400
C113  C     C_R   0.217660 0.730701 0.470622 -0.012584
C114  C     C_R   0.289709 0.235759 0.470677 0.044255
C115  C     C_R   0.784018 0.730671 0.470303 -0.094350
C116  C     C_R   0.678863 0.269530 0.490892 -0.030788
C117  C     C_R   0.240666 0.292762 0.470507 -0.003504
C118  C     C_R   0.270427 0.783672 0.471325 -0.007893
C119  C     C_R   0.309214 0.800306 0.996214 -0.202321
C120  C     C_R   0.500154 0.933419 0.230612 -0.012231
C121  C     C_R   0.191821 0.300187 0.002377 -0.288703
C122  C     C_R   0.700593 0.191052 0.001728 -0.290011
C123  C     C_R   0.801092 0.694890 0.000232 -0.302202
C124  C     C_R   0.298316 0.190264 0.003458 -0.292488
C125  C     C_R   0.201438 0.689998 0.996991 -0.188961
C126  C     C_R   0.704304 0.812970 0.005902 -0.300578
C127  C     C_R   0.808661 0.299521 0.003209 -0.301833
C128  C     C_R   0.805476 0.302048 0.499521 -0.293294
C129  C     C_R   0.692544 0.800170 0.502220 -0.267431
C130  C     C_R   0.200700 0.691142 0.502110 -0.298411
C131  C     C_R   0.043970 0.450036 0.231039 -0.025281
C132  C     C_R   0.303253 0.196400 0.502695 -0.303245
C133  C     C_R   0.799254 0.690699 0.501807 -0.266273
C134  C     C_R   0.690640 0.201408 0.506943 -0.268233
C135  C     C_R   0.202272 0.310958 0.502549 -0.298362
C136  C     C_R   0.309104 0.799315 0.503231 -0.296553
C137  C     C_R   0.331395 0.726708 0.990780 0.288276
C138  C     C_R   0.198724 0.257052 0.034729 0.342519
C139  C     C_R   0.750843 0.192005 0.031683 0.333254
C140  C     C_R   0.743634 0.694063 0.027090 0.329843
C141  C     C_R   0.254687 0.201985 0.035825 0.293922
C142  C     C_R   0.980371 0.564414 0.730533 -0.042387
C143  C     C_R   0.277294 0.669808 0.994277 0.316971
C144  C     C_R   0.703669 0.758531 0.033404 0.299625
C145  C     C_R   0.804704 0.249149 0.033160 0.292581
C146  C     C_R   0.817566 0.235122 0.518152 0.305080
C147  C     C_R   0.698578 0.753715 0.533604 0.333390
C148  C     C_R   0.246719 0.696717 0.533727 0.331683
C149  C     C_R   0.267289 0.216491 0.536383 0.329026
C150  C     C_R   0.751040 0.695329 0.532619 0.326639
C151  C     C_R   0.756725 0.191162 0.527095 0.327039
C152  C     C_R   0.223680 0.280462 0.536604 0.349084
H1    H     H_    0.087231 0.817408 0.977399 0.128446
H2    H     H_    0.884809 0.789574 0.459726 0.080215
H3    H     H_    0.250136 0.141116 0.673182 0.270300
H4    H     H_    0.357276 0.058875 0.669976 0.237080
H5    H     H_    0.319729 0.062271 0.715650 0.263733
H6    H     H_    0.421399 0.167467 0.726272 0.264321
H7    H     H_    0.460612 0.134547 0.685782 0.201793
H8    H     H_    0.007248 0.282225 0.831701 0.410685
H9    H     H_    0.602024 0.790214 0.820090 0.402041
H10   H     H_    0.989461 0.730619 0.822938 0.408275
H11   H     H_    0.484510 0.170957 0.825274 0.365839
H12   H     H_    0.405753 0.853873 0.315789 0.356372
H13   H     H_    0.210652 0.883491 0.460820 0.061118
H14   H     H_    0.042874 0.344964 0.331507 0.349659
H15   H     H_    0.556562 0.239397 0.308570 0.404842
H16   H     H_    0.969659 0.673655 0.320895 0.373012
H17   H     H_    0.152016 0.262000 0.433426 0.047264
H18   H     H_    0.793222 0.882111 0.459726 0.082941
H19   H     H_    0.743540 0.330016 0.428654 0.055125
H20   H     H_    0.227088 0.157255 0.439257 0.057467
H21   H     H_    0.118156 0.791765 0.460089 0.063366
H22   H     H_    0.516110 0.769667 0.954947 0.365280
H23   H     H_    0.130666 0.374881 0.106123 0.367103
H24   H     H_    0.688438 0.115858 0.119326 0.379975
H25   H     H_    0.383211 0.282971 0.958731 0.088041
H26   H     H_    0.706160 0.498595 0.029820 0.381758
H27   H     H_    0.343268 0.071203 0.100508 0.375318
H28   H     H_    0.282542 0.492200 0.038690 0.384777
H29   H     H_    0.722490 0.877345 0.085934 0.371476
H30   H     H_    0.935954 0.335767 0.097968 0.380944
H31   H     H_    0.011398 0.213008 0.494572 0.376993
H32   H     H_    0.626580 0.873405 0.603943 0.364144
H33   H     H_    0.174602 0.645336 0.624098 0.378716
H34   H     H_    0.253810 0.040870 0.582912 0.386413
H35   H     H_    0.811685 0.526674 0.579653 0.366499
H36   H     H_    0.705141 0.387996 0.966489 0.077508
H37   H     H_    0.684272 0.096282 0.608083 0.380545
H38   H     H_    0.173192 0.437774 0.592818 0.379392
H39   H     H_    0.439470 0.837589 0.596807 0.377515
H40   H     H_    0.087744 0.743171 0.096126 0.379099
H41   H     H_    0.265694 0.130863 0.906887 0.364808
H42   H     H_    0.848979 0.317869 0.871597 0.396761
H43   H     H_    0.909081 0.976160 0.946965 0.393993
H44   H     H_    0.160048 0.446894 0.891317 0.384581
H45   H     H_    0.251877 0.013837 0.019488 0.355837
H46   H     H_    0.983290 0.699127 0.894207 0.382838
H47   H     H_    0.712810 0.827356 0.927418 0.071996
H48   H     H_    0.562073 0.153163 0.890886 0.376919
H49   H     H_    0.505416 0.414625 0.500231 0.402939
H50   H     H_    0.771633 0.637497 0.405089 0.388521
H51   H     H_    0.375642 0.802967 0.379949 0.396244
H52   H     H_    0.330812 0.405698 0.384360 0.409417
H53   H     H_    0.650816 0.938532 0.388506 0.379620
H54   H     H_    0.763457 0.464713 0.404704 0.354391
H55   H     H_    0.314655 0.074598 0.398833 0.361340
H56   H     H_    0.067939 0.647386 0.388062 0.380621
H57   H     H_    0.547422 0.723197 0.198408 0.267855
H58   H     H_    0.294485 0.377660 0.959857 0.113613
H59   H     H_    0.522184 0.760296 0.153902 0.276723
H60   H     H_    0.617377 0.746632 0.165421 0.287266
H61   H     H_    0.583506 0.877103 0.169803 0.248089
H62   H     H_    0.611045 0.841126 0.213473 0.270384
H63   H     H_    0.469746 0.818745 0.226140 0.265713
H64   H     H_    0.452731 0.869155 0.186430 0.203143
H65   H     H_    0.221942 0.321129 0.207636 0.285103
H66   H     H_    0.171992 0.309621 0.165150 0.295134
H67   H     H_    0.251387 0.368246 0.166597 0.264800
H68   H     H_    0.142288 0.445281 0.166946 0.222935
H69   H     H_    0.179036 0.911604 0.979316 0.081266
H70   H     H_    0.185090 0.450211 0.211234 0.272506
H71   H     H_    0.091267 0.341379 0.228691 0.266441
H72   H     H_    0.045382 0.366832 0.188579 0.195841
H73   H     H_    0.441738 0.274854 0.194459 0.274061
H74   H     H_    0.466707 0.233602 0.150805 0.265736
H75   H     H_    0.371520 0.246075 0.162856 0.280708
H76   H     H_    0.408584 0.117283 0.170716 0.229637
H77   H     H_    0.382219 0.157342 0.213709 0.274407
H78   H     H_    0.521674 0.183576 0.224764 0.266169
H79   H     H_    0.540678 0.132561 0.185428 0.200608
H80   H     H_    0.785527 0.720234 0.923471 0.091093
H81   H     H_    0.784154 0.681418 0.192690 0.271829
H82   H     H_    0.832126 0.663609 0.149808 0.271528
H83   H     H_    0.748635 0.615436 0.160607 0.282697
H84   H     H_    0.856080 0.536157 0.170524 0.239063
H85   H     H_    0.809105 0.553277 0.212995 0.271160
H86   H     H_    0.903721 0.658015 0.224604 0.266455
H87   H     H_    0.950662 0.629154 0.185363 0.195632
H88   H     H_    0.119352 0.242770 0.705260 0.268094
H89   H     H_    0.080312 0.262242 0.660552 0.287514
H90   H     H_    0.176687 0.277616 0.668838 0.285143
H91   H     H_    0.612789 0.296033 0.965281 0.068859
H92   H     H_    0.111402 0.394821 0.669423 0.231530
H93   H     H_    0.146231 0.374413 0.714418 0.269560
H94   H     H_    0.012303 0.317224 0.726540 0.260768
H95   H     H_    0.987039 0.361872 0.686255 0.204465
H96   H     H_    0.717466 0.816462 0.705354 0.283858
H97   H     H_    0.667669 0.809939 0.662543 0.292665
H98   H     H_    0.748916 0.865698 0.665318 0.267863
H99   H     H_    0.642249 0.945948 0.666882 0.219511
H100  H     H_    0.684897 0.946296 0.711322 0.274054
H101  H     H_    0.587650 0.839646 0.726785 0.268855
H102  H     H_    0.640860 0.250570 0.434896 0.084733
H103  H     H_    0.542800 0.868712 0.687067 0.194543
H104  H     H_    0.882933 0.757013 0.700135 0.274107
H105  H     H_    0.915300 0.729273 0.654991 0.265363
H106  H     H_    0.819929 0.718914 0.667347 0.282522
H107  H     H_    0.885971 0.600300 0.669672 0.233126
H108  H     H_    0.850459 0.626208 0.713808 0.270948
H109  H     H_    0.982746 0.682657 0.726029 0.261556
H110  H     H_    0.010567 0.637916 0.686081 0.197055
H111  H     H_    0.293761 0.195285 0.708079 0.275647
H112  H     H_    0.332059 0.192170 0.662099 0.298783
O1    O     O_3   0.500000 0.000000 0.000000 -0.543108
O2    O     O_R   0.500000 0.939300 0.418540 -0.594470
O3    O     O_3   0.412949 0.837981 0.573006 -0.562138
O4    O     O_2   0.030713 0.860434 0.057217 -0.172365
O5    O     O_2   0.011337 0.738354 0.033001 -0.326678
O6    O     O_3   0.122060 0.758172 0.076335 -0.496919
O7    O     O_2   0.373910 0.265424 0.873523 -0.112468
O8    O     O_2   0.406167 0.160744 0.911069 -0.316386
O9    O     O_3   0.271421 0.172210 0.889613 -0.402824
O10   O     O_2   0.715688 0.390219 0.879565 -0.175313
O11   O     O_2   0.819151 0.428261 0.917479 -0.336703
O12   O     O_3   0.820120 0.296687 0.892128 -0.456614
O13   O     O_R   0.060700 0.500000 0.418540 -0.580340
O14   O     O_2   0.816476 0.934675 0.893086 -0.188091
O15   O     O_2   0.758494 0.980336 0.948889 -0.221023
O16   O     O_3   0.889009 0.928624 0.954909 -0.452065
O17   O     O_2   0.276715 0.376042 0.874821 -0.175543
O18   O     O_2   0.179604 0.288640 0.890749 -0.158949
O19   O     O_3   0.167989 0.420763 0.914843 -0.565258
O20   O     O_2   0.130939 0.968521 0.055773 -0.160404
O21   O     O_2   0.215231 0.873307 0.076894 -0.171989
O22   O     O_3   0.268265 0.980063 0.039064 -0.539468
O23   O     O_2   0.910446 0.824841 0.887463 -0.209171
O24   O     O_R   0.500000 0.060700 0.418540 -0.574542
O25   O     O_2   0.958631 0.798245 0.949260 -0.237786
O26   O     O_3   0.933620 0.691334 0.904549 -0.489388
O27   O     O_2   0.603690 0.292010 0.880852 -0.194240
O28   O     O_2   0.704097 0.204020 0.888143 -0.171802
O29   O     O_3   0.576861 0.171812 0.915383 -0.565901
O30   O     O_2   0.518499 0.358621 0.431565 -0.185349
O31   O     O_2   0.504052 0.270144 0.481121 -0.253687
O32   O     O_3   0.556124 0.395842 0.498306 -0.446617
O33   O     O_2   0.883097 0.772413 0.374767 -0.133924
O34   O     O_2   0.912055 0.666821 0.412383 -0.327314
O35   O     O_R   0.500000 0.939270 0.081460 -0.593619
O36   O     O_3   0.779469 0.678642 0.387900 -0.380166
O37   O     O_2   0.232015 0.874582 0.374285 -0.189877
O38   O     O_2   0.330568 0.916838 0.414177 -0.372382
O39   O     O_3   0.333294 0.781971 0.393349 -0.437139
O40   O     O_2   0.220057 0.318618 0.361815 -0.149385
O41   O     O_2   0.186952 0.410364 0.407177 -0.236128
O42   O     O_3   0.322502 0.370180 0.404474 -0.439827
O43   O     O_2   0.777991 0.876027 0.373957 -0.191924
O44   O     O_2   0.681250 0.788981 0.390960 -0.139215
O45   O     O_3   0.668733 0.922362 0.412924 -0.597462
O46   O     O_R   0.060730 0.500000 0.081460 -0.634413
O47   O     O_2   0.623431 0.462814 0.429382 -0.187072
O48   O     O_2   0.684413 0.473148 0.489343 -0.155411
O49   O     O_3   0.762685 0.484529 0.430094 -0.490539
O50   O     O_2   0.301328 0.200217 0.362356 -0.166986
O51   O     O_2   0.394938 0.240190 0.406429 -0.115177
O52   O     O_3   0.357808 0.104397 0.405544 -0.531582
O53   O     O_2   0.118940 0.779330 0.375652 -0.205905
O54   O     O_2   0.215957 0.690029 0.388384 -0.157138
O55   O     O_3   0.084923 0.663884 0.412592 -0.560007
O56   O     O_2   0.104267 0.311136 0.773280 -0.261495
O57   O     O_R   0.500000 0.060730 0.081460 -0.609212
O58   O     O_2   0.103711 0.388977 0.827190 -0.264709
O59   O     O_3   0.985991 0.315283 0.813008 -0.535082
O60   O     O_2   0.677856 0.878075 0.772664 -0.278172
O61   O     O_2   0.635886 0.932267 0.829871 -0.259547
O62   O     O_3   0.566427 0.819028 0.805598 -0.534163
O63   O     O_2   0.889015 0.685860 0.772934 -0.281348
O64   O     O_2   0.898048 0.613681 0.828693 -0.248120
O65   O     O_3   0.011345 0.689574 0.809094 -0.545159
O66   O     O_2   0.333522 0.137064 0.774195 -0.232412
O67   O     O_2   0.371940 0.078531 0.830558 -0.235643
O68   O     O_R   0.939270 0.500000 0.081460 -0.595976
O69   O     O_3   0.448232 0.188016 0.806940 -0.447652
O70   O     O_2   0.561085 0.795828 0.273745 -0.224776
O71   O     O_2   0.554627 0.861885 0.331292 -0.245860
O72   O     O_3   0.433295 0.814766 0.303105 -0.487928
O73   O     O_2   0.181371 0.385236 0.273017 -0.234281
O74   O     O_2   0.142850 0.449259 0.327977 -0.224153
O75   O     O_3   0.076156 0.328952 0.311488 -0.488943
O76   O     O_2   0.430463 0.201802 0.274635 -0.272205
O77   O     O_2   0.454681 0.141482 0.332779 -0.207417
O78   O     O_3   0.565426 0.192212 0.296190 -0.549867
O79   O     O_R   0.000000 0.439270 0.581460 -0.606917
O80   O     O_2   0.819937 0.620644 0.272960 -0.232054
O81   O     O_2   0.865732 0.571866 0.330394 -0.242864
O82   O     O_3   0.930038 0.685668 0.303298 -0.447144
O83   O     O_R   0.560730 0.000000 0.581460 -0.632983
O84   O     O_R   0.000000 0.560730 0.581460 -0.606678
O85   O     O_3   0.000000 0.500000 0.000000 -0.549798
O86   O     O_R   0.439270 0.000000 0.581460 -0.594152
O87   O     O_R   0.646180 0.914510 0.978640 -0.612831
O88   O     O_R   0.085490 0.646180 0.978640 -0.631811
O89   O     O_R   0.353820 0.085490 0.978640 -0.637395
O90   O     O_R   0.914510 0.353820 0.978640 -0.592498
O91   O     O_R   0.646180 0.085490 0.978640 -0.549957
O92   O     O_R   0.085490 0.353820 0.978640 -0.582775
O93   O     O_R   0.353820 0.914510 0.978640 -0.648613
O94   O     O_R   0.914510 0.646180 0.978640 -0.569312
O95   O     O_R   0.146180 0.414510 0.478640 -0.587279
O96   O     O_3   0.000000 0.500000 0.500000 -0.550524
O97   O     O_R   0.585490 0.146180 0.478640 -0.627886
O98   O     O_R   0.853820 0.585490 0.478640 -0.550069
O99   O     O_R   0.414510 0.853820 0.478640 -0.585550
O100  O     O_R   0.146180 0.585490 0.478640 -0.566932
O101  O     O_R   0.585490 0.853820 0.478640 -0.583327
O102  O     O_R   0.853820 0.414510 0.478640 -0.603709
O103  O     O_R   0.414510 0.146180 0.478640 -0.552844
O104  O     O_R   0.414550 0.146120 0.021350 -0.593628
O105  O     O_R   0.853880 0.414550 0.021350 -0.605985
O106  O     O_R   0.585450 0.853880 0.021350 -0.560355
O107  O     O_3   0.500000 0.000000 0.500000 -0.555219
O108  O     O_R   0.146120 0.585450 0.021350 -0.576726
O109  O     O_R   0.414550 0.853880 0.021350 -0.587626
O110  O     O_R   0.853880 0.585450 0.021350 -0.585031
O111  O     O_R   0.585450 0.146120 0.021350 -0.635325
O112  O     O_R   0.146120 0.414550 0.021350 -0.613375
O113  O     O_R   0.914550 0.646120 0.521350 -0.633852
O114  O     O_R   0.353880 0.914550 0.521350 -0.610946
O115  O     O_R   0.085450 0.353880 0.521350 -0.592741
O116  O     O_R   0.646120 0.085450 0.521350 -0.574680
O117  O     O_R   0.914550 0.353880 0.521350 -0.586329
O118  O     O_R   0.439300 0.000000 0.918540 -0.597763
O119  O     O_R   0.353880 0.085450 0.521350 -0.589840
O120  O     O_R   0.085450 0.646120 0.521350 -0.623563
O121  O     O_R   0.646120 0.914550 0.521350 -0.596311
O122  O     O_2   0.466822 0.677708 0.005704 -0.196648
O123  O     O_2   0.419587 0.655596 0.943232 -0.201013
O124  O     O_3   0.464377 0.784096 0.958808 -0.607924
O125  O     O_2   0.064121 0.296113 0.058414 -0.321581
O126  O     O_2   0.130099 0.217659 0.100373 -0.159571
O127  O     O_3   0.173391 0.351164 0.094321 -0.555308
O128  O     O_2   0.705947 0.056252 0.052637 -0.343848
O129  O     O_R   0.000000 0.439300 0.918540 -0.589598
O130  O     O_2   0.818115 0.100733 0.080293 -0.164259
O131  O     O_3   0.694987 0.157158 0.102090 -0.513577
O132  O     O_2   0.756977 0.592044 0.079943 -0.271576
O133  O     O_2   0.632303 0.617877 0.058954 -0.184674
O134  O     O_3   0.715719 0.543762 0.015722 -0.541700
O135  O     O_2   0.277180 0.201543 0.108981 -0.273012
O136  O     O_2   0.204008 0.102098 0.083228 -0.163032
O137  O     O_3   0.343606 0.096350 0.076346 -0.548646
O138  O     O_2   0.256756 0.533233 0.969872 -0.332312
O139  O     O_2   0.380729 0.558679 0.991214 -0.170264
O140  O     O_R   0.560700 0.000000 0.918540 -0.605145
O141  O     O_3   0.280215 0.545928 0.040151 -0.500998
O142  O     O_2   0.585444 0.753618 0.078231 -0.185770
O143  O     O_2   0.705180 0.734894 0.106946 -0.293649
O144  O     O_3   0.669612 0.865489 0.087249 -0.538189
O145  O     O_2   0.825861 0.243479 0.106850 -0.209994
O146  O     O_2   0.925114 0.199851 0.066991 -0.173135
O147  O     O_3   0.907673 0.337876 0.074711 -0.557219
O148  O     O_2   0.940790 0.224327 0.558647 -0.202942
O149  O     O_2   0.906179 0.117149 0.522546 -0.216811
O150  O     O_3   0.960874 0.227040 0.487656 -0.589169
O151  O     O_R   1.000000 0.560700 0.918540 -0.619098
O152  O     O_2   0.564286 0.780247 0.560231 -0.294179
O153  O     O_2   0.645663 0.720269 0.603731 -0.188321
O154  O     O_3   0.669101 0.855356 0.589621 -0.547960
O155  O     O_2   0.189188 0.570407 0.561168 -0.336149
O156  O     O_2   0.303244 0.611028 0.588162 -0.164798
O157  O     O_3   0.184569 0.681770 0.604595 -0.507699
O158  O     O_2   0.344121 0.152401 0.590631 -0.317638
O159  O     O_2   0.216396 0.180254 0.605712 -0.244625
O160  O     O_3   0.239910 0.073531 0.562361 -0.512249
O161  O     O_2   0.780946 0.660614 0.602858 -0.296276
O162  O     O_R   0.939300 0.500000 0.418540 -0.607857
O163  O     O_2   0.678815 0.596249 0.573256 -0.165195
O164  O     O_3   0.809868 0.556845 0.557044 -0.581742
O165  O     O_2   0.778140 0.056698 0.554756 -0.229304
O166  O     O_2   0.819296 0.158773 0.592835 -0.212931
O167  O     O_3   0.680245 0.134540 0.588964 -0.534159
O168  O     O_2   0.131479 0.300124 0.593461 -0.268266
O169  O     O_2   0.262758 0.317737 0.606055 -0.243065
O170  O     O_3   0.194524 0.417432 0.569890 -0.516844
O171  O     O_2   0.319707 0.759465 0.608314 -0.216080
O172  O     O_2   0.415394 0.698459 0.572343 -0.169460
S1    S     S_3+6 0.422325 0.708815 0.974645 0.102057
S2    S     S_3+6 0.642401 0.774383 0.572868 0.077203
S3    S     S_3+6 0.232063 0.636602 0.572092 0.103489
S4    S     S_3+6 0.267592 0.156822 0.575573 0.077704
S5    S     S_3+6 0.754386 0.626859 0.567621 0.103675
S6    S     S_3+6 0.761155 0.133192 0.566608 0.120029
S7    S     S_3+6 0.202782 0.327976 0.578195 0.091768
S8    S     S_3+6 0.362909 0.761360 0.572994 0.117417
S9    S     S_3+6 0.068596 0.793480 0.043156 0.109149
S10   S     S_3+6 0.347357 0.215875 0.903627 0.164259
S11   S     S_3+6 0.769217 0.365830 0.908404 0.123321
S12   S     S_3+6 0.139033 0.277808 0.072812 0.086460
S13   S     S_3+6 0.807438 0.921932 0.933776 0.158664
S14   S     S_3+6 0.224476 0.351541 0.904406 0.162197
S15   S     S_3+6 0.196971 0.923946 0.045754 0.133068
S16   S     S_3+6 0.907103 0.773438 0.919585 0.130500
S17   S     S_3+6 0.638247 0.237559 0.906317 0.127329
S18   S     S_3+6 0.552074 0.329709 0.466402 0.149300
S19   S     S_3+6 0.853915 0.722107 0.403926 0.157330
S20   S     S_3+6 0.281350 0.853581 0.405589 0.099691
S21   S     S_3+6 0.234334 0.345151 0.400283 0.155939
S22   S     S_3+6 0.725682 0.852891 0.403778 0.139949
S23   S     S_3+6 0.743882 0.123253 0.066699 0.101614
S24   S     S_3+6 0.691075 0.443831 0.450790 0.147973
S25   S     S_3+6 0.330249 0.190940 0.400792 0.168898
S26   S     S_3+6 0.149039 0.727014 0.403591 0.132416
S27   S     S_3+6 0.057677 0.361736 0.795788 0.057557
S28   S     S_3+6 0.610812 0.896317 0.794887 0.041371
S29   S     S_3+6 0.939685 0.639134 0.795279 0.043947
S30   S     S_3+6 0.399503 0.113697 0.795767 0.088644
S31   S     S_3+6 0.516676 0.850256 0.295047 0.072903
S32   S     S_3+6 0.115707 0.405531 0.295772 0.078430
S33   S     S_3+6 0.482784 0.152043 0.294193 0.057403
S34   S     S_3+6 0.710867 0.611151 0.047041 0.111327
S35   S     S_3+6 0.888523 0.605996 0.294485 0.087909
S36   S     S_3+6 0.269429 0.150174 0.077003 0.090649
S37   S     S_3+6 0.301241 0.575229 0.997459 0.093613
S38   S     S_3+6 0.664588 0.776156 0.077651 0.092706
S39   S     S_3+6 0.866467 0.256529 0.071356 0.116909
S40   S     S_3+6 0.907928 0.198806 0.522940 0.106635
Zn1   Zn    Zn3+2 0.500000 0.913220 0.030510 1.145917
Zn2   Zn    Zn3+2 1.000000 0.586770 0.969480 1.101752
Zn3   Zn    Zn3+2 0.413230 0.000000 0.969480 1.076008
Zn4   Zn    Zn3+2 1.000000 0.413230 0.969480 1.144190
Zn5   Zn    Zn3+2 0.086770 0.500000 0.469480 1.145000
Zn6   Zn    Zn3+2 0.500000 0.086770 0.469480 1.120423
Zn7   Zn    Zn3+2 0.913230 0.500000 0.469480 1.110148
Zn8   Zn    Zn3+2 0.500000 0.913230 0.469480 1.139180
Zn9   Zn    Zn3+2 0.086780 0.500000 0.030510 1.097832
Zn10  Zn    Zn3+2 0.500000 0.086780 0.030510 1.096161
Zn11  Zn    Zn3+2 0.913220 0.500000 0.030510 1.108989
Zn12  Zn    Zn3+2 0.000000 0.413220 0.530510 1.103168
Zn13  Zn    Zn3+2 0.586780 0.000000 0.530510 1.093061
Zn14  Zn    Zn3+2 0.000000 0.586780 0.530510 1.086370
Zn15  Zn    Zn3+2 0.413220 0.000000 0.530510 1.089504
Zn16  Zn    Zn3+2 0.586770 0.000000 0.969480 1.143024

loop_
_geom_bond_atom_site_label_1
_geom_bond_atom_site_label_2
_ccdc_geom_bond_type
C24   C61   A    
O108  Zn9   S    
C7    C10   S    
C1    C77   S    
C76   C79   S    
C74   C83   S    
C118  C136  A    
C66   C79   T    
O66   S30   D    
C147  S2    S    
C29   C109  A    
O34   S19   D    
O35   Zn1   S    
C122  C139  A    
O154  S2    S    
C34   H63   S    
O23   S16   D    
O86   Zn15  S    
O96   Zn12  S    
O50   S25   D    
C16   S21   S    
C6    H36   S    
C95   C133  S    
O5    S9    D    
C105  C123  A    
C55   H108  S    
O126  S12   D    
C37   H59   S    
C48   H94   S    
O172  S8    D    
O138  S37   D    
C138  S12   S    
C41   H79   S    
O160  S4    S    
O144  S38   S    
O60   S28   D    
O147  S39   S    
O85   Zn2   S    
O29   S17   S    
C112  C129  A    
C101  O103  A    
O81   S35   D    
C50   H89   S    
C24   C51   S    
C4    H1    S    
C59   C60   S    
C139  S23   S    
C15   S20   S    
C60   H111  S    
O152  S2    D    
O101  Zn8   S    
C47   H83   S    
C45   C47   S    
C34   C120  S    
C15   C20   S    
C4    C107  S    
O10   S11   D    
C99   C129  S    
H35   O164  S    
C28   C32   A    
C147  C150  A    
C18   C111  S    
O107  Zn6   S    
C113  C130  A    
C92   C123  S    
C6    C11   S    
H23   O127  S    
C130  C148  A    
O40   S21   D    
C88   O90   A    
O121  Zn13  S    
C119  C137  A    
C38   H71   S    
H38   O170  S    
O130  S23   D    
O38   S20   D    
C68   C72   T    
O99   Zn8   S    
C10   H80   S    
O142  S38   D    
O143  S38   D    
C13   C21   A    
O97   Zn6   S    
C32   C64   S    
O8    S10   D    
C81   O46   A    
C127  C145  A    
O72   S31   S    
O7    S10   D    
C81   O68   A    
O39   S20   S    
C99   O101  A    
C82   O84   A    
O42   S21   S    
O103  Zn6   S    
H39   O3    S    
C89   O111  A    
C138  C141  A    
C44   H86   S    
O112  Zn9   S    
C5    C8    S    
C91   O109  A    
C26   S31   S    
O48   S24   D    
C42   H76   S    
O13   Zn5   S    
O45   S22   S    
C15   C118  S    
C140  S34   S    
C60   H3    S    
O161  S5    D    
O131  S23   S    
C104  C110  A    
O123  S1    D    
C134  C151  A    
O85   Zn4   S    
C45   H85   S    
C129  C147  A    
H33   O157  S    
C87   O2    A    
C100  O117  A    
C42   H77   S    
O1    Zn1   S    
C106  C124  A    
C108  C126  A    
C83   O86   A    
O70   S31   D    
C102  C119  A    
O125  S12   D    
C47   H81   S    
C78   C87   S    
C25   C31   A    
C86   O104  A    
C11   S17   S    
C26   C32   A    
C29   C33   A    
C143  S37   S    
C11   H91   S    
O109  Zn1   S    
C45   H84   S    
H54   O49   S    
C27   C33   A    
C57   C142  A    
C36   C37   S    
C96   O99   A    
C26   C120  A    
O102  Zn7   S    
C16   C19   S    
C20   C113  S    
C104  C122  A    
C89   C122  S    
O92   Zn4   S    
H10   O65   S    
O62   S28   S    
C135  C152  A    
C3    C136  A    
O153  S2    D    
O111  Zn10  S    
C36   H62   S    
O6    S9    S    
C16   H17   S    
C39   H70   S    
C35   C67   S    
O110  Zn11  S    
O46   Zn9   S    
O132  S34   D    
O93   Zn3   S    
C14   H2    S    
O1    Zn16  S    
O2    Zn8   S    
C80   O57   A    
C14   C17   S    
C35   C120  A    
C8    H58   S    
C33   C66   S    
O120  Zn14  S    
O165  S6    D    
H55   O52   S    
O163  S5    D    
C31   C63   S    
C19   H20   S    
C107  C125  A    
C39   C40   S    
C19   S25   S    
C17   H18   S    
C1    O140  A    
O171  S8    D    
O89   Zn3   S    
O140  Zn16  S    
C94   O116  A    
C101  C132  S    
C46   C68   S    
O77   S33   D    
O85   Zn11  S    
O1    Zn3   S    
O22   S15   S    
C20   S26   S    
C65   O151  A    
C5    H25   S    
O68   Zn11  S    
O30   S18   D    
C102  C107  A    
O18   S14   D    
C52   H100  S    
C111  C116  A    
O31   S18   D    
C5    S10   S    
C56   H104  S    
C86   C124  S    
C90   C121  S    
C91   C119  S    
C124  C141  A    
O116  Zn13  S    
O59   S27   S    
C52   C53   S    
O85   Zn9   S    
C54   C55   S    
C100  C128  S    
C97   O100  A    
C64   C78   T    
H11   O69   S    
C133  C150  A    
C93   C135  S    
C71   C80   S    
C59   H4    S    
C2    C61   A    
C7    S13   S    
H37   O167  S    
C92   O94   A    
O78   S33   S    
C34   H64   S    
O166  S6    D    
O167  S6    S    
O58   S27   D    
O51   S25   D    
O16   S13   S    
C125  C143  A    
H8    O59   S    
O49   S24   S    
C90   O92   A    
C85   O88   A    
C34   C36   S    
C53   H98   S    
O106  Zn1   S    
H22   O124  S    
O127  S12   S    
C114  C117  A    
H27   O137  S    
C146  C151  A    
C41   H78   S    
O36   S19   S    
O150  S40   S    
C49   C50   S    
C111  C128  A    
O98   Zn7   S    
C15   H13   S    
C23   S29   S    
C4    C9    S    
O54   S26   D    
H31   O150  S    
C49   H93   S    
H28   O141  S    
C12   C116  S    
C61   C70   S    
H29   O144  S    
C27   S32   S    
C55   C56   S    
C17   C112  S    
C40   H65   S    
C41   C42   S    
C60   H112  S    
C56   H105  S    
C145  S39   S    
O117  Zn12  S    
C51   H103  S    
O12   S11   S    
H45   O22   S    
C96   C136  S    
C18   H19   S    
O37   S20   D    
C76   O162  A    
O129  Zn4   S    
C76   O13   A    
O168  S7    D    
O65   S29   S    
C95   O98   A    
C97   C130  S    
C88   C127  S    
H12   O72   S    
O52   S25   S    
C116  C134  A    
O26   S16   S    
C14   C115  S    
O20   S15   D    
C27   C131  A    
C38   H72   S    
C84   O106  A    
C80   O35   A    
C4    S9    S    
C85   O108  A    
O115  Zn12  S    
C93   O115  A    
C9    C102  S    
O63   S29   D    
O55   S26   S    
O90   Zn4   S    
C9    S15   S    
C69   C73   T    
C11   C104  S    
O84   Zn14  S    
C35   C98   A    
C72   C81   S    
C43   H74   S    
O53   S26   D    
C44   C109  S    
C21   S27   S    
O96   Zn14  S    
C84   C126  S    
C132  C149  A    
C54   H109  S    
C17   S22   S    
H40   O6    S    
O74   S32   D    
C5    C106  S    
O56   S27   D    
O41   S21   D    
O155  S3    D    
O157  S3    S    
O158  S4    D    
C87   O24   A    
O136  S36   D    
C115  C133  A    
C19   C114  S    
C58   C59   S    
O21   S15   D    
C51   C52   S    
O119  Zn15  S    
C6    S11   S    
C37   H60   S    
O139  S37   D    
O124  S1    S    
O137  S36   S    
O159  S4    D    
C93   O95   A    
C150  S5    S    
O148  S40   D    
O141  S37   S    
O28   S17   D    
C89   O91   A    
O57   Zn10  S    
C48   C49   S    
C54   C142  S    
O24   Zn6   S    
C30   C62   S    
C40   H67   S    
H56   O55   S    
C22   C24   A    
C42   C43   S    
C82   O79   A    
C51   H101  S    
C73   C82   S    
C44   C45   S    
O94   Zn2   S    
C28   C98   A    
C86   O89   A    
C92   O110  A    
O61   S28   D    
H43   O16   S    
C140  C144  A    
C65   C75   S    
C149  S4    S    
H53   O45   S    
C2    C58   S    
C117  C135  A    
O95   Zn5   S    
C21   C30   A    
O83   Zn13  S    
H50   O36   S    
H24   O131  S    
C58   H7    S    
C146  S40   S    
C65   O129  A    
C50   H88   S    
C53   H96   S    
C16   C117  S    
O91   Zn16  S    
C59   H5    S    
C38   C39   S    
O32   S18   S    
H9    O62   S    
C152  S7    S    
H46   O26   S    
C2    C25   A    
C67   C71   T    
C8    C103  S    
O145  S39   D    
C99   O121  A    
H32   O154  S    
C13   C57   A    
C1    O118  A    
C46   C109  A    
O128  S23   D    
O17   S14   D    
O11   S11   D    
C84   O87   A    
O67   S30   D    
C144  S38   S    
O80   S35   D    
C10   S16   S    
H34   O160  S    
H48   O29   S    
C85   C125  S    
O33   S19   D    
H44   O19   S    
C128  C146  A    
O107  Zn15  S    
C22   S28   S    
O96   Zn5   S    
O71   S31   D    
O4    S9    D    
C48   H95   S    
H52   O42   S    
H49   O32   S    
O100  Zn5   S    
H41   O9    S    
O79   Zn12  S    
H30   O147  S    
O104  Zn10  S    
C126  C144  A    
C28   S33   S    
C9    H69   S    
C70   C74   T    
H15   O78   S    
H16   O82   S    
O64   S29   D    
O25   S16   D    
C23   C142  A    
H14   O75   S    
C83   O83   A    
C14   S19   S    
C55   H107  S    
O75   S32   S    
O43   S22   D    
C110  C127  A    
C47   H82   S    
O114  Zn15  S    
C137  C143  A    
C3    C148  A    
O162  Zn7   S    
C3    S8    S    
C6    C110  S    
C148  S3    S    
O82   S35   S    
C101  O119  A    
C43   H75   S    
O105  Zn11  S    
C25   S30   S    
C105  C108  A    
C12   H102  S    
C22   C31   A    
H51   O39   S    
O3    S8    S    
C54   H110  S    
C23   C30   A    
C39   H68   S    
O134  S34   S    
C58   H6    S    
C149  C152  A    
C46   C131  A    
C12   S18   S    
O118  Zn3   S    
C18   S24   S    
C123  C140  A    
O149  S40   D    
O1    Zn10  S    
C121  C138  A    
C151  S6    S    
C94   O97   A    
C100  O102  A    
C36   H61   S    
C20   H21   S    
O164  S5    S    
O15   S13   D    
O14   S13   D    
O19   S14   S    
C53   H97   S    
C37   H57   S    
O69   S30   S    
O170  S7    S    
O113  Zn14  S    
O88   Zn2   S    
C29   S35   S    
C137  S1    S    
O87   Zn16  S    
C44   H87   S    
O107  Zn13  S    
C49   H92   S    
O76   S33   D    
O27   S17   D    
O96   Zn7   S    
C63   C77   T    
C88   O105  A    
C139  C145  A    
C40   H66   S    
C41   C98   S    
C114  C132  A    
C56   H106  S    
H26   O134  S    
C50   H90   S    
O122  S1    D    
O133  S34   D    
C13   C48   S    
C8    S14   S    
C96   O114  A    
O9    S10   S    
O151  Zn2   S    
H42   O12   S    
O169  S7    D    
C38   C131  S    
C95   O113  A    
O146  S39   D    
O107  Zn8   S    
O156  S3    D    
C91   O93   A    
C97   O120  A    
O47   S24   D    
C141  S36   S    
C94   C134  S    
C103  C106  A    
O44   S22   D    
C7    H47   S    
C62   C75   T    
C52   H99   S    
C113  C118  A    
O73   S32   D    
C12   C18   S    
C7    C108  S    
C10   C105  S    
C57   C69   S    
C112  C115  A    
C43   H73   S    
C90   O112  A    
O135  S36   D    
C103  C121  A    
