data_mof_unit_19675.cif
_audit_creation_date              2012-12-11T14:21:08-0500
_audit_creation_method            fapswitch 2.2
_symmetry_space_group_name_H-M    P1
_symmetry_Int_Tables_number       1
_space_group_crystal_system       triclinic
_cell_length_a                    21.954692
_cell_length_b                    7.208015
_cell_length_c                    14.935632
_cell_angle_alpha                 89.986974
_cell_angle_beta                  107.147282
_cell_angle_gamma                 89.994935
_cell_volume                      2258.49978123

loop_
_atom_site_label
_atom_site_type_symbol
_atom_type_description
_atom_site_fract_x
_atom_site_fract_y
_atom_site_fract_z
_atom_type_partial_charge
O1    O     O_R   0.584770 0.505770 0.002090 -0.539986
O2    O     O_R   0.415230 0.005770 0.997910 -0.539980
O3    O     O_R   0.467060 0.173340 0.861950 -0.537599
O4    O     O_R   0.532940 0.673340 0.138050 -0.537630
C1    C     C_R   0.455083 0.344123 0.825956 0.680040
C2    C     C_R   0.544915 0.844069 0.174049 0.680044
O5    O     O_R   0.587510 0.175890 0.993210 -0.540954
O6    O     O_R   0.412490 0.675890 0.006790 -0.540984
O7    O     O_R   0.536540 0.008150 0.130100 -0.537112
O8    O     O_R   0.463460 0.508150 0.869900 -0.537096
C3    C     C_R   0.612969 0.344925 0.997473 0.730407
C4    C     C_R   0.387031 0.844935 0.002528 0.730414
O9    O     O_3   0.483140 0.340040 0.044760 -0.378553
O10   O     O_3   0.516860 0.840040 0.955240 -0.378521
V1    V     V_3+5 0.503130 0.064190 0.991700 1.424771
V2    V     V_3+5 0.496870 0.564190 0.008300 1.424668
C5    C     C_2   0.214016 0.727580 0.003445 -0.124927
C6    C     C_2   0.785994 0.227592 0.996557 -0.124797
C7    C     C_2   0.180321 0.886691 0.996260 -0.298610
C8    C     C_2   0.819679 0.386703 0.003743 -0.298813
H1    H     H_    0.190942 0.596776 0.009275 0.139891
H2    H     H_    0.809076 0.096796 0.990724 0.139964
H3    H     H_    0.201868 0.018923 0.989328 0.133635
H4    H     H_    0.798123 0.518926 0.010677 0.133650
C9    C     C_2   0.281898 0.714606 0.003193 -0.130588
C10   C     C_2   0.718112 0.214595 0.996807 -0.130420
C11   C     C_2   0.319936 0.861438 0.003467 -0.295805
C12   C     C_2   0.680064 0.361420 0.996537 -0.296142
H5    H     H_    0.301069 0.575630 0.003495 0.140104
H6    H     H_    0.698951 0.075611 0.996496 0.140192
H7    H     H_    0.302032 0.001254 0.004074 0.134969
H8    H     H_    0.697961 0.501241 0.995938 0.134986
C13   C     C_R   0.926119 0.885213 0.724112 -0.028876
C14   C     C_R   0.073891 0.384878 0.275873 -0.028810
C15   C     C_R   0.572979 0.848458 0.275658 -0.032213
C16   C     C_R   0.427016 0.348783 0.724353 -0.032023
C17   C     C_R   0.936467 0.871356 0.567959 -0.143319
C18   C     C_R   0.063514 0.367205 0.431921 -0.143263
C19   C     C_R   0.964216 0.889851 0.664166 -0.165605
C20   C     C_R   0.035743 0.386811 0.335773 -0.165630
C21   C     C_R   0.860005 0.866419 0.687851 -0.189174
C22   C     C_R   0.140057 0.367579 0.312127 -0.189159
C23   C     C_R   0.830391 0.848281 0.590235 0.080343
C24   C     C_R   0.169682 0.348046 0.409670 0.080334
C25   C     C_R   0.870214 0.849010 0.530696 0.055093
C26   C     C_R   0.129827 0.346179 0.469156 0.055084
C27   C     C_R   0.762938 0.830375 0.549903 0.024244
C28   C     C_R   0.237171 0.331085 0.449969 0.024253
C29   C     C_R   0.736591 0.816723 0.450296 -0.050463
C30   C     C_R   0.263521 0.315913 0.549518 -0.050470
C31   C     C_R   0.779250 0.790047 0.395443 0.322733
C32   C     C_R   0.220901 0.286836 0.604226 0.322773
C33   C     C_R   0.844290 0.818341 0.434954 -0.189250
C34   C     C_R   0.155798 0.314124 0.564780 -0.189150
C35   C     C_R   0.720958 0.823135 0.605783 -0.162088
C36   C     C_R   0.279186 0.326171 0.394101 -0.162090
C37   C     C_R   0.655487 0.810010 0.565939 -0.202906
C38   C     C_R   0.344682 0.313963 0.433934 -0.202941
C39   C     C_R   0.628852 0.815276 0.469141 0.150704
C40   C     C_R   0.371281 0.317889 0.530755 0.150697
C41   C     C_R   0.668826 0.827387 0.410058 0.082462
C42   C     C_R   0.331255 0.327553 0.589842 0.082460
C43   C     C_R   0.562261 0.811099 0.430832 -0.168657
C44   C     C_R   0.437878 0.314922 0.569091 -0.168633
C45   C     C_R   0.534590 0.822552 0.334294 -0.168095
C46   C     C_R   0.465497 0.325322 0.665671 -0.168300
C47   C     C_R   0.639233 0.857879 0.313434 -0.233179
C48   C     C_R   0.360742 0.356836 0.686580 -0.233083
H9    H     H_    0.875405 0.804688 0.390806 0.145972
H10   H     H_    0.124696 0.298546 0.608836 0.145846
H11   H     H_    0.666558 0.889895 0.266000 0.156187
H12   H     H_    0.333322 0.387121 0.734092 0.156058
H13   H     H_    0.483272 0.812853 0.305329 0.105332
H14   H     H_    0.516841 0.316805 0.694629 0.105275
H15   H     H_    0.625262 0.801634 0.611596 0.120308
H16   H     H_    0.374943 0.307426 0.388275 0.120303
H17   H     H_    0.966980 0.871765 0.522610 0.117900
H18   H     H_    0.032973 0.365537 0.477224 0.117913
H19   H     H_    0.015458 0.904432 0.692015 0.110522
H20   H     H_    0.984454 0.400070 0.307919 0.110504
H21   H     H_    0.833491 0.866610 0.738090 0.088713
H22   H     H_    0.166601 0.369747 0.261931 0.088650
H23   H     H_    0.737036 0.823980 0.681145 0.118518
H24   H     H_    0.263125 0.328175 0.318744 0.118518
H25   H     H_    0.531609 0.797330 0.475599 0.117529
H26   H     H_    0.468580 0.303080 0.524301 0.117526
O11   O     O_R   0.036450 0.233070 0.130130 -0.537369
O12   O     O_R   0.963550 0.733070 0.869870 -0.537384
O13   O     O_R   0.912470 0.560570 0.006790 -0.544196
O14   O     O_R   0.087530 0.060570 0.993210 -0.544197
C49   C     C_R   0.886986 0.391909 0.002573 0.730383
C50   C     C_R   0.113014 0.891899 0.997427 0.730370
O15   O     O_R   0.032920 0.562940 0.138050 -0.539124
O16   O     O_R   0.967080 0.062940 0.861950 -0.539142
O17   O     O_R   0.084790 0.730500 0.002090 -0.537605
O18   O     O_R   0.915210 0.230500 0.997910 -0.537586
C51   C     C_R   0.045018 0.394365 0.174480 0.682128
C52   C     C_R   0.954980 0.894421 0.825516 0.682120
O19   O     O_3   0.016820 0.396170 0.955260 -0.377883
O20   O     O_3   0.983180 0.896170 0.044740 -0.377861
V3    V     V_3+5 0.996880 0.672090 0.008300 1.424324
V4    V     V_3+5 0.003120 0.172090 0.991700 1.424333
O21   O     O_3   0.760742 0.717906 0.306088 -0.651436
H27   H     H_    0.726891 0.624986 0.303173 0.288417
O22   O     O_3   0.239553 0.213280 0.693303 -0.651369
H28   H     H_    0.273628 0.121254 0.695882 0.288486

loop_
_geom_bond_atom_site_label_1
_geom_bond_atom_site_label_2
_ccdc_geom_bond_type
C43   C45   A    
O18   V4    S    
C22   H22   S    
O2    C4    A    
C2    O7    A    
O12   V3    S    
C38   H16   S    
C27   C29   A    
O5    C3    A    
C13   C19   A    
C14   C20   A    
C16   C46   A    
C37   C39   A    
C15   C45   A    
C38   C40   A    
C46   H14   S    
C1    C16   S    
C14   C51   S    
C45   H13   S    
C2    C15   S    
C40   C42   A    
C13   C52   S    
O14   V4    S    
C7    C50   S    
C49   O18   A    
C8    H4    S    
C24   C26   A    
C14   C22   A    
C29   C31   A    
C6    C10   S    
C30   C32   A    
C20   H20   S    
O13   C49   A    
C47   H11   S    
C48   H12   S    
C28   C30   A    
C33   H9    S    
O6    V2    S    
C43   H25   S    
C21   C23   A    
C22   C24   A    
C44   H26   S    
C32   C34   A    
C36   H24   S    
C9    H5    S    
C8    C49   S    
C39   C41   A    
C29   C41   A    
C4    C11   S    
C11   H7    S    
C12   H8    S    
O4    C2    A    
O15   V3    S    
C18   H18   S    
C17   H17   S    
C50   O17   A    
C5    H1    S    
C31   C33   A    
C19   H19   S    
O4    V2    S    
C7    H3    S    
C35   H23   S    
O11   V4    S    
C41   C47   A    
O14   C50   A    
C34   H10   S    
C15   C47   A    
O6    C4    A    
C21   H21   S    
C26   C34   A    
O1    V2    S    
O2    V1    S    
C23   C25   A    
C32   O22   S    
C10   H6    S    
C35   C37   A    
C30   C42   A    
C17   C25   A    
O15   C51   A    
O3    V1    S    
C27   C35   A    
C28   C36   A    
O13   V3    S    
C6    H2    S    
C10   C12   D    
O3    C1    A    
C16   C48   A    
C9    C11   D    
O22   H28   S    
C39   C43   A    
C42   C48   A    
C40   C44   A    
C13   C21   A    
C37   H15   S    
O7    V1    S    
C5    C9    S    
C1    O8    A    
C17   C19   A    
O8    V2    S    
C18   C20   A    
C23   C27   A    
C3    C12   S    
O5    V1    S    
O20   V3    S    
C5    C7    D    
C36   C38   A    
C6    C8    D    
C18   C26   A    
C25   C33   A    
O17   V3    S    
O19   V4    S    
O16   V4    S    
O9    V2    S    
O21   H27   S    
O16   C52   A    
O10   V1    S    
O1    C3    A    
C31   O21   S    
O12   C52   A    
C24   C28   A    
C44   C46   A    
O11   C51   A    
