data_mof_unit_35787.cif
_audit_creation_date              2012-12-10T18:09:46-0500
_audit_creation_method            fapswitch 2.2
_symmetry_space_group_name_H-M    P1
_symmetry_Int_Tables_number       1
_space_group_crystal_system       triclinic
_cell_length_a                    10.652131
_cell_length_b                    12.630227
_cell_length_c                    13.146287
_cell_angle_alpha                 82.387483
_cell_angle_beta                  90.392861
_cell_angle_gamma                 102.670509
_cell_volume                      1709.95504791

loop_
_atom_site_label
_atom_site_type_symbol
_atom_type_description
_atom_site_fract_x
_atom_site_fract_y
_atom_site_fract_z
_atom_type_partial_charge
C1    C     C_R   0.483091 0.438671 0.691390 0.877198
C2    C     C_3   0.121198 0.497667 0.500957 0.147336
C3    C     C_3   0.096925 0.598707 0.426588 -0.108923
C4    C     C_3   0.075799 0.506123 0.612613 -0.044622
C5    C     C_R   0.400084 0.695826 0.066022 -0.213227
C6    C     C_R   0.500048 0.596165 0.200689 -0.046119
C7    C     C_R   0.513410 0.302004 0.839538 0.121497
C8    C     C_R   0.524997 0.275305 0.944889 -0.205345
C9    C     C_R   0.507455 0.347609 0.011462 -0.231835
C10   C     C_R   0.471788 0.447023 0.974309 0.088986
C11   C     C_R   0.439246 0.465593 0.870500 0.044609
C12   C     C_R   0.741860 0.500759 0.499120 0.892112
C13   C     C_R   0.466899 0.528543 0.037149 0.089106
C14   C     C_R   0.409433 0.617493 0.001642 0.176020
C15   C     C_R   0.360521 0.625786 0.903202 -0.253721
C16   C     C_R   0.375569 0.551168 0.838201 -0.200482
C17   C     C_R   0.520045 0.524823 0.134085 -0.269901
C18   C     C_R   0.443190 0.683982 0.166373 -0.193081
C19   C     C_R   0.473064 0.399062 0.801489 -0.126206
C20   C     C_R   0.326724 0.084561 0.345912 -0.307033
C21   C     C_R   0.651046 0.799292 0.630700 0.019630
C22   C     C_R   0.681966 0.903525 0.660023 -0.257949
C23   C     C_R   0.512398 0.560959 0.308957 0.862876
C24   C     C_R   0.625158 0.985224 0.610996 -0.206416
C25   C     C_R   0.537026 0.962553 0.531831 0.034369
C26   C     C_R   0.509165 0.854670 0.504872 0.232124
C27   C     C_R   0.475321 0.041691 0.478425 -0.020421
C28   C     C_R   0.388519 0.010115 0.399970 0.152675
C29   C     C_R   0.363384 0.904138 0.375189 -0.295393
C30   C     C_R   0.423077 0.827732 0.427023 -0.221924
C31   C     C_R   0.495710 0.151080 0.498813 -0.105591
C32   C     C_R   0.348970 0.190781 0.368793 0.353510
C33   C     C_R   0.258276 0.499268 0.499577 0.869736
C34   C     C_3   0.899890 0.389320 0.471387 -0.400020
C35   C     C_3   0.042486 0.390571 0.465520 -0.397372
C36   C     C_3   0.951092 0.593482 0.419741 -0.521172
C37   C     C_3   0.932881 0.518798 0.608967 -0.054633
C38   C     C_3   0.878482 0.500126 0.500607 0.111117
H1    H     H_    0.857696 0.374784 0.395329 0.179758
H2    H     H_    0.134534 0.582923 0.636514 0.136798
H3    H     H_    0.932325 0.673864 0.433304 0.177293
H4    H     H_    0.141541 0.674396 0.460142 0.161178
H5    H     H_    0.426222 0.739572 0.218052 0.150309
H6    H     H_    0.312857 0.691246 0.875635 0.144709
H7    H     H_    0.354982 0.763345 0.040145 0.132553
H8    H     H_    0.573500 0.463838 0.161752 0.147621
H9    H     H_    0.519356 0.322293 0.091934 0.144943
H10   H     H_    0.553319 0.200129 0.974983 0.141930
H11   H     H_    0.851406 0.319319 0.528268 0.179212
H12   H     H_    0.335383 0.560896 0.762751 0.173435
H13   H     H_    0.297055 0.879992 0.315151 0.146878
H14   H     H_    0.260647 0.060056 0.285686 0.149913
H15   H     H_    0.560706 0.182084 0.556461 0.147820
H16   H     H_    0.694608 0.735452 0.668791 0.140841
H17   H     H_    0.651832 0.064672 0.636444 0.133196
H18   H     H_    0.749547 0.920890 0.720701 0.146699
H19   H     H_    0.400098 0.747974 0.404328 0.221829
H20   H     H_    0.061316 0.316554 0.513465 0.194076
H21   H     H_    0.070265 0.384022 0.385655 0.172681
H22   H     H_    0.915462 0.579103 0.341824 0.179206
H23   H     H_    0.934006 0.605464 0.618455 0.130093
N1    N     N_R   0.433240 0.222190 0.444680 -0.102557
N2    N     N_R   0.566070 0.776970 0.554790 -0.133965
O1    O     O_R   0.468120 0.366740 0.627160 -0.582363
O2    O     O_R   0.510770 0.544830 0.662520 -0.620753
O3    O     O_R   0.663880 0.410950 0.482330 -0.628659
O4    O     O_R   0.706530 0.589040 0.517700 -0.625745
O5    O     O_R   0.489230 0.455170 0.337480 -0.619575
O6    O     O_R   0.531880 0.633260 0.372840 -0.633963
O7    O     O_R   0.293470 0.410960 0.482300 -0.634168
O8    O     O_R   0.336120 0.589050 0.517670 -0.655737
Zn1   Zn    Zn3+2 0.471520 0.381090 0.476390 0.936902
Zn2   Zn    Zn3+2 0.528480 0.618910 0.523610 0.920891
N3    N     N_3   0.546595 0.231978 0.771607 -0.446416
H24   H     H_    0.487987 0.153793 0.790508 0.179079
H25   H     H_    0.642008 0.226234 0.784396 0.163879
C39   C     C_3   0.277168 0.265303 0.305436 -0.875838
H26   H     H_    0.287768 0.346216 0.328681 0.291192
H27   H     H_    0.309889 0.276285 0.223914 0.220795
H28   H     H_    0.172491 0.227567 0.310266 0.203723
N4    N     N_3   0.156865 0.607254 0.324557 -0.478818
H29   H     H_    0.105884 0.546667 0.283689 0.198102
H30   H     H_    0.151269 0.682745 0.283323 0.182696
N5    N     N_3   0.848051 0.450285 0.691602 -0.465730
H31   H     H_    0.881917 0.471122 0.762720 0.193644
H32   H     H_    0.843523 0.367184 0.689923 0.197843
C40   C     C_3   0.101186 0.412610 0.693539 -0.931233
H33   H     H_    0.203074 0.406160 0.690007 0.229905
H34   H     H_    0.082917 0.429710 0.772101 0.242729
H35   H     H_    0.040512 0.331923 0.682364 0.249650

loop_
_geom_bond_atom_site_label_1
_geom_bond_atom_site_label_2
_ccdc_geom_bond_type
C2    C35   S    
C40   H33   S    
C3    H4    S    
C23   O6    A    
N4    H29   S    
C7    C8    A    
C4    C40   S    
C39   H26   S    
C24   H17   S    
C11   C19   A    
C29   C30   A    
N3    H25   S    
C35   H20   S    
C28   C29   A    
N5    H32   S    
C15   H6    S    
C20   C32   A    
C21   H16   S    
C15   C16   A    
C30   H19   S    
O2    Zn2   S    
C35   H21   S    
C34   C35   S    
C32   C39   S    
N5    H31   S    
O3    Zn1   S    
C4    H2    S    
C8    C9    A    
C3    N4    S    
C1    O2    A    
C37   N5    S    
O6    Zn2   S    
O4    Zn2   S    
C9    C10   A    
C13   C14   A    
C31   N1    A    
C36   H3    S    
N4    H30   S    
C7    N3    S    
C39   H27   S    
C6    C18   A    
C12   O4    A    
C1    C19   S    
N3    H24   S    
C27   C31   A    
C34   H1    S    
C24   C25   A    
O8    Zn2   S    
C22   H18   S    
C5    C18   A    
N2    Zn2   S    
C25   C26   A    
C5    H7    S    
C31   H15   S    
C23   O5    A    
C2    C4    S    
C26   N2    A    
C8    H10   S    
C37   C38   S    
C11   C16   A    
O5    Zn1   S    
N1    Zn1   S    
C17   H8    S    
C5    C14   A    
C33   O7    A    
C2    C33   S    
C26   C30   A    
C7    C19   A    
C40   H34   S    
C22   C24   A    
C1    O1    A    
C29   H13   S    
C39   H28   S    
C6    C17   A    
C34   H11   S    
C34   C38   S    
C16   H12   S    
C36   H22   S    
C10   C13   A    
C37   H23   S    
C9    H9    S    
C25   C27   A    
C20   C28   A    
C13   C17   A    
C36   C38   S    
C2    C3    S    
C32   N1    A    
C20   H14   S    
C18   H5    S    
C12   O3    A    
C3    C36   S    
C6    C23   S    
O1    Zn1   S    
C12   C38   S    
C21   N2    A    
C10   C11   A    
C33   O8    A    
C4    C37   S    
C40   H35   S    
C27   C28   A    
C14   C15   A    
O7    Zn1   S    
C21   C22   A    
