data_mof_unit_60543.cif
_audit_creation_date              2012-10-26T17:45:51-0400
_audit_creation_method            fapswitch 2.2
_symmetry_space_group_name_H-M    P1
_symmetry_Int_Tables_number       1
_space_group_crystal_system       triclinic
_cell_length_a                    35.607448
_cell_length_b                    35.607448
_cell_length_c                    30.187482
_cell_angle_alpha                 90.000039
_cell_angle_beta                  90.000023
_cell_angle_gamma                 90.0
_cell_volume                      38274.4172113

loop_
_atom_site_label
_atom_site_type_symbol
_atom_type_description
_atom_site_fract_x
_atom_site_fract_y
_atom_site_fract_z
_atom_type_partial_charge
C1    C     C_R   0.000000 0.427756 0.500000 0.580184
C2    C     C_R   0.113777 1.000000 0.500000 0.011549
C3    C     C_R   0.500000 0.000000 0.585668 0.566133
C4    C     C_R   0.500000 1.000000 0.914332 0.566130
C5    C     C_R   1.000000 0.500000 0.914332 0.566130
C6    C     C_R   0.500000 1.000000 0.085668 0.566131
C7    C     C_R   1.000000 0.500000 0.085668 0.566130
C8    C     C_R   0.022989 0.475030 0.156792 -0.099588
C9    C     C_R   0.475029 0.977012 0.156792 -0.099592
C10   C     C_R   0.977010 0.524970 0.156792 -0.099592
C11   C     C_R   0.524971 0.022988 0.156792 -0.099588
C12   C     C_R   0.022990 0.524969 0.843208 -0.099588
C13   C     C_R   1.000000 0.886223 0.500000 0.011546
C14   C     C_R   0.475030 0.022989 0.843208 -0.099588
C15   C     C_R   0.977009 0.475031 0.843208 -0.099593
C16   C     C_R   0.524970 0.977011 0.843208 -0.099592
C17   C     C_R   0.522985 0.975026 0.656792 -0.099588
C18   C     C_R   0.975025 0.477016 0.656792 -0.099590
C19   C     C_R   0.477015 0.024973 0.656792 -0.099590
C20   C     C_R   0.024975 0.522984 0.656792 -0.099589
C21   C     C_R   0.522986 0.024972 0.343208 -0.099588
C22   C     C_R   0.975026 0.522985 0.343208 -0.099589
C23   C     C_R   0.477014 0.975028 0.343208 -0.099590
C24   C     C_R   0.886223 0.000000 0.500000 0.011548
C25   C     C_R   0.024973 0.477015 0.343208 -0.099590
C26   C     C_R   1.000000 0.500000 0.133901 0.016193
C27   C     C_R   0.500000 1.000000 0.133901 0.016193
C28   C     C_R   1.000000 0.500000 0.866099 0.016193
C29   C     C_R   0.500000 1.000000 0.866099 0.016193
C30   C     C_R   0.500000 0.000000 0.633901 0.016193
C31   C     C_R   1.000000 0.500000 0.633901 0.016192
C32   C     C_R   0.500000 1.000000 0.366099 0.016193
C33   C     C_R   1.000000 0.500000 0.366099 0.016193
C34   C     C_R   0.976002 0.524911 0.203291 0.001151
C35   C     C_R   0.500000 0.613777 0.000000 0.011548
C36   C     C_R   0.524912 0.023996 0.203291 0.001153
C37   C     C_R   0.023997 0.475089 0.203291 0.001153
C38   C     C_R   0.475088 0.976003 0.203291 0.001151
C39   C     C_R   0.976001 0.475091 0.796709 0.001152
C40   C     C_R   0.524911 0.976002 0.796709 0.001151
C41   C     C_R   0.023999 0.524909 0.796709 0.001153
C42   C     C_R   0.475089 0.023997 0.796709 0.001153
C43   C     C_R   0.476006 0.024915 0.703292 0.001152
C44   C     C_R   0.024916 0.523992 0.703292 0.001152
C45   C     C_R   0.523993 0.975085 0.703292 0.001152
C46   C     C_R   0.613777 0.500000 0.000000 0.011547
C47   C     C_R   0.975084 0.476008 0.703292 0.001151
C48   C     C_R   0.476005 0.975086 0.296708 0.001151
C49   C     C_R   0.024914 0.476006 0.296708 0.001152
C50   C     C_R   0.523994 0.024913 0.296708 0.001152
C51   C     C_R   0.975085 0.523994 0.296708 0.001152
C52   C     C_R   1.000000 0.500000 0.226684 0.037047
C53   C     C_R   0.500000 1.000000 0.226685 0.037047
C54   C     C_R   1.000000 0.500000 0.773316 0.037047
C55   C     C_R   0.500000 1.000000 0.773316 0.037047
C56   C     C_R   0.500000 1.000000 0.726685 0.037048
C57   C     C_R   0.500000 0.386223 1.000000 0.011547
C58   C     C_R   1.000000 0.500000 0.726685 0.037048
C59   C     C_R   0.500000 1.000000 0.273315 0.037047
C60   C     C_R   1.000000 0.500000 0.273315 0.037048
C61   C     C_R   0.951541 0.549099 0.226700 -0.018518
C62   C     C_R   0.549101 0.048457 0.226700 -0.018517
C63   C     C_R   0.048459 0.450901 0.226700 -0.018517
C64   C     C_R   0.450899 0.951543 0.226700 -0.018518
C65   C     C_R   0.951538 0.450904 0.773300 -0.018517
C66   C     C_R   0.549098 0.951541 0.773300 -0.018518
C67   C     C_R   0.048461 0.549096 0.773300 -0.018517
C68   C     C_R   0.386223 0.500000 1.000000 0.011546
C69   C     C_R   0.450901 0.048459 0.773300 -0.018517
C70   C     C_R   0.451549 0.049107 0.726700 -0.018518
C71   C     C_R   0.049109 0.548448 0.726700 -0.018518
C72   C     C_R   0.548451 0.950893 0.726700 -0.018518
C73   C     C_R   0.950891 0.451552 0.726700 -0.018518
C74   C     C_R   0.451547 0.950896 0.273300 -0.018518
C75   C     C_R   0.049106 0.451549 0.273300 -0.018518
C76   C     C_R   0.548453 0.049104 0.273300 -0.018518
C77   C     C_R   0.950893 0.548451 0.273300 -0.018518
C78   C     C_R   0.000034 0.173143 0.540102 -0.104267
C79   C     C_R   1.000000 0.192851 0.500000 0.038576
C80   C     C_R   0.173143 0.999962 0.540103 -0.104267
C81   C     C_R   0.999958 0.826857 0.540102 -0.104267
C82   C     C_R   0.826857 0.000050 0.540102 -0.104267
C83   C     C_R   0.000042 0.826857 0.459898 -0.104266
C84   C     C_R   0.173143 0.000038 0.459897 -0.104267
C85   C     C_R   0.999966 0.173143 0.459898 -0.104267
C86   C     C_R   0.826857 0.999950 0.459897 -0.104266
C87   C     C_R   0.500039 0.673143 0.040103 -0.104267
C88   C     C_R   0.673143 0.499973 0.040102 -0.104267
C89   C     C_R   0.499973 0.326857 0.040102 -0.104267
C90   C     C_R   0.192851 1.000000 0.500000 0.038578
C91   C     C_R   0.326857 0.500025 0.040102 -0.104266
C92   C     C_R   0.500026 0.326857 0.959898 -0.104267
C93   C     C_R   0.673143 0.500027 0.959898 -0.104266
C94   C     C_R   0.499961 0.673143 0.959897 -0.104266
C95   C     C_R   0.326857 0.499975 0.959898 -0.104266
C96   C     C_R   0.000032 0.133871 0.540152 -0.122348
C97   C     C_R   0.133871 0.999964 0.540152 -0.122346
C98   C     C_R   0.999959 0.866128 0.540151 -0.122346
C99   C     C_R   0.866128 0.000048 0.540152 -0.122347
C100  C     C_R   0.000040 0.866128 0.459848 -0.122348
C101  C     C_R   1.000000 0.807149 0.500000 0.038576
C102  C     C_R   0.133871 0.000036 0.459848 -0.122347
C103  C     C_R   0.999968 0.133871 0.459848 -0.122347
C104  C     C_R   0.866128 0.999952 0.459848 -0.122346
C105  C     C_R   0.500037 0.633871 0.040152 -0.122346
C106  C     C_R   0.633871 0.499974 0.040152 -0.122348
C107  C     C_R   0.499975 0.366129 0.040151 -0.122347
C108  C     C_R   0.366129 0.500023 0.040151 -0.122347
C109  C     C_R   0.500025 0.366129 0.959848 -0.122347
C110  C     C_R   0.633871 0.500026 0.959848 -0.122346
C111  C     C_R   0.499963 0.633871 0.959848 -0.122346
C112  C     C_R   0.427756 0.000000 0.500000 0.580183
C113  C     C_R   0.807149 1.000000 0.500000 0.038578
C114  C     C_R   0.366129 0.499977 0.959848 -0.122348
C115  C     C_1   0.926667 0.574550 0.203127 0.215597
C116  C     C_1   0.574553 0.073329 0.203127 0.215599
C117  C     C_1   0.073333 0.425450 0.203126 0.215600
C118  C     C_1   0.425447 0.926670 0.203127 0.215596
C119  C     C_1   0.926663 0.425455 0.796873 0.215598
C120  C     C_1   0.574549 0.926667 0.796873 0.215597
C121  C     C_1   0.073337 0.574545 0.796874 0.215601
C122  C     C_1   0.425451 0.073333 0.796873 0.215600
C123  C     C_1   0.426679 0.074562 0.703127 0.215596
C124  C     C_R   0.500000 0.692851 0.000000 0.038577
C125  C     C_1   0.074565 0.573316 0.703127 0.215596
C126  C     C_1   0.573321 0.925438 0.703127 0.215598
C127  C     C_1   0.925434 0.426683 0.703127 0.215596
C128  C     C_1   0.426676 0.925442 0.296873 0.215597
C129  C     C_1   0.074562 0.426679 0.296873 0.215596
C130  C     C_1   0.573324 0.074558 0.296873 0.215599
C131  C     C_1   0.925438 0.573321 0.296873 0.215597
C132  C     C_R   0.692851 0.500000 0.000000 0.038576
C133  C     C_R   0.500000 0.307149 0.000000 0.038576
C134  C     C_R   0.307149 0.500000 1.000000 0.038575
C135  C     C_1   0.000000 0.233272 0.500000 -0.009562
C136  C     C_1   0.233272 1.000000 0.500000 -0.009561
C137  C     C_1   1.000000 0.766728 0.500000 -0.009562
C138  C     C_1   0.766728 1.000000 0.500000 -0.009561
C139  C     C_1   0.500000 0.733272 0.000000 -0.009561
C140  C     C_R   0.000000 0.572244 0.500000 0.580185
C141  C     C_1   0.733272 0.500000 0.000000 -0.009561
C142  C     C_1   0.500000 0.266728 0.000000 -0.009561
C143  C     C_1   0.266728 0.500000 1.000000 -0.009561
C144  C     C_1   0.000000 0.267132 0.500000 -0.008552
C145  C     C_1   0.267132 1.000000 0.500000 -0.008552
C146  C     C_1   1.000000 0.732868 0.500000 -0.008552
C147  C     C_1   0.732868 1.000000 0.500000 -0.008552
C148  C     C_1   0.500000 0.767132 0.000000 -0.008551
C149  C     C_1   0.767132 0.500000 0.000000 -0.008551
C150  C     C_1   0.500000 0.232868 0.000000 -0.008551
C151  C     C_R   0.572244 0.000000 0.500000 0.580186
C152  C     C_1   0.232868 0.500000 1.000000 -0.008551
C153  C     C_R   0.014121 0.327220 0.536467 -0.083512
C154  C     C_R   0.327220 0.985878 0.536466 -0.083512
C155  C     C_R   0.985880 0.672780 0.536467 -0.083512
C156  C     C_R   0.672779 0.014119 0.536468 -0.083511
C157  C     C_R   0.014120 0.672779 0.463532 -0.083512
C158  C     C_R   0.327220 0.014122 0.463534 -0.083512
C159  C     C_R   0.985879 0.327220 0.463533 -0.083512
C160  C     C_R   0.672779 0.985881 0.463532 -0.083511
C161  C     C_R   0.514125 0.827220 0.036465 -0.083513
C162  C     C_R   0.500000 0.927756 0.000000 0.580179
C163  C     C_R   0.827220 0.485874 0.036465 -0.083512
C164  C     C_R   0.485880 0.172780 0.036468 -0.083511
C165  C     C_R   0.172780 0.514119 0.036468 -0.083511
C166  C     C_R   0.514119 0.172780 0.963532 -0.083511
C167  C     C_R   0.827220 0.514125 0.963535 -0.083512
C168  C     C_R   0.485874 0.827220 0.963535 -0.083512
C169  C     C_R   0.172780 0.485881 0.963532 -0.083510
C170  C     C_R   0.014230 0.366514 0.536706 0.059287
C171  C     C_R   0.366514 0.985769 0.536706 0.059287
C172  C     C_R   0.985771 0.633486 0.536707 0.059287
C173  C     C_R   0.927756 0.500000 0.000000 0.580178
C174  C     C_R   0.633486 0.014228 0.536707 0.059287
C175  C     C_R   0.014229 0.633486 0.463293 0.059287
C176  C     C_R   0.366514 0.014231 0.463294 0.059288
C177  C     C_R   0.985769 0.366514 0.463294 0.059287
C178  C     C_R   0.633486 0.985772 0.463293 0.059287
C179  C     C_R   0.514235 0.866514 0.036704 0.059288
C180  C     C_R   0.866514 0.485765 0.036704 0.059288
C181  C     C_R   0.485771 0.133486 0.036707 0.059287
C182  C     C_R   0.133486 0.514229 0.036707 0.059287
C183  C     C_R   0.514229 0.133486 0.963293 0.059287
C184  C     C_R   0.500000 0.072244 0.000000 0.580184
C185  C     C_R   0.866514 0.514235 0.963296 0.059289
C186  C     C_R   0.485765 0.866514 0.963296 0.059289
C187  C     C_R   0.133486 0.485771 0.963293 0.059287
C188  C     C_R   1.000000 0.386490 0.500000 0.038115
C189  C     C_R   0.386490 0.000000 0.500000 0.038114
C190  C     C_R   1.000000 0.613510 0.500000 0.038116
C191  C     C_R   0.613510 0.000000 0.500000 0.038117
C192  C     C_R   0.500000 0.886490 0.000000 0.038112
C193  C     C_R   0.886490 0.500000 1.000000 0.038111
C194  C     C_R   0.500000 0.113509 0.000000 0.038116
C195  C     C_R   0.072244 0.500000 1.000000 0.580184
C196  C     C_R   0.113509 0.500000 1.000000 0.038116
C197  C     C_R   1.000000 0.307555 0.500000 -0.005851
C198  C     C_R   0.307555 1.000000 0.500000 -0.005850
C199  C     C_R   1.000000 0.692445 0.500000 -0.005850
C200  C     C_R   0.692445 1.000000 0.500000 -0.005850
C201  C     C_R   0.500000 0.807555 0.000000 -0.005850
C202  C     C_R   0.807555 0.500000 1.000000 -0.005850
C203  C     C_R   0.500000 0.192445 0.000000 -0.005850
C204  C     C_R   0.192445 0.500000 1.000000 -0.005851
C205  C     C_R   0.072176 0.000000 0.500000 0.549302
C206  C     C_R   0.000000 0.113777 0.500000 0.011547
C207  C     C_R   1.000000 0.927824 0.500000 0.549303
C208  C     C_R   0.927824 0.000000 0.500000 0.549303
C209  C     C_R   0.000000 0.072176 0.500000 0.549302
C210  C     C_R   0.572176 0.500000 0.000000 0.549302
C211  C     C_R   0.500000 0.427824 1.000000 0.549303
C212  C     C_R   0.427824 0.500000 0.000000 0.549303
C213  C     C_R   0.500000 0.572176 0.000000 0.549302
C214  C     C_R   1.000000 0.500000 0.414332 0.566133
C215  C     C_R   0.500000 0.000000 0.414332 0.566133
C216  C     C_R   0.000000 0.500000 0.585668 0.566134
Cu1   Cu    Cu3+1 0.962710 0.500000 0.500000 1.050531
Cu2   Cu    Cu3+1 0.000000 0.000000 0.544430 0.948136
Cu3   Cu    Cu3+1 0.500000 0.500000 0.955570 0.948137
Cu4   Cu    Cu3+1 0.500000 0.500000 0.044430 0.948136
Cu5   Cu    Cu3+1 0.500000 0.037290 0.500000 1.050531
Cu6   Cu    Cu3+1 0.037290 0.500000 0.500000 1.050531
Cu7   Cu    Cu3+1 0.500000 0.962710 0.500000 1.050531
Cu8   Cu    Cu3+1 0.462710 0.000000 0.000000 1.050532
Cu9   Cu    Cu3+1 0.000000 0.537290 0.000000 1.050532
Cu10  Cu    Cu3+1 0.537290 0.000000 0.000000 1.050532
Cu11  Cu    Cu3+1 0.000000 0.462710 0.000000 1.050532
Cu12  Cu    Cu3+1 0.000000 0.000000 0.455570 0.948136
H1    H     H_    0.040674 0.456222 0.137808 0.147773
H2    H     H_    0.956214 0.459335 0.637809 0.147773
H3    H     H_    0.459332 0.043784 0.637809 0.147771
H4    H     H_    0.043786 0.540665 0.637809 0.147774
H5    H     H_    0.540669 0.043782 0.362191 0.147774
H6    H     H_    0.956216 0.540667 0.362191 0.147773
H7    H     H_    0.459330 0.956218 0.362191 0.147771
H8    H     H_    0.043784 0.459332 0.362191 0.147772
H9    H     H_    0.000062 0.188128 0.571342 0.124359
H10   H     H_    0.188128 0.999931 0.571343 0.124359
H11   H     H_    0.999923 0.811872 0.571341 0.124360
H12   H     H_    0.456221 0.959327 0.137808 0.147768
H13   H     H_    0.811872 0.000091 0.571342 0.124358
H14   H     H_    0.000077 0.811872 0.428658 0.124359
H15   H     H_    0.188128 0.000069 0.428657 0.124359
H16   H     H_    0.999938 0.188128 0.428658 0.124360
H17   H     H_    0.811872 0.999909 0.428658 0.124359
H18   H     H_    0.500070 0.688128 0.071342 0.124360
H19   H     H_    0.688128 0.499950 0.071342 0.124361
H20   H     H_    0.499952 0.311872 0.071342 0.124361
H21   H     H_    0.311872 0.500045 0.071341 0.124361
H22   H     H_    0.500048 0.311872 0.928658 0.124361
H23   H     H_    0.959325 0.543777 0.137808 0.147768
H24   H     H_    0.688128 0.500050 0.928658 0.124361
H25   H     H_    0.499930 0.688128 0.928658 0.124359
H26   H     H_    0.311872 0.499954 0.928659 0.124361
H27   H     H_    0.000059 0.119289 0.571627 0.137196
H28   H     H_    0.119289 0.999933 0.571628 0.137196
H29   H     H_    0.999926 0.880711 0.571627 0.137197
H30   H     H_    0.880711 0.000088 0.571627 0.137195
H31   H     H_    0.000074 0.880711 0.428373 0.137196
H32   H     H_    0.119289 0.000067 0.428372 0.137195
H33   H     H_    0.999941 0.119289 0.428373 0.137197
H34   H     H_    0.543779 0.040672 0.137808 0.147773
H35   H     H_    0.880711 0.999912 0.428372 0.137196
H36   H     H_    0.500068 0.619289 0.071628 0.137196
H37   H     H_    0.619289 0.499953 0.071627 0.137196
H38   H     H_    0.499954 0.380711 0.071627 0.137197
H39   H     H_    0.380711 0.500043 0.071627 0.137197
H40   H     H_    0.500045 0.380711 0.928373 0.137197
H41   H     H_    0.619289 0.500047 0.928373 0.137197
H42   H     H_    0.499932 0.619289 0.928372 0.137196
H43   H     H_    0.380711 0.499957 0.928373 0.137196
H44   H     H_    0.024911 0.312036 0.564847 0.149522
H45   H     H_    0.040676 0.543775 0.862192 0.147772
H46   H     H_    0.312036 0.975087 0.564847 0.149521
H47   H     H_    0.975091 0.687964 0.564848 0.149521
H48   H     H_    0.687964 0.024907 0.564850 0.149521
H49   H     H_    0.024909 0.687964 0.435151 0.149521
H50   H     H_    0.312035 0.024913 0.435154 0.149522
H51   H     H_    0.975089 0.312035 0.435153 0.149522
H52   H     H_    0.687964 0.975093 0.435150 0.149521
H53   H     H_    0.524919 0.812036 0.064844 0.149521
H54   H     H_    0.812035 0.475081 0.064844 0.149522
H55   H     H_    0.475091 0.187964 0.064849 0.149522
H56   H     H_    0.456222 0.040674 0.862192 0.147772
H57   H     H_    0.187965 0.524908 0.064849 0.149523
H58   H     H_    0.524909 0.187964 0.935151 0.149522
H59   H     H_    0.812035 0.524919 0.935156 0.149522
H60   H     H_    0.475081 0.812035 0.935156 0.149521
H61   H     H_    0.187964 0.475092 0.935151 0.149523
H62   H     H_    0.959323 0.456225 0.862192 0.147768
H63   H     H_    0.543777 0.959325 0.862192 0.147768
H64   H     H_    0.540667 0.956216 0.637808 0.147774
I1    I     I_    0.034692 0.393917 0.594333 -0.331286
I2    I     I_    0.893917 0.465297 0.094329 -0.331280
I3    I     I_    0.465312 0.106082 0.094336 -0.331290
I4    I     I_    0.106082 0.534687 0.094336 -0.331291
I5    I     I_    0.534688 0.106082 0.905664 -0.331290
I6    I     I_    0.893917 0.534702 0.905671 -0.331280
I7    I     I_    0.465297 0.893917 0.905671 -0.331280
I8    I     I_    0.106082 0.465313 0.905664 -0.331292
I9    I     I_    0.393917 0.965306 0.594332 -0.331286
I10   I     I_    0.965311 0.606082 0.594335 -0.331288
I11   I     I_    0.606082 0.034686 0.594336 -0.331292
I12   I     I_    0.034689 0.606082 0.405665 -0.331289
I13   I     I_    0.393917 0.034694 0.405668 -0.331285
I14   I     I_    0.965308 0.393917 0.405666 -0.331286
I15   I     I_    0.606082 0.965314 0.405664 -0.331292
I16   I     I_    0.534702 0.893917 0.094329 -0.331280
N1    N     N_1   0.906844 0.594816 0.184371 -0.251542
N2    N     N_1   0.094837 0.593135 0.684372 -0.251541
N3    N     N_1   0.593140 0.905168 0.684372 -0.251540
N4    N     N_1   0.905163 0.406865 0.684372 -0.251542
N5    N     N_1   0.406856 0.905173 0.315628 -0.251541
N6    N     N_1   0.094832 0.406860 0.315628 -0.251541
N7    N     N_1   0.593144 0.094827 0.315628 -0.251540
N8    N     N_1   0.905168 0.593140 0.315628 -0.251540
N9    N     N_1   0.594820 0.093151 0.184372 -0.251539
N10   N     N_1   0.093156 0.405184 0.184371 -0.251539
N11   N     N_1   0.405179 0.906849 0.184371 -0.251542
N12   N     N_1   0.906839 0.405189 0.815628 -0.251543
N13   N     N_1   0.594816 0.906844 0.815628 -0.251542
N14   N     N_1   0.093160 0.594811 0.815629 -0.251539
N15   N     N_1   0.405184 0.093156 0.815629 -0.251539
N16   N     N_1   0.406860 0.094832 0.684372 -0.251542
O1    O     O_R   0.968510 0.445600 0.500050 -0.487399
O2    O     O_R   0.945600 0.531490 0.000050 -0.487399
O3    O     O_R   0.531490 0.054400 0.000050 -0.487401
O4    O     O_R   0.054400 0.468510 0.000050 -0.487400
O5    O     O_R   0.468510 0.054400 0.999950 -0.487400
O6    O     O_R   0.945600 0.468510 0.999950 -0.487399
O7    O     O_R   0.531490 0.945600 0.999950 -0.487399
O8    O     O_R   0.054400 0.531490 0.999950 -0.487401
O9    O     O_R   0.968500 0.499990 0.435180 -0.497763
O10   O     O_R   0.499990 0.031500 0.435180 -0.497762
O11   O     O_R   0.031500 0.500010 0.435180 -0.497763
O12   O     O_R   0.445600 0.031490 0.500050 -0.487399
O13   O     O_R   0.500010 0.968500 0.435180 -0.497763
O14   O     O_R   0.968500 0.500010 0.564820 -0.497764
O15   O     O_R   0.499990 0.968500 0.564820 -0.497763
O16   O     O_R   0.031500 0.499990 0.564820 -0.497764
O17   O     O_R   0.500010 0.031500 0.564820 -0.497764
O18   O     O_R   0.468500 0.999990 0.935180 -0.497761
O19   O     O_R   0.999990 0.531500 0.935180 -0.497760
O20   O     O_R   0.531500 0.000010 0.935180 -0.497762
O21   O     O_R   0.000010 0.468500 0.935180 -0.497762
O22   O     O_R   0.468500 0.000010 0.064820 -0.497763
O23   O     O_R   0.031490 0.554400 0.500050 -0.487400
O24   O     O_R   0.999990 0.468500 0.064820 -0.497761
O25   O     O_R   0.531500 0.999990 0.064820 -0.497761
O26   O     O_R   0.000010 0.531500 0.064820 -0.497763
O27   O     O_R   0.054230 0.999960 0.462480 -0.507531
O28   O     O_R   0.999960 0.945770 0.462480 -0.507531
O29   O     O_R   0.945770 0.000040 0.462480 -0.507529
O30   O     O_R   0.000040 0.054230 0.462480 -0.507529
O31   O     O_R   0.054230 0.000040 0.537520 -0.507529
O32   O     O_R   0.999960 0.054230 0.537520 -0.507531
O33   O     O_R   0.945770 0.999960 0.537520 -0.507531
O34   O     O_R   0.554400 0.968510 0.500050 -0.487400
O35   O     O_R   0.000040 0.945770 0.537520 -0.507529
O36   O     O_R   0.554230 0.499960 0.962480 -0.507529
O37   O     O_R   0.499960 0.445770 0.962480 -0.507529
O38   O     O_R   0.445770 0.500040 0.962480 -0.507531
O39   O     O_R   0.500040 0.554230 0.962480 -0.507530
O40   O     O_R   0.554230 0.500040 0.037520 -0.507531
O41   O     O_R   0.499960 0.554230 0.037520 -0.507530
O42   O     O_R   0.445770 0.499960 0.037520 -0.507529
O43   O     O_R   0.500040 0.445770 0.037520 -0.507530
O44   O     O_R   0.968510 0.554400 0.499950 -0.487400
O45   O     O_R   0.445600 0.968510 0.499950 -0.487399
O46   O     O_R   0.031490 0.445600 0.499950 -0.487399
O47   O     O_R   0.554400 0.031490 0.499950 -0.487401
O48   O     O_R   0.468510 0.945600 0.000050 -0.487399

loop_
_geom_bond_atom_site_label_1
_geom_bond_atom_site_label_2
_ccdc_geom_bond_type
C8    C26   A    
C92   C133  A    
C103  C206  A    
C18   C47   A    
C162  C192  S    
C207  O28   A    
C41   C67   A    
C129  N6    T    
C9    C27   A    
C49   C60   A    
C50   C59   A    
Cu11  O6    S    
C87   C124  A    
C92   C109  A    
C1    O46   A    
Cu12  O28   S    
C151  O47   A    
C167  C185  A    
C94   C111  A    
C64   C118  S    
Cu8   O48   S    
C195  O8    A    
C112  C189  S    
C22   H6    S    
C32   C215  S    
C66   C72   A    
C45   C56   A    
C78   C96   A    
C61   C115  S    
C4    O20   A    
C208  O29   A    
C85   C103  A    
C174  C191  A    
Cu7   O15   S    
C216  O14   A    
C114  H43   S    
C17   C30   A    
C39   C65   A    
C147  C200  S    
C150  C203  S    
C109  H40   S    
C36   C62   A    
Cu2   Cu12  S    
C37   C63   A    
C38   C64   A    
Cu4   O41   S    
C5    O19   A    
C48   C74   A    
C137  C146  T    
C168  C186  A    
Cu11  O24   S    
C169  C187  A    
C18   H2    S    
C101  C137  S    
C99   H30   S    
C172  C190  A    
C46   C210  S    
C162  O48   A    
C34   C61   A    
Cu11  O4    S    
C50   C76   A    
C42   C55   A    
C11   C27   A    
C162  O7    A    
C40   C55   A    
Cu4   O42   S    
C9    H12   S    
C103  H33   S    
C181  C194  A    
C207  O35   A    
Cu10  O3    S    
C16   C40   A    
C97   H28   S    
C83   C100  A    
C46   C110  A    
Cu9   O8    S    
C179  I16   S    
Cu3   O39   S    
C79   C85   A    
C106  H37   S    
C211  O37   A    
C173  O6    A    
C12   H45   S    
C92   H22   S    
C15   H62   S    
C176  C189  A    
C38   C53   A    
C158  C198  A    
C102  H32   S    
C69   C70   A    
C156  H48   S    
C157  H49   S    
C195  C196  S    
Cu7   O13   S    
Cu10  O7    S    
C140  O44   A    
C117  N10   T    
C18   C31   A    
C111  H42   S    
C24   C104  A    
C19   C30   A    
C35   C213  S    
C57   C211  S    
Cu4   O43   S    
C80   C97   A    
C108  H39   S    
C159  H51   S    
C124  C139  S    
C160  H52   S    
C6    O25   A    
C86   C104  A    
Cu8   O18   S    
C81   C101  A    
Cu9   O26   S    
C62   C116  S    
C83   H14   S    
C133  C142  S    
C177  C188  A    
C115  N1    T    
C165  C204  A    
C17   C45   A    
C205  O31   A    
C169  H61   S    
C154  C198  A    
C39   C54   A    
C2    C102  A    
C128  N5    T    
C183  C194  A    
C88   C106  A    
C185  I6    S    
C77   C131  S    
C167  C202  A    
C165  H57   S    
C7    O26   A    
C210  O36   A    
C164  C181  A    
C52   C60   A    
C76   C130  S    
Cu6   O11   S    
C61   C77   A    
C153  C170  A    
C49   C75   A    
C36   C53   A    
C161  C179  A    
C93   C132  A    
Cu3   O37   S    
C122  N15   T    
C23   H7    S    
C134  C143  S    
C100  H31   S    
Cu1   O44   S    
Cu12  O29   S    
C84   C90   A    
C67   C121  S    
C20   C44   A    
C213  O41   A    
Cu1   O9    S    
C139  C148  T    
C89   C133  A    
C209  O30   A    
C25   H8    S    
C195  O4    A    
C37   C52   A    
Cu4   O40   S    
C85   H16   S    
C57   C109  A    
C35   C105  A    
C210  O40   A    
C3    O17   A    
C8    H1    S    
C87   C105  A    
C131  N8    T    
C86   H17   S    
C16   H63   S    
C216  O16   A    
C14   C29   A    
C68   C212  S    
C155  C199  A    
C48   C59   A    
Cu2   O32   S    
C132  C141  S    
C83   C101  A    
C180  I2    S    
C181  I3    S    
C152  C204  S    
C82   C113  A    
C182  I4    S    
C93   H24   S    
C184  O5    A    
Cu1   O1    S    
C93   C110  A    
C186  I7    S    
C145  C198  S    
C169  C204  A    
C171  I9    S    
C91   C134  A    
C63   C75   A    
C69   C122  S    
C184  C194  S    
C46   C106  A    
C112  O45   A    
Cu9   Cu11  S    
C154  C171  A    
C166  C203  A    
Cu2   O31   S    
C182  C196  A    
C170  C188  A    
C174  I11   S    
C51   C60   A    
C173  O2    A    
C149  C202  S    
C180  C193  A    
C25   C33   A    
C55   C56   A    
C209  O32   A    
C187  C196  A    
C82   C99   A    
C175  C190  A    
C127  N4    T    
C156  C174  A    
C12   C28   A    
C86   C113  A    
C165  C182  A    
C3    O15   A    
C63   C117  S    
C161  H53   S    
C158  H50   S    
C81   C98   A    
C95   C114  A    
C84   C102  A    
C119  N12   T    
C177  I14   S    
C11   H34   S    
C154  H46   S    
C167  H59   S    
C155  C172  A    
C168  H60   S    
C21   H5    S    
C144  C197  S    
C2    C97   A    
C44   C58   A    
C4    C29   S    
C170  I1    S    
Cu6   O46   S    
C40   C66   A    
C215  O13   A    
C62   C76   A    
Cu5   O10   S    
C19   C43   A    
C123  N16   T    
C47   C73   A    
C155  H47   S    
C94   H25   S    
Cu3   Cu4   S    
Cu12  O27   S    
C14   H56   S    
C73   C127  S    
C24   C208  S    
C95   C134  A    
C81   H11   S    
C82   H13   S    
C72   C126  S    
C212  O38   A    
C51   C77   A    
C215  O10   A    
C12   C41   A    
C164  C203  A    
C120  N13   T    
C163  H54   S    
C89   C107  A    
C107  H38   S    
C65   C119  S    
Cu12  O30   S    
C7    C26   S    
C95   H26   S    
C166  H58   S    
C98   H29   S    
C143  C152  T    
C78   H9    S    
C173  C193  S    
C153  H44   S    
C8    C37   A    
C112  O12   A    
C91   H21   S    
Cu1   Cu6   S    
C91   C108  A    
C205  O27   A    
C166  C183  A    
Cu11  O21   S    
C33   C214  S    
C17   H64   S    
C79   C135  S    
C118  N11   T    
C34   C52   A    
C184  O3    A    
C23   C32   A    
C142  C150  T    
C178  I15   S    
C15   C28   A    
C105  H36   S    
C176  I13   S    
C84   H15   S    
C67   C71   A    
C25   C49   A    
C159  C197  A    
Cu9   O19   S    
C64   C74   A    
C113  C138  S    
C71   C125  S    
C21   C50   A    
C125  N2    T    
Cu5   O12   S    
C183  I5    S    
C47   C58   A    
C163  C202  A    
C20   H4    S    
C24   C99   A    
C140  C190  S    
C208  O33   A    
C53   C59   A    
C141  C149  T    
Cu8   O5    S    
C160  C200  A    
Cu7   O45   S    
C161  C201  A    
C11   C36   A    
Cu2   O35   S    
C153  C197  A    
C146  C199  S    
C65   C73   A    
C168  C201  A    
C171  C189  A    
C44   C71   A    
C10   H23   S    
C80   H10   S    
C13   C98   A    
Cu10  O20   S    
C9    C38   A    
C213  O39   A    
C70   C123  S    
C74   C128  S    
C179  C192  A    
C214  O11   A    
C13   C207  S    
C104  H35   S    
C15   C39   A    
C140  O23   A    
C136  C145  T    
Cu3   O36   S    
C14   C42   A    
C10   C26   A    
C151  C191  S    
C66   C120  S    
C45   C72   A    
C186  C192  A    
C156  C200  A    
C159  C177  A    
C7    O24   A    
Cu6   O23   S    
C211  O43   A    
C148  C201  S    
C21   C32   A    
C151  O34   A    
Cu5   O17   S    
Cu5   O47   S    
C78   C79   A    
C31   C216  S    
C16   C29   A    
C42   C69   A    
C5    O21   A    
C164  H55   S    
C157  C199  A    
C3    C30   S    
Cu6   O16   S    
C5    C28   S    
C90   C136  S    
C43   C56   A    
C96   C206  A    
C6    C27   S    
Cu7   O34   S    
C138  C147  T    
C160  C178  A    
C10   C34   A    
C2    C205  S    
Cu3   O38   S    
C126  N3    T    
C157  C175  A    
C158  C176  A    
C135  C144  T    
C57   C107  A    
C172  I10   S    
C43   C70   A    
C4    O18   A    
C88   C132  A    
C187  I8    S    
Cu10  O25   S    
C35   C111  A    
C87   H18   S    
C54   C58   A    
C1    C188  S    
C22   C33   A    
C130  N7    T    
C23   C48   A    
Cu9   O2    S    
C212  O42   A    
C96   H27   S    
C185  C193  A    
Cu8   Cu10  S    
C110  H41   S    
C116  N9    T    
Cu2   O33   S    
Cu1   O14   S    
C175  I12   S    
C89   H20   S    
C13   C100  A    
Cu5   Cu7   S    
C88   H19   S    
C178  C191  A    
C206  C209  S    
Cu8   O22   S    
C214  O9    A    
C80   C90   A    
C41   C54   A    
C121  N14   T    
C163  C180  A    
C68   C108  A    
C6    O22   A    
C19   H3    S    
C1    O1    A    
C75   C129  S    
C68   C114  A    
C22   C51   A    
C20   C31   A    
C94   C124  A    
