data_mof_unit_45418.cif
_audit_creation_date              2012-12-11T20:37:34-0500
_audit_creation_method            fapswitch 2.2
_symmetry_space_group_name_H-M    P1
_symmetry_Int_Tables_number       1
_space_group_crystal_system       triclinic
_cell_length_a                    8.255622
_cell_length_b                    18.854156
_cell_length_c                    22.749687
_cell_angle_alpha                 96.568011
_cell_angle_beta                  89.063496
_cell_angle_gamma                 93.833369
_cell_volume                      3509.80592969

loop_
_atom_site_label
_atom_site_type_symbol
_atom_type_description
_atom_site_fract_x
_atom_site_fract_y
_atom_site_fract_z
_atom_type_partial_charge
Ba1   Ba    Ba6+2 0.849480 0.533290 0.473010 1.713891
Ba2   Ba    Ba6+2 0.340340 0.466770 0.527000 1.689523
C1    C     C_3   0.633546 0.787498 0.294928 -0.190491
C2    C     C_R   0.041554 0.574051 0.946581 -0.029581
C3    C     C_R   0.993931 0.571468 0.886808 0.589565
C4    C     C_3   0.152997 0.733122 0.319236 0.288941
C5    C     C_R   0.976075 0.443018 0.876899 0.589806
C6    C     C_R   0.024728 0.443713 0.936482 -0.027582
C7    C     C_R   0.057377 0.509726 0.971452 -0.049856
C8    C     C_R   0.074100 0.639521 0.982072 -0.072292
C9    C     C_R   0.121418 0.641197 0.041010 -0.072763
C10   C     C_R   0.138391 0.577461 0.066458 -0.023451
C11   C     C_R   0.106430 0.511460 0.031491 -0.053234
C12   C     C_3   0.629609 0.723554 0.330872 0.396493
C13   C     C_R   0.042482 0.380006 0.961895 -0.074087
C14   C     C_R   0.091811 0.381735 0.020686 -0.063490
C15   C     C_R   0.124206 0.447229 0.056236 -0.033798
C16   C     C_3   0.096004 0.754405 0.260969 -0.274582
C17   C     C_R   0.174574 0.449962 0.115803 0.612562
C18   C     C_R   0.186014 0.578318 0.126088 0.588874
C19   C     C_2   0.761631 0.489528 0.772689 -0.098038
C20   C     C_3   0.716300 0.494775 0.708449 -0.013812
C21   C     C_1   0.002156 0.519856 0.689137 0.025757
C22   C     C_2   0.043606 0.523172 0.745556 -0.086633
C23   C     C_3   0.520208 0.379603 0.347380 0.308387
C24   C     C_2   0.917527 0.505284 0.790772 0.235069
C25   C     C_R   0.399765 0.550176 0.232329 -0.097949
C26   C     C_R   0.442161 0.553152 0.292251 -0.028955
C27   C     C_R   0.190120 0.486989 0.312993 -0.020675
C28   C     C_3   0.054867 0.694863 0.628863 0.157149
C29   C     C_R   0.144508 0.485231 0.253386 -0.077758
C30   C     C_R   0.248648 0.517127 0.212333 0.229029
C31   C     C_2   0.863843 0.488610 0.669135 -0.246111
C32   C     C_2   0.384150 0.705977 0.492156 -0.180313
C33   C     C_3   0.318633 0.745245 0.444593 -0.071902
C34   C     C_3   0.528795 0.370870 0.280086 -0.367888
C35   C     C_2   0.357218 0.825017 0.457438 -0.084949
C36   C     C_2   0.492507 0.849320 0.488646 -0.034180
C37   C     C_2   0.586897 0.795840 0.515331 -0.158090
C38   C     C_1   0.526261 0.728802 0.515398 -0.011322
C39   C     C_R   0.660949 0.066555 0.499334 0.473710
C40   C     C_3   0.099236 0.771763 0.658334 -0.178760
C41   C     C_R   0.549727 0.926473 0.494410 0.518467
C42   C     C_R   0.626375 0.191605 0.476123 -0.119251
C43   C     C_R   0.678025 0.264024 0.478996 0.034853
C44   C     C_R   0.921348 0.241902 0.529459 0.020228
C45   C     C_3   0.176423 0.307937 0.679554 0.336128
C46   C     C_R   0.869998 0.169035 0.527576 -0.149600
C47   C     C_R   0.720672 0.143113 0.501007 -0.059724
C48   C     C_R   0.824530 0.288770 0.505591 -0.249940
C49   C     C_3   0.114032 0.306231 0.320572 0.406019
C50   C     C_3   0.002954 0.251153 0.280425 0.028003
C51   C     C_3   0.533412 0.707443 0.655847 0.469996
C52   C     C_3   0.601579 0.783802 0.674948 -0.386617
C53   C     C_2   0.004793 0.827761 0.634101 0.796435
C54   C     C_2   0.085558 0.776894 0.725061 0.875931
C55   C     C_3   0.157957 0.219771 0.392581 -0.113783
C56   C     C_3   0.180616 0.283682 0.740935 -0.333150
C57   C     C_2   0.902330 0.284119 0.237555 0.848127
C58   C     C_3   0.019339 0.130516 0.226125 -0.203674
C59   C     C_3   0.595496 0.661171 0.750575 -0.161053
C60   C     C_2   0.594086 0.855055 0.332082 0.801091
C61   C     C_3   0.680137 0.304819 0.668303 0.305061
C62   C     C_3   0.700731 0.233649 0.691721 -0.324448
C63   C     C_R   0.334247 0.524374 0.332162 -0.279920
H1    H     H_    0.691773 0.738771 0.373922 0.081146
H2    H     H_    0.545147 0.775581 0.258207 0.070544
H3    H     H_    0.395489 0.391022 0.362098 -0.016713
H4    H     H_    0.603352 0.425930 0.363745 0.083580
H5    H     H_    0.478412 0.316953 0.261894 0.150742
H6    H     H_    0.457686 0.410529 0.261695 0.061442
H7    H     H_    0.656646 0.379290 0.265477 0.147468
H8    H     H_    0.755794 0.796152 0.274951 0.080355
H9    H     H_    0.054322 0.809565 0.267668 0.120146
H10   H     H_    0.302652 0.313849 0.662857 0.107351
H11   H     H_    0.118644 0.359914 0.683164 0.037931
H12   H     H_    0.228253 0.785267 0.647389 0.006031
H13   H     H_    0.240228 0.232358 0.738958 0.123624
H14   H     H_    0.250101 0.324715 0.771203 0.126499
H15   H     H_    0.055251 0.276248 0.758600 0.146260
H16   H     H_    0.801524 0.333779 0.666115 -0.019629
H17   H     H_    0.628045 0.293065 0.623196 0.025646
H18   H     H_    0.780619 0.200944 0.661443 0.103137
H19   H     H_    0.580735 0.203816 0.694625 0.116295
H20   H     H_    0.186700 0.676539 0.312134 0.010163
H21   H     H_    0.755883 0.242813 0.736357 0.142992
H22   H     H_    0.104116 0.331381 0.038297 0.129633
H23   H     H_    0.185399 0.340287 0.291391 -0.028285
H24   H     H_    0.018731 0.328398 0.936277 0.123687
H25   H     H_    0.144935 0.692817 0.066642 0.121474
H26   H     H_    0.484306 0.572355 0.201324 0.095011
H27   H     H_    0.063004 0.689900 0.964356 0.126287
H28   H     H_    0.167665 0.538521 0.759084 0.102215
H29   H     H_    0.667073 0.478338 0.804695 0.086227
H30   H     H_    0.028372 0.460148 0.239059 0.145721
H31   H     H_    0.368505 0.526626 0.378074 0.069153
H32   H     H_    0.260899 0.769129 0.332906 0.025575
H33   H     H_    0.859603 0.453873 0.627523 0.049578
H34   H     H_    0.916926 0.223684 0.309984 0.075864
H35   H     H_    0.286595 0.861086 0.435993 0.110629
H36   H     H_    0.704473 0.812129 0.534783 0.143676
H37   H     H_    0.512635 0.173499 0.454734 0.085250
H38   H     H_    0.944379 0.133460 0.547739 0.116208
H39   H     H_    0.310551 0.663209 0.509817 0.046188
H40   H     H_    0.863659 0.344950 0.507696 0.080571
H41   H     H_    0.198229 0.753402 0.228668 0.127530
H42   H     H_    0.995175 0.716665 0.242944 0.154346
H43   H     H_    0.060697 0.694845 0.580252 0.097320
H44   H     H_    0.933866 0.675581 0.644035 0.074109
H45   H     H_    0.428218 0.710947 0.627209 0.013693
H46   H     H_    0.868586 0.913039 0.650252 0.326717
H47   H     H_    0.999656 0.733599 0.797282 0.347977
H48   H     H_    0.315506 0.244892 0.325035 0.205715
H49   H     H_    0.096913 0.171159 0.368262 0.080764
H50   H     H_    0.256178 0.202317 0.419097 0.108402
H51   H     H_    0.070641 0.247219 0.423137 0.107633
H52   H     H_    0.696130 0.275031 0.190252 0.311539
H53   H     H_    0.180508 0.219134 0.216967 0.215882
H54   H     H_    0.110279 0.093086 0.207554 0.123299
H55   H     H_    0.932159 0.137268 0.190837 0.143127
H56   H     H_    0.509296 0.814323 0.701204 0.122350
H57   H     H_    0.954171 0.106742 0.263026 0.125762
H58   H     H_    0.372996 0.693691 0.726811 0.203892
H59   H     H_    0.627323 0.711472 0.779585 0.119181
H60   H     H_    0.543504 0.620685 0.778606 0.094663
H61   H     H_    0.707318 0.641099 0.728784 0.143781
H62   H     H_    0.440330 0.933792 0.348609 0.328991
H63   H     H_    0.634087 0.811567 0.635741 0.084289
H64   H     H_    0.711246 0.783193 0.702299 0.163151
H65   H     H_    0.500364 0.706908 0.339421 -0.198767
N1    N     N_R   0.961779 0.506493 0.852684 -0.427994
N2    N     N_R   0.202272 0.515037 0.150464 -0.429567
N3    N     N_R   0.515137 0.043576 0.474724 -0.243542
N4    N     N_R   0.460868 0.975189 0.472260 -0.243193
N5    N     N_R   0.695126 0.949392 0.519521 -0.212964
N6    N     N_R   0.749526 0.017970 0.522005 -0.227539
N7    N     N_2   0.226528 0.267668 0.351791 -0.411747
N8    N     N_2   0.101288 0.198687 0.247326 -0.463065
N9    N     N_2   0.476296 0.673348 0.707349 -0.392997
O1    O     O_2   0.898140 0.461210 0.359840 -0.449319
O2    O     O_2   0.261457 0.248358 0.544640 -0.489091
O3    O     O_3   0.086975 0.256505 0.641888 -0.632877
O4    O     O_3   0.138540 0.461940 0.430900 -0.461176
O5    O     O_3   0.557600 0.585010 0.531050 -0.449165
O6    O     O_2   0.379790 0.327560 0.468300 -0.447969
O7    O     O_3   0.563244 0.316170 0.368092 -0.626855
O8    O     O_2   0.385891 0.447576 0.704706 -0.509492
O9    O     O_3   0.575332 0.344533 0.706432 -0.605738
O10   O     O_2   0.980388 0.627145 0.865187 -0.594996
O11   O     O_2   0.947588 0.385949 0.846484 -0.602715
O12   O     O_3   0.652897 0.666846 0.625854 -0.628371
O13   O     O_2   0.196025 0.394385 0.136516 -0.556901
O14   O     O_2   0.212045 0.635543 0.156444 -0.618591
O15   O     O_3   0.654260 0.589640 0.397760 -0.484393
O16   O     O_2   0.771682 0.535579 0.292930 -0.480949
O17   O     O_3   0.019868 0.346999 0.362847 -0.623790
O18   O     O_3   0.712170 0.669055 0.298250 -0.586429
O19   O     O_2   0.809910 0.672460 0.531740 -0.463138
O20   O     O_3   0.065030 0.625960 0.427320 -0.473284
O21   O     O_2   0.986927 0.753933 0.476014 -0.417644
O22   O     O_2   0.009218 0.832983 0.581115 -0.585303
O23   O     O_3   0.028395 0.741372 0.361773 -0.568091
O24   O     O_R   0.922857 0.877265 0.672153 -0.734300
O25   O     O_2   0.149141 0.829012 0.755057 -0.567765
O26   O     O_R   0.001627 0.722694 0.752632 -0.776185
O27   O     O_2   0.960752 0.332280 0.210735 -0.613917
O28   O     O_R   0.746836 0.253470 0.223827 -0.762790
O29   O     O_2   0.688539 0.882249 0.370315 -0.594570
O30   O     O_R   0.452389 0.887940 0.321420 -0.762874
O31   O     O_2   0.291560 0.538810 0.640200 -0.422069
O32   O     O_3   0.051160 0.538120 0.569110 -0.480469
O33   O     O_3   0.535440 0.410410 0.602240 -0.475766
O34   O     O_3   0.173884 0.651507 0.644298 -0.636023
O35   O     O_3   0.632100 0.415050 0.468960 -0.472677
O36   O     O_3   0.124670 0.374100 0.572690 -0.491993
P1    P     P_3+3 0.069200 0.440380 0.368230 1.022414
P2    P     P_3+3 0.634560 0.662100 0.548650 1.004599
P3    P     P_3+3 0.100253 0.718375 0.428502 1.008984
P4    P     P_3+3 0.120500 0.559680 0.631780 1.031012
P5    P     P_3+3 0.103057 0.280273 0.569738 0.942297
P6    P     P_3+3 0.644322 0.586352 0.320256 0.977681
P7    P     P_3+3 0.561540 0.327693 0.445458 0.983298
P8    P     P_3+3 0.553819 0.426843 0.679681 0.959591

loop_
_geom_bond_atom_site_label_1
_geom_bond_atom_site_label_2
_ccdc_geom_bond_type
C51   H45   S    
C42   C47   A    
C60   O29   D    
C19   C24   D    
Ba1   P1    S    
O2    P5    D    
Ba2   O5    S    
C9    H25   S    
O35   P7    S    
C39   N3    A    
N5    N6    A    
C55   H50   S    
C51   C52   S    
Ba2   O6    S    
C45   O3    S    
C35   C36   D    
C4    H20   S    
C61   H16   S    
C59   H59   S    
C32   C38   D    
Ba1   O19   S    
C33   C35   S    
O19   P2    D    
C22   C24   S    
C45   H11   S    
C32   C33   S    
C36   C37   S    
Ba2   O36   S    
O12   P2    S    
C19   H29   S    
O34   P4    S    
C13   C14   A    
O15   P6    S    
H58   N9    S    
C17   N2    Am   
C3    O10   D    
C58   H54   S    
C31   H33   S    
C62   H21   S    
C60   O30   S    
C7    C11   A    
C16   H42   S    
C62   H19   S    
C40   C54   S    
Ba1   P2    S    
C63   H31   S    
O3    P5    S    
C4    O23   S    
C6    C7    A    
C21   C31   D    
C54   O26   S    
C14   H22   S    
C50   N8    S    
C21   C22   D    
C25   H26   S    
C23   O7    S    
C28   O34   S    
C21   P4    S    
C34   H6    S    
C56   H15   S    
Ba2   O32   S    
C33   P3    S    
C8    H27   S    
C16   H9    S    
C19   C20   S    
Ba2   O4    S    
O32   P4    S    
C23   H3    S    
O18   P6    S    
O4    P1    S    
C18   N2    Am   
C39   C47   S    
C34   H5    S    
C43   P7    S    
C37   H36   S    
C55   H51   S    
C4    C16   S    
C44   C46   A    
Ba1   O35   S    
C18   O14   D    
O7    P7    S    
C12   O18   S    
C49   C50   S    
C4    H32   S    
C44   P5    S    
C5    C6    A    
H46   O24   S    
C53   O22   D    
C37   C38   D    
C42   H37   S    
C14   C15   A    
C61   H17   S    
C46   H38   S    
C52   H63   S    
O6    P7    D    
Ba1   O32   S    
C32   H39   S    
C38   P2    S    
C41   N4    A    
C41   N5    A    
C26   P6    S    
C16   H41   S    
C62   H18   S    
C20   P8    S    
Ba1   O4    S    
C50   C57   S    
C40   C53   S    
C13   H24   S    
C5    O11   D    
C29   C30   A    
C48   H40   S    
Ba1   O20   S    
O1    P1    D    
C10   C18   A    
C17   O13   D    
C12   H1    S    
C55   N7    S    
O5    P2    S    
C58   H57   S    
Ba1   O1    S    
O21   P3    D    
C59   H61   S    
C57   O27   D    
C56   H14   S    
Ba2   O31   S    
C27   C63   A    
C49   N7    S    
C46   C47   A    
C52   H56   S    
C6    C13   A    
N3    N4    A    
H48   N7    S    
C23   H4    S    
Ba2   P4    S    
C27   P1    S    
C2    C8    A    
C61   O9    S    
C30   N2    S    
C57   O28   S    
C42   C43   A    
C12   H65   S    
C1    C60   S    
O8    P8    D    
C49   O17   S    
C20   C31   S    
C44   C48   A    
C28   H44   S    
O17   P1    S    
C28   H43   S    
C25   C30   A    
C51   N9    S    
C5    N1    Am   
C52   H64   S    
C1    H2    S    
C2    C3    A    
C49   H23   S    
C9    C10   A    
O16   P6    D    
O36   P5    S    
C1    C12   S    
H62   O30   S    
C54   O25   D    
C50   H34   S    
C11   C15   A    
O31   P4    D    
C26   C63   A    
C53   O24   S    
C36   C41   S    
C27   C29   A    
Ba1   O5    S    
C22   H28   S    
Ba2   O35   S    
C45   C56   S    
O33   P8    S    
C55   H49   S    
C43   C48   A    
H52   O28   S    
O9    P8    S    
C29   H30   S    
H47   O26   S    
Ba1   Ba2   S    
C15   C17   A    
C58   H55   S    
C35   H35   S    
Ba1   O15   S    
C1    H8    S    
C59   N9    S    
O23   P3    S    
C8    C9    A    
C56   H13   S    
C23   C34   S    
C45   H10   S    
C61   C62   S    
C3    N1    Am   
C10   C11   A    
C40   H12   S    
C58   N8    S    
C25   C26   A    
C51   O12   S    
C28   C40   S    
C59   H60   S    
O20   P3    S    
C2    C7    A    
H53   N8    S    
C39   N6    A    
C24   N1    S    
C34   H7    S    
Ba2   O33   S    
