data_mof_unit_33297.cif
_audit_creation_date              2013-03-05T16:50:08-0500
_audit_creation_method            fapswitch 2.2
_symmetry_space_group_name_H-M    P1
_symmetry_Int_Tables_number       1
_space_group_crystal_system       triclinic
_cell_length_a                    27.766699
_cell_length_b                    10.823587
_cell_length_c                    26.500305
_cell_angle_alpha                 91.058827
_cell_angle_beta                  89.487701
_cell_angle_gamma                 91.027791
_cell_volume                      7961.34031596

loop_
_atom_site_label
_atom_site_type_symbol
_atom_site_description
_atom_site_fract_x
_atom_site_fract_y
_atom_site_fract_z
_atom_type_partial_charge
O1    O     O_R   0.500000 0.319660 0.542350 -0.596865
O2    O     O_R   0.500000 0.680340 0.457650 -0.593650
O3    O     O_R   0.500000 0.319630 0.457650 -0.532987
O4    O     O_R   0.500000 0.680370 0.542350 -0.576330
C1    C     C_R   0.498832 0.261975 0.499564 0.844082
C2    C     C_R   0.501059 0.737990 0.500401 0.835772
O5    O     O_R   0.430260 0.500030 0.542340 -0.536802
O6    O     O_R   0.569740 0.499970 0.457660 -0.559416
O7    O     O_R   0.430270 0.500010 0.457650 -0.598075
O8    O     O_R   0.569730 0.499990 0.542350 -0.603671
C3    C     C_R   0.407295 0.498974 0.500208 0.838712
C4    C     C_R   0.592688 0.501377 0.499822 0.850049
Cu1   Cu    Cu3+1 0.500000 0.500020 0.550150 0.989393
Cu2   Cu    Cu3+1 0.500000 0.499980 0.449850 0.996623
O9    O     O_2   0.508332 0.720203 0.787942 -0.581732
O10   O     O_2   0.484883 0.285624 0.211094 -0.601998
C5    C     C_R   0.507712 0.726914 0.057016 -0.302829
C6    C     C_R   0.502775 0.277224 0.942889 -0.305537
C7    C     C_R   0.175653 0.378682 0.498694 0.541202
C8    C     C_R   0.825031 0.621842 0.492777 0.542994
O11   O     O_2   0.198664 0.270599 0.492824 -0.565893
O12   O     O_2   0.802593 0.728671 0.483753 -0.557111
N1    N     N_R   0.201643 0.486917 0.502624 -0.462358
N2    N     N_R   0.798496 0.516063 0.500665 -0.464623
C9    C     C_R   0.179580 0.598220 0.508271 0.571800
C10   C     C_R   0.820206 0.407088 0.511032 0.560298
C11   C     C_R   0.278272 0.491706 0.456311 -0.149206
C12   C     C_R   0.720984 0.499498 0.544792 -0.134494
C13   C     C_R   0.328473 0.496793 0.455547 -0.221198
C14   C     C_R   0.670920 0.492345 0.544615 -0.243788
C15   C     C_R   0.329050 0.486639 0.546929 -0.278259
C16   C     C_R   0.671377 0.528634 0.454611 -0.288360
C17   C     C_R   0.278755 0.481560 0.547790 -0.007807
C18   C     C_R   0.721747 0.533274 0.454427 0.008638
C19   C     C_R   0.253238 0.484417 0.502255 0.316384
C20   C     C_R   0.746782 0.518943 0.499879 0.315949
C21   C     C_R   0.101624 0.493502 0.507134 -0.050906
C22   C     C_R   0.898537 0.508492 0.505702 -0.049356
C23   C     C_R   0.125081 0.379833 0.501042 0.003597
C24   C     C_R   0.875576 0.619752 0.494618 0.010706
C25   C     C_R   0.097599 0.270613 0.496768 -0.177110
C26   C     C_R   0.903511 0.725760 0.485350 -0.207749
C27   C     C_R   0.129206 0.603603 0.510632 -0.085843
C28   C     C_R   0.870552 0.401729 0.514241 -0.076076
C29   C     C_R   0.354286 0.494681 0.500860 -0.029291
C30   C     C_R   0.645661 0.506875 0.499573 -0.020118
H1    H     H_    0.348380 0.484139 0.582233 0.199676
H2    H     H_    0.652328 0.541709 0.419647 0.154437
H3    H     H_    0.114635 0.182386 0.490294 0.187600
H4    H     H_    0.886966 0.811346 0.474837 0.187137
C31   C     C_R   0.972253 0.389569 0.515654 -0.041124
C32   C     C_R   0.027507 0.612866 0.511330 -0.063143
C33   C     C_R   0.976981 0.615225 0.503975 0.080378
C34   C     C_R   0.023191 0.385243 0.509227 0.084817
C35   C     C_R   0.949374 0.504289 0.508458 -0.000634
C36   C     C_R   0.050632 0.497202 0.509294 -0.003109
C37   C     C_R   0.943579 0.284396 0.529272 0.433744
C38   C     C_R   0.055950 0.720932 0.521501 0.435930
C39   C     C_R   0.892886 0.292946 0.527790 -0.267251
C40   C     C_R   0.106159 0.716021 0.518320 -0.237427
H5    H     H_    0.511345 0.816546 0.040396 0.147380
H6    H     H_    0.502288 0.187693 0.959792 0.141582
H7    H     H_    0.437579 0.601789 0.727966 0.158195
H8    H     H_    0.552542 0.360011 0.273402 0.164817
O13   O     O_2   0.793052 0.303948 0.518005 -0.554818
O14   O     O_2   0.206419 0.703213 0.511884 -0.549684
C41   C     C_R   0.047570 0.273295 0.500334 -0.142315
C42   C     C_R   0.953341 0.723568 0.489837 -0.176415
H9    H     H_    0.652013 0.475547 0.579819 0.150504
H10   H     H_    0.347022 0.503077 0.419548 0.152093
H11   H     H_    0.739967 0.487724 0.579851 0.142917
H12   H     H_    0.258705 0.494834 0.421212 0.141724
H13   H     H_    0.870100 0.215976 0.538656 0.193339
H14   H     H_    0.126947 0.800928 0.523513 0.194920
H15   H     H_    0.028506 0.186917 0.493523 0.183362
H16   H     H_    0.972931 0.806562 0.479698 0.189385
H17   H     H_    0.408585 0.266106 0.292714 0.172622
H18   H     H_    0.633871 0.750471 0.683688 0.149060
C43   C     C_R   0.398247 0.240844 0.372483 -0.205522
C44   C     C_R   0.624004 0.770498 0.603804 -0.216026
H19   H     H_    0.366705 0.298085 0.374513 0.141205
H20   H     H_    0.655244 0.716642 0.594014 0.144343
C45   C     C_R   0.414948 0.184245 0.416074 0.482726
C46   C     C_R   0.596016 0.821494 0.565705 0.498506
C47   C     C_R   0.457072 0.113142 0.413377 0.034757
C48   C     C_R   0.554368 0.888016 0.579159 0.040272
C49   C     C_R   0.479929 0.093967 0.366454 -0.188967
C50   C     C_R   0.544022 0.911121 0.630458 -0.257267
H21   H     H_    0.511888 0.038249 0.363578 0.148189
H22   H     H_    0.513502 0.966674 0.641486 0.154959
C51   C     C_R   0.462256 0.148099 0.323140 -0.115788
C52   C     C_R   0.572358 0.860892 0.667920 -0.115157
H23   H     H_    0.480337 0.133027 0.287310 0.187118
H24   H     H_    0.563486 0.877133 0.707313 0.175034
C53   C     C_R   0.421786 0.222628 0.326211 -0.181533
C54   C     C_R   0.612070 0.789807 0.654604 -0.181505
C55   C     C_R   0.479420 0.929914 0.460746 -0.290851
C56   C     C_R   0.520042 0.069901 0.539288 -0.295837
H25   H     H_    0.462939 0.875417 0.430541 0.150747
H26   H     H_    0.537245 0.124673 0.568961 0.159786
C57   C     C_R   0.501670 0.871795 0.500851 -0.035122
C58   C     C_R   0.498028 0.128119 0.499044 -0.043331
C59   C     C_R   0.523695 0.942241 0.539904 0.037674
C60   C     C_R   0.477978 0.057715 0.458823 0.039837
H27   H     H_    0.505013 0.812427 0.874371 0.182416
H28   H     H_    0.487361 0.193023 0.124917 0.178653
H29   H     H_    0.504203 0.817005 0.963330 0.131692
H30   H     H_    0.489497 0.188545 0.036096 0.132707
C61   C     C_R   0.505369 0.610291 0.189341 0.568461
C62   C     C_R   0.504103 0.392459 0.810400 0.574750
O15   O     O_2   0.514135 0.714523 0.216614 -0.512206
O16   O     O_2   0.501693 0.286425 0.782934 -0.503370
N3    N     N_R   0.498850 0.500663 0.213935 -0.442657
N4    N     N_R   0.505291 0.502909 0.785863 -0.446671
C63   C     C_R   0.493002 0.392366 0.186800 0.539445
C64   C     C_R   0.506324 0.612370 0.812685 0.540357
C65   C     C_R   0.529675 0.421750 0.294866 -0.334296
C66   C     C_R   0.466316 0.559966 0.706128 -0.308503
C67   C     C_R   0.530250 0.423212 0.348325 0.642085
C68   C     C_R   0.465154 0.559883 0.652933 0.611117
C69   C     C_R   0.469577 0.575587 0.350116 -0.047051
C70   C     C_R   0.536831 0.443665 0.649233 -0.036358
C71   C     C_R   0.468287 0.576323 0.297325 -0.248816
C72   C     C_R   0.539783 0.445372 0.701989 -0.246603
C73   C     C_R   0.498868 0.499476 0.268888 0.306654
C74   C     C_R   0.504118 0.503751 0.731106 0.312167
C75   C     C_R   0.500161 0.502982 0.107586 -0.113766
C76   C     C_R   0.504765 0.501263 0.892058 -0.113756
C77   C     C_R   0.504166 0.614493 0.135797 -0.127931
C78   C     C_R   0.504486 0.388992 0.863977 -0.123105
C79   C     C_R   0.506640 0.726899 0.109850 0.481014
C80   C     C_R   0.504874 0.276690 0.890030 0.479774
C81   C     C_R   0.494949 0.391231 0.133585 0.011806
C82   C     C_R   0.505601 0.613507 0.865934 0.007646
N5    N     N_R   0.500000 0.499970 0.374520 -0.198526
N6    N     N_R   0.500000 0.500030 0.625480 -0.196580
H31   H     H_    0.445879 0.635103 0.371700 0.142519
H32   H     H_    0.564220 0.396858 0.627289 0.145028
H33   H     H_    0.443461 0.636180 0.278711 0.157659
H34   H     H_    0.569483 0.400784 0.720060 0.154865
C83   C     C_R   0.504671 0.616027 0.973661 0.089321
C84   C     C_R   0.498808 0.388710 0.025947 0.089061
C85   C     C_R   0.501734 0.388140 0.972023 -0.019754
C86   C     C_R   0.504659 0.616365 0.027678 -0.023421
C87   C     C_R   0.503871 0.501736 0.946113 0.067132
C88   C     C_R   0.501212 0.502783 0.053532 0.066658
C89   C     C_R   0.504991 0.726538 0.945869 -0.209466
C90   C     C_R   0.493245 0.278614 0.053609 -0.207063
C91   C     C_R   0.505347 0.724920 0.893392 -0.164046
C92   C     C_R   0.491331 0.280264 0.106031 -0.164356
O17   O     O_3   0.426873 0.610949 0.628217 -0.603112
C93   C     C_3   0.425202 0.739230 0.638394 0.044785
H35   H     H_    0.461797 0.782385 0.637335 0.157515
H36   H     H_    0.408447 0.756965 0.676053 0.146344
C94   C     C_3   0.394648 0.799171 0.598243 -0.315093
H37   H     H_    0.409036 0.775350 0.560101 0.217982
H38   H     H_    0.357006 0.762904 0.600821 0.225551
C95   C     C_3   0.394769 0.939423 0.604857 -0.903416
H39   H     H_    0.379575 0.965998 0.642339 0.265783
H40   H     H_    0.372510 0.979695 0.575102 0.258067
H41   H     H_    0.431941 0.977870 0.601264 0.263284
O18   O     O_3   0.556367 0.339048 0.375488 -0.582755
C96   C     C_3   0.603984 0.323499 0.357289 0.015005
H42   H     H_    0.628424 0.334533 0.390039 0.171075
H43   H     H_    0.616262 0.393709 0.329478 0.121482
C97   C     C_3   0.609506 0.192075 0.336028 -0.358225
H44   H     H_    0.600578 0.124848 0.366078 0.227474
H45   H     H_    0.584133 0.175374 0.304373 0.221562
C98   C     C_3   0.660818 0.170265 0.317320 -0.870093
H46   H     H_    0.670132 0.234337 0.286310 0.260975
H47   H     H_    0.663820 0.073783 0.302822 0.263245
H48   H     H_    0.686768 0.184800 0.348631 0.258154
O19   O     O_3   0.966121 0.184856 0.551627 -0.622600
C99   C     C_3   0.940933 0.070277 0.546632 0.024893
H49   H     H_    0.967865 0.997652 0.539592 0.196926
H50   H     H_    0.917071 0.064200 0.513060 0.133003
C100  C     C_3   0.914332 0.040607 0.596120 -0.348606
H51   H     H_    0.940979 0.015501 0.625052 0.220279
H52   H     H_    0.895127 0.123102 0.610753 0.229536
C101  C     C_3   0.877902 0.934637 0.589209 -0.883025
H53   H     H_    0.850703 0.958293 0.560624 0.275084
H54   H     H_    0.859079 0.917192 0.625591 0.255947
H55   H     H_    0.896336 0.849073 0.577064 0.259269
O20   O     O_3   0.035009 0.830848 0.536642 -0.649856
C102  C     C_3   0.042529 0.852973 0.588919 0.036896
H56   H     H_    0.034884 0.951828 0.596918 0.184978
H57   H     H_    0.080608 0.839610 0.600216 0.147347
C103  C     C_3   0.008394 0.773157 0.621149 -0.367429
H58   H     H_    0.970847 0.783706 0.608218 0.233024
H59   H     H_    0.017943 0.674266 0.616801 0.220412
C104  C     C_3   0.011403 0.809921 0.676890 -0.888168
H60   H     H_    0.048603 0.797735 0.690812 0.262599
H61   H     H_    0.986409 0.750479 0.699107 0.259725
H62   H     H_    0.001026 0.907816 0.682690 0.251787
O21   O     O_3   0.391222 0.203898 0.461456 -0.630714
C105  C     C_3   0.354629 0.112525 0.466491 -0.000625
H63   H     H_    0.371004 0.023002 0.476287 0.153628
H64   H     H_    0.333321 0.099742 0.431163 0.145173
C106  C     C_3   0.320004 0.152026 0.508641 -0.325880
H65   H     H_    0.340281 0.169469 0.544098 0.223102
H66   H     H_    0.302688 0.239320 0.498065 0.257631
C107  C     C_3   0.280819 0.053924 0.517573 -0.794015
H67   H     H_    0.258853 0.039637 0.483055 0.276112
H68   H     H_    0.256822 0.084799 0.548905 0.272975
H69   H     H_    0.296984 0.964814 0.527842 0.245468
O22   O     O_3   0.607222 0.799593 0.515316 -0.645627
C108  C     C_3   0.648631 0.869266 0.501073 0.047841
H70   H     H_    0.665062 0.821348 0.467899 0.193584
H71   H     H_    0.676878 0.873815 0.530730 0.144028
C109  C     C_3   0.634808 0.999849 0.485658 -0.382995
H72   H     H_    0.605185 0.993900 0.457709 0.237631
H73   H     H_    0.621969 0.052403 0.519403 0.213011
C110  C     C_3   0.677518 0.070026 0.462620 -0.845766
H74   H     H_    0.707485 0.077952 0.490050 0.282001
H75   H     H_    0.666343 0.164475 0.452658 0.252058
H76   H     H_    0.690293 0.021709 0.427798 0.259212
O23   O     O_3   0.508558 0.838580 0.136098 -0.563231
C111  C     C_3   0.462611 0.893160 0.135674 0.055568
H77   H     H_    0.432326 0.823677 0.134162 0.122887
H78   H     H_    0.460363 0.953511 0.102277 0.132097
C112  C     C_3   0.456185 0.971169 0.183896 -0.285472
H79   H     H_    0.456327 0.910158 0.217152 0.240856
H80   H     H_    0.486740 0.038155 0.187743 0.249826
C113  C     C_3   0.408856 0.040743 0.183737 -0.908087
H81   H     H_    0.407753 0.103604 0.151140 0.260845
H82   H     H_    0.405468 0.096718 0.219061 0.271811
H83   H     H_    0.377880 0.974540 0.181573 0.248898
O24   O     O_3   0.504201 0.164965 0.863636 -0.560916
C114  C     C_3   0.547881 0.102433 0.870694 0.050329
H84   H     H_    0.543747 0.040630 0.903586 0.134212
H85   H     H_    0.579276 0.166639 0.877284 0.124157
C115  C     C_3   0.558709 0.024689 0.823294 -0.278524
H86   H     H_    0.526826 0.965823 0.813643 0.257614
H87   H     H_    0.566075 0.086930 0.791126 0.235231
C116  C     C_3   0.602154 0.942703 0.830596 -0.922382
H88   H     H_    0.634750 0.000285 0.838849 0.253119
H89   H     H_    0.608792 0.887401 0.795594 0.264360
H90   H     H_    0.595440 0.878348 0.862157 0.262699
C117  C     C_1   0.253674 0.474068 0.595557 0.262899
N7    N     N_1   0.233503 0.468052 0.633855 -0.270608
C118  C     C_1   0.747175 0.549125 0.407230 0.265890
N8    N     N_1   0.767591 0.561807 0.369368 -0.268911

loop_
_geom_bond_atom_site_label_1
_geom_bond_atom_site_label_2
_geom_bond_distance
_ccdc_geom_bond_type
C16   H2    1.083797 S    
C97   H45   1.110466 S    
C113  H83   1.110737 S    
H28   C92   1.080286 S    
C49   C51   1.395306 A    
C11   C13   1.394002 A    
C98   H47   1.110317 S    
C98   H46   1.110822 S    
C84   C88   1.424019 A    
C33   C35   1.419195 A    
C6    C80   1.401359 A    
C117  N7    1.157135 T    
C44   C46   1.406407 A    
C113  H81   1.110416 S    
C9    C27   1.401756 A    
C104  H61   1.110341 S    
C111  H77   1.118549 S    
C41   H15   1.079161 S    
C10   C28   1.403592 A    
C23   C25   1.398863 A    
O19   C99   1.417442 S    
C101  H53   1.110910 S    
O5    C3    1.290479 A    
C40   H14   1.083692 S    
N2    C20   1.437170 S    
C107  H68   1.110361 S    
C103  C104  1.525328 S    
O1    C1    1.284607 A    
C103  H59   1.110989 S    
C6    C85   1.415876 A    
C96   H43   1.115259 S    
C90   C92   1.389548 A    
O18   C96   1.415128 S    
C114  C115  1.529558 S    
C80   O24   1.385666 S    
N4    C74   1.451951 S    
C48   C50   1.405749 A    
C76   C87   1.432397 A    
C71   C73   1.404081 A    
C86   C88   1.419749 A    
C94   H38   1.111836 S    
Cu2   N5    1.996266 S    
C28   C39   1.394855 A    
C38   C40   1.397834 A    
C56   C59   1.387678 A    
C106  C107  1.526616 S    
C71   H33   1.082654 S    
C52   C54   1.394904 A    
O20   C102  1.418192 S    
C38   O20   1.384722 S    
C118  N8    1.157164 T    
C2    C57   1.447876 S    
C69   H31   1.081654 S    
O4    Cu1   1.966741 S    
C33   C42   1.412325 A    
C8    N2    1.368644 A    
C99   H49   1.106833 S    
C115  H86   1.110365 S    
C95   H41   1.109892 S    
C5    H5    1.075559 S    
C7    O11   1.348816 S    
C21   C36   1.417765 A    
C22   C35   1.415694 A    
C96   H42   1.109852 S    
H18   C54   1.082328 S    
C100  H52   1.110225 S    
C107  H69   1.110490 S    
C108  C109  1.534740 S    
C116  H88   1.110730 S    
C15   C17   1.396618 A    
C31   C37   1.427413 A    
C44   C54   1.396388 A    
C39   H13   1.078866 S    
C31   C35   1.421593 A    
C101  H55   1.107387 S    
C61   N3    1.372678 A    
C24   C26   1.397691 A    
O17   C93   1.411016 S    
C106  H65   1.111118 S    
C57   C59   1.411341 A    
C112  H80   1.110215 S    
C15   H1    1.083774 S    
Cu1   Cu2   2.657975 S    
C94   C95   1.524841 S    
C95   H40   1.106721 S    
C116  H89   1.110422 S    
O2    C2    1.283564 A    
C105  C106  1.527323 S    
C48   C59   1.486047 S    
O8    C4    1.290022 A    
C67   O18   1.389651 S    
C25   H3    1.083414 S    
O24   C114  1.415023 S    
C55   H25   1.085136 S    
C101  H54   1.110200 S    
C66   C68   1.410319 A    
C110  H75   1.110794 S    
C18   C118  1.442255 S    
C32   C38   1.422514 A    
C34   C36   1.419814 A    
C107  H67   1.110852 S    
C9    O14   1.350124 S    
C47   C49   1.404689 A    
C104  H60   1.110833 S    
C55   C60   1.386452 A    
C84   C90   1.415931 A    
C96   C97   1.530053 S    
C70   H32   1.080849 S    
C44   H20   1.080771 S    
O4    C2    1.284513 A    
C83   C86   1.431398 A    
C43   H19   1.082226 S    
H7    C66   1.082376 S    
O22   C108  1.415903 S    
C6    H6    1.074876 S    
C102  C103  1.535444 S    
C34   C41   1.413499 A    
C63   C81   1.410591 A    
C11   C19   1.399351 A    
O23   C111  1.415734 S    
C56   C58   1.399425 A    
C82   C91   1.396943 A    
H17   C53   1.082249 S    
C115  C116  1.526101 S    
C67   N5    1.367801 A    
H8    C65   1.080725 S    
C108  H70   1.111071 S    
C76   C78   1.413100 A    
C103  H58   1.108827 S    
C68   N6    1.370260 A    
C16   C18   1.398567 A    
C43   C53   1.396784 A    
C21   C27   1.407029 A    
C78   C80   1.409214 A    
O7    Cu2   1.945344 S    
C75   C77   1.411152 A    
C22   C28   1.401653 A    
C114  H84   1.112372 S    
C17   C117  1.442200 S    
C76   C82   1.409087 A    
C5    C79   1.400152 A    
C51   H23   1.081169 S    
C112  H79   1.111049 S    
H29   C89   1.075731 S    
C111  H78   1.112506 S    
C93   C94   1.527811 S    
C110  H74   1.110883 S    
O6    C4    1.290894 A    
C100  C101  1.525185 S    
C52   H24   1.082387 S    
H30   C90   1.075674 S    
C50   C52   1.396215 A    
C42   H16   1.078790 S    
C69   N5    1.362283 A    
C58   C60   1.411409 A    
O7    C3    1.290879 A    
C99   C100  1.535679 S    
C70   N6    1.364676 A    
C47   C60   1.482888 S    
C7    C23   1.405316 A    
C27   C40   1.395703 A    
C26   H4    1.083449 S    
C37   O19   1.399240 S    
C4    C30   1.470977 S    
C45   C47   1.412151 A    
C50   H22   1.082807 S    
C100  H51   1.110951 S    
C56   H26   1.085025 S    
C5    C86   1.416516 A    
C61   C77   1.421214 A    
C95   H39   1.110705 S    
C116  H90   1.110641 S    
C3    C29   1.471742 S    
C12   H11   1.082962 S    
O1    Cu1   1.959253 S    
C70   C72   1.400951 A    
O10   C63   1.347456 S    
C106  H66   1.109487 S    
C14   H9    1.083107 S    
C32   C33   1.418869 A    
C7    N1    1.367673 A    
C111  C112  1.529456 S    
C72   C74   1.402171 A    
C13   H10   1.082745 S    
C93   H36   1.112240 S    
C110  H76   1.110783 S    
C85   C87   1.419340 A    
C62   N4    1.371115 A    
C1    C58   1.448383 S    
C68   O17   1.382477 S    
O6    Cu2   1.949320 S    
Cu1   N6    1.996266 S    
C89   C91   1.390413 A    
C115  H87   1.111545 S    
O9    C64   1.349280 S    
C10   O13   1.350473 S    
C16   C30   1.405035 A    
C72   H34   1.082668 S    
C81   C92   1.396557 A    
C75   C81   1.407627 A    
C8    O12   1.349458 S    
C105  H63   1.113649 S    
O3    C1    1.283927 A    
O8    Cu1   1.945341 S    
C113  H82   1.109814 S    
C37   C39   1.413231 A    
N4    C64   1.370306 A    
O3    Cu2   1.966743 S    
C112  C113  1.526403 S    
C109  C110  1.525754 S    
H27   C91   1.081328 S    
C109  H73   1.110449 S    
C14   C30   1.402571 A    
C79   O23   1.383880 S    
C31   C34   1.424566 A    
C65   C67   1.416716 A    
C104  H62   1.110621 S    
C114  H85   1.117968 S    
C22   C24   1.409573 A    
N2    C10   1.367669 A    
C102  H56   1.110764 S    
C97   H44   1.111948 S    
C8    C24   1.405360 A    
C61   O15   1.348150 S    
N3    C73   1.456580 S    
C12   C14   1.390924 A    
C83   C87   1.424641 A    
C17   C19   1.405881 A    
C99   H50   1.114289 S    
C62   C78   1.421109 A    
C18   C20   1.408504 A    
C26   C42   1.390438 A    
C25   C41   1.392295 A    
C45   O21   1.380954 S    
O2    Cu2   1.959253 S    
N1    C19   1.433317 S    
C62   O16   1.348586 S    
C69   C71   1.399932 A    
C105  H64   1.117065 S    
C102  H57   1.114127 S    
C83   C89   1.416074 A    
C75   C88   1.432431 A    
C51   C53   1.395899 A    
O21   C105  1.412337 S    
C43   C45   1.403814 A    
C46   O22   1.385478 S    
O5    Cu1   1.949320 S    
N1    C9    1.366436 A    
C64   C82   1.410907 A    
C93   H35   1.111024 S    
C12   C20   1.400928 A    
C97   C98   1.525312 S    
C21   C23   1.408358 A    
C109  H72   1.111991 S    
C15   C29   1.405507 A    
C13   C29   1.404696 A    
C94   H37   1.111123 S    
C108  H71   1.115107 S    
C49   H21   1.083178 S    
C84   C85   1.430503 A    
C46   C48   1.412759 A    
C98   H48   1.110960 S    
C66   C74   1.400102 A    
N3    C63   1.371684 A    
C65   C73   1.403962 A    
C55   C57   1.399044 A    
C11   H12   1.082756 S    
C32   C36   1.417114 A    
C77   C79   1.408833 A    
