data_mof_unit_29872.cif
_audit_creation_date              2013-03-05T16:11:29-0500
_audit_creation_method            fapswitch 2.2
_symmetry_space_group_name_H-M    P1
_symmetry_Int_Tables_number       1
_space_group_crystal_system       triclinic
_cell_length_a                    9.48723
_cell_length_b                    10.792102
_cell_length_c                    17.222051
_cell_angle_alpha                 88.647416
_cell_angle_beta                  85.780455
_cell_angle_gamma                 90.737221
_cell_volume                      1757.85861996

loop_
_atom_site_label
_atom_site_type_symbol
_atom_site_description
_atom_site_fract_x
_atom_site_fract_y
_atom_site_fract_z
_atom_type_partial_charge
O1    O     O_R   0.379740 0.682430 0.499960 -0.606393
O2    O     O_R   0.620260 0.682190 0.500020 -0.609843
C1    C     C_R   0.501341 0.739553 0.498375 0.765790
O3    O     O_R   0.365800 0.500150 0.613560 -0.621262
O4    O     O_R   0.606310 0.499910 0.613620 -0.520443
C2    C     C_R   0.481572 0.505540 0.649744 0.864697
Cu1   Cu    Cu3+1 0.357600 0.500140 0.499960 0.942971
Cu2   Cu    Cu3+1 0.642400 0.499860 0.500040 0.967916
O5    O     O_R   0.379740 0.317810 0.499980 -0.568236
O6    O     O_R   0.620260 0.317570 0.500040 -0.580372
O7    O     O_R   0.393690 0.500090 0.386380 -0.560008
O8    O     O_R   0.634200 0.499850 0.386440 -0.603683
C3    C     C_R   0.498955 0.259389 0.502117 0.858603
C4    C     C_R   0.518819 0.497265 0.349972 0.851360
C5    C     C_R   0.473643 0.523100 0.733805 -0.028222
C6    C     C_R   0.586421 0.582887 0.766769 -0.117174
C7    C     C_R   0.584808 0.595110 0.846890 -0.050660
C8    C     C_R   0.470387 0.547557 0.894692 0.192106
C9    C     C_R   0.353862 0.494440 0.862058 -0.092266
C10   C     C_R   0.355717 0.481625 0.781669 -0.138489
C11   C     C_R   0.449539 0.426502 0.142147 -0.247604
C12   C     C_R   0.431803 0.427440 0.223121 0.349716
C13   C     C_R   0.646223 0.554335 0.223929 -0.226772
C14   C     C_R   0.662734 0.554250 0.142512 0.216890
C15   C     C_R   0.564102 0.487873 0.101850 0.020905
C16   C     C_2   0.476124 0.545946 0.979076 -0.364201
C17   C     C_2   0.574138 0.483281 0.016546 0.310556
C18   C     C_R   0.531632 0.491959 0.264702 -0.195889
H1    H     H_    0.676382 0.619410 0.730640 0.169107
H2    H     H_    0.721391 0.605480 0.255766 0.156063
H3    H     H_    0.264729 0.458109 0.898986 0.159941
H4    H     H_    0.374554 0.375596 0.110029 0.194816
H5    H     H_    0.267777 0.435579 0.757539 0.163084
H6    H     H_    0.393999 0.595650 0.012382 0.157359
H7    H     H_    0.674319 0.638022 0.871892 0.145748
C19   C     C_3   0.418584 0.929735 0.433239 -0.387192
H8    H     H_    0.306077 0.898495 0.441314 0.202847
H9    H     H_    0.462425 0.894973 0.376217 0.163720
C20   C     C_3   0.425538 0.072345 0.431760 -0.329782
H10   H     H_    0.487996 0.104390 0.377579 0.199173
H11   H     H_    0.318814 0.110848 0.427107 0.253312
H12   H     H_    0.323879 0.875594 0.586274 0.189175
C21   C     C_3   0.432725 0.916341 0.578831 -0.401500
C22   C     C_3   0.655767 0.930399 0.490803 -0.372053
C23   C     C_3   0.502860 0.876568 0.499885 0.049463
H13   H     H_    0.718106 0.894336 0.538564 0.201449
H14   H     H_    0.709572 0.901356 0.434655 0.175372
C24   C     C_3   0.498131 0.120006 0.503692 -0.069899
C25   C     C_3   0.427524 0.060823 0.583393 0.566643
C26   C     C_3   0.653468 0.072579 0.492982 -0.396083
H15   H     H_    0.707215 0.111329 0.437847 0.179113
H16   H     H_    0.717011 0.103905 0.540511 0.250515
H17   H     H_    0.488133 0.872638 0.626802 0.173514
C27   C     C_3   0.907391 0.386927 0.539636 0.337985
H18   H     H_    0.876993 0.304557 0.506431 0.065675
C28   C     C_3   0.074976 0.383289 0.538735 -0.002211
H19   H     H_    0.108303 0.301691 0.503841 0.175959
H20   H     H_    0.892486 0.415231 0.387197 0.175959
H21   H     H_    0.135844 0.417742 0.386498 0.225436
C29   C     C_3   0.927536 0.498384 0.418030 -0.298998
C30   C     C_3   0.914636 0.612025 0.534029 -0.191461
N1    N     N_3   0.856560 0.499750 0.498270 -0.190691
H22   H     H_    0.888381 0.695948 0.499468 0.139598
H23   H     H_    0.862288 0.627260 0.592490 0.192040
N2    N     N_3   0.143860 0.496700 0.498910 -0.158174
C31   C     C_3   0.094596 0.499236 0.418469 -0.225230
C32   C     C_3   0.080212 0.607972 0.537035 -0.175375
H24   H     H_    0.108992 0.613653 0.598079 0.165313
H25   H     H_    0.125004 0.693666 0.507291 0.155340
H26   H     H_    0.894686 0.580060 0.383441 0.173181
H27   H     H_    0.138471 0.582834 0.385647 0.169099
C33   C     C_3   0.781483 0.628520 0.100178 -0.788214
H28   H     H_    0.854345 0.566515 0.066777 0.270707
H29   H     H_    0.737614 0.696748 0.059481 0.225329
H30   H     H_    0.844034 0.680292 0.141148 0.223697
N3    N     N_R   0.277423 0.092659 0.599308 0.070941
O9    O     O_R   0.188234 0.079094 0.546217 -0.436615
O10   O     O_R   0.225722 0.090911 0.671546 -0.322092
N4    N     N_R   0.315808 0.358067 0.261544 0.110688
O11   O     O_R   0.194291 0.354585 0.231109 -0.373163
O12   O     O_R   0.337978 0.280921 0.318239 -0.420555
N5    N     N_R   0.506499 0.105408 0.648635 0.131415
O13   O     O_R   0.483227 0.215835 0.675103 -0.318944
O14   O     O_R   0.603704 0.039320 0.678683 -0.326766
N6    N     N_R   0.837462 0.370100 0.618582 0.151134
O15   O     O_R   0.856354 0.448769 0.673128 -0.390568
O16   O     O_R   0.775129 0.264964 0.638271 -0.284853
C34   C     C_3   0.125112 0.353194 0.620219 -0.546083
H31   H     H_    0.062772 0.274376 0.648044 0.270292
H32   H     H_    0.234286 0.320730 0.617345 0.269893
H33   H     H_    0.114581 0.432706 0.659328 0.215683
N7    N     N_R   0.675167 0.401156 0.978208 0.143435
O17   O     O_R   0.651707 0.352234 0.911942 -0.279234
O18   O     O_R   0.776961 0.356415 0.016569 -0.333473

loop_
_geom_bond_atom_site_label_1
_geom_bond_atom_site_label_2
_geom_bond_distance
_ccdc_geom_bond_type
C9    C10   1.393441 A    
C8    C16   1.457986 S    
C9    H3    1.083436 S    
Cu1   Cu2   2.702106 S    
C20   H11   1.107014 S    
N6    O15   1.301493 A    
Cu1   O7    1.960862 S    
C16   C17   1.349929 D    
C19   H8    1.113099 S    
N3    O10   1.302895 A    
C12   N4    1.434465 S    
O3    Cu1   1.963687 S    
H21   C31   1.108977 S    
O4    C2    1.298654 A    
O7    C4    1.302177 A    
C28   C34   1.543270 S    
H20   C29   1.112945 S    
C28   N2    1.506443 S    
C28   H19   1.113900 S    
C29   N1    1.492505 S    
C8    C9    1.398915 A    
C30   H22   1.113011 S    
O5    C3    1.304397 A    
C2    C5    1.461073 S    
C21   H17   1.110500 S    
C22   H13   1.113647 S    
C6    C7    1.388210 A    
N2    C32   1.495105 S    
C26   H16   1.108224 S    
C13   C14   1.399417 A    
C22   H14   1.113399 S    
C24   C26   1.565793 S    
C29   C31   1.585427 S    
C12   C18   1.414564 A    
C11   C12   1.392603 A    
C33   H30   1.110807 S    
C16   H6    1.087806 S    
C26   H15   1.114023 S    
N6    O16   1.298909 A    
C5    C10   1.401967 A    
C11   H4    1.084467 S    
C27   C28   1.589857 S    
C32   H24   1.108342 S    
C13   H2    1.084228 S    
C17   N7    1.447945 S    
C14   C15   1.407843 A    
C33   H29   1.110434 S    
C20   H10   1.113344 S    
N4    O12   1.298895 A    
C21   C25   1.564323 S    
C27   N1    1.499112 S    
C6    H1    1.082854 S    
C1    C23   1.479425 S    
C32   H25   1.110747 S    
C3    C24   1.503757 S    
C25   N5    1.481720 S    
C30   H23   1.106206 S    
Cu1   N2    2.029081 S    
C30   C32   1.576649 S    
C31   H27   1.112827 S    
C34   H33   1.104338 S    
C29   H26   1.112895 S    
Cu2   O8    1.963683 S    
N7    O18   1.301189 A    
C7    C8    1.397760 A    
C25   N3    1.476715 S    
C19   C23   1.549740 S    
C13   C18   1.405227 A    
N3    O9    1.300163 A    
C21   C23   1.541846 S    
C10   H5    1.079721 S    
O3    C2    1.303414 A    
C24   C25   1.597826 S    
C34   H32   1.095726 S    
N2    C31   1.494057 S    
N5    O14   1.302572 A    
O4    Cu2   1.960864 S    
H12   C21   1.114603 S    
C22   C23   1.551459 S    
C14   C33   1.507158 S    
C22   C26   1.536165 S    
Cu1   O5    1.981583 S    
C11   C15   1.396559 A    
C27   H18   1.114499 S    
O1    Cu1   1.975785 S    
C19   C20   1.539154 S    
O2    Cu2   1.981584 S    
O8    C4    1.301802 A    
C33   H28   1.108181 S    
O6    C3    1.301637 A    
C27   N6    1.474508 S    
C15   C17   1.467251 S    
C4    C18   1.467139 S    
C19   H9    1.113284 S    
O2    C1    1.295665 A    
N7    O17   1.301343 A    
C30   N1    1.489634 S    
N4    O11   1.301524 A    
C34   H31   1.108631 S    
Cu2   O6    1.975785 S    
N5    O13   1.301688 A    
C7    H7    1.083578 S    
O1    C1    1.299225 A    
C5    C6    1.404387 A    
Cu2   N1    2.029786 S    
C20   C24   1.555657 S    
