data_mof_unit_53674.cif
_audit_creation_date              2012-12-10T18:51:35-0500
_audit_creation_method            fapswitch 2.2
_symmetry_space_group_name_H-M    P1
_symmetry_Int_Tables_number       1
_space_group_crystal_system       triclinic
_cell_length_a                    10.632711
_cell_length_b                    10.087436
_cell_length_c                    10.476491
_cell_angle_alpha                 88.44628
_cell_angle_beta                  93.288668
_cell_angle_gamma                 89.278257
_cell_volume                      1121.2991225

loop_
_atom_site_label
_atom_site_type_symbol
_atom_type_description
_atom_site_fract_x
_atom_site_fract_y
_atom_site_fract_z
_atom_type_partial_charge
C1    C     C_R   0.871704 0.497230 0.496972 0.014685
C2    C     C_3   0.392672 0.453651 0.039465 -0.254534
C3    C     C_3   0.406394 0.575501 0.950000 0.213738
C4    C     C_3   0.597978 0.425935 0.050961 0.195315
C5    C     C_3   0.500924 0.496214 0.877470 -0.036095
C6    C     C_3   0.503024 0.504769 0.123150 -0.043096
C7    C     C_R   0.562062 0.065726 0.596187 0.174204
C8    C     C_R   0.416729 0.932902 0.421596 0.134851
C9    C     C_R   0.433826 0.073117 0.405986 0.135629
C10   C     C_R   0.580175 0.925832 0.581489 0.154558
C11   C     C_R   0.070038 0.401199 0.568886 -0.161296
C12   C     C_R   0.127878 0.500414 0.498810 0.003439
C13   C     C_R   0.929367 0.593916 0.423941 -0.157059
C14   C     C_R   0.941022 0.399374 0.567640 -0.181457
C15   C     C_R   0.058328 0.595775 0.425215 -0.204116
C16   C     C_3   0.575029 0.113952 0.731370 -0.365136
C17   C     C_3   0.699300 0.182627 0.764138 -0.798791
C18   C     C_3   0.292660 0.877196 0.369315 -0.363702
C19   C     C_3   0.300439 0.804513 0.243634 -0.775185
C20   C     C_3   0.382721 0.136879 0.279566 -0.332489
C21   C     C_3   0.259093 0.215243 0.287613 -0.767448
C22   C     C_3   0.691238 0.856566 0.653641 -0.356063
C23   C     C_R   0.260743 0.500554 0.499359 0.849657
C24   C     C_3   0.810155 0.874160 0.580222 -0.829116
C25   C     C_R   0.739142 0.499157 0.499593 0.849600
C26   C     C_R   0.501133 0.501705 0.258236 0.881553
C27   C     C_R   0.500482 0.498435 0.741998 0.886826
C28   C     C_3   0.516428 0.627321 0.035941 -0.195596
C29   C     C_3   0.487943 0.373850 0.965144 -0.207765
C30   C     C_3   0.611571 0.547725 0.961044 -0.240373
H1    H     H_    0.530639 0.730675 0.066459 0.156235
H2    H     H_    0.706620 0.275907 0.708540 0.279046
H3    H     H_    0.704602 0.206544 0.866817 0.258752
H4    H     H_    0.491174 0.173241 0.750071 0.221099
H5    H     H_    0.565747 0.030647 0.801527 0.168510
H6    H     H_    0.390937 0.823755 0.199648 0.253443
H7    H     H_    0.288101 0.696580 0.258590 0.259372
H8    H     H_    0.223250 0.839452 0.174408 0.239531
H9    H     H_    0.247963 0.819886 0.444323 0.228519
H10   H     H_    0.221905 0.958266 0.352089 0.186524
H11   H     H_    0.213476 0.192570 0.378271 0.255243
H12   H     H_    0.474841 0.269345 0.938679 0.155821
H13   H     H_    0.274695 0.323025 0.278121 0.256475
H14   H     H_    0.191909 0.189328 0.207274 0.227293
H15   H     H_    0.456204 0.190552 0.230593 0.234656
H16   H     H_    0.363644 0.059077 0.208654 0.181940
H17   H     H_    0.888028 0.812059 0.626042 0.259765
H18   H     H_    0.793082 0.844818 0.479534 0.268291
H19   H     H_    0.839349 0.979400 0.579858 0.249158
H20   H     H_    0.710364 0.893974 0.750933 0.187084
H21   H     H_    0.674200 0.751164 0.671184 0.254569
H22   H     H_    0.700907 0.585076 0.924565 0.155941
H23   H     H_    0.302061 0.417157 0.073144 0.160242
H24   H     H_    0.124534 0.326673 0.625257 0.151176
H25   H     H_    0.874776 0.666300 0.365145 0.149821
H26   H     H_    0.896099 0.323571 0.623111 0.141962
H27   H     H_    0.102735 0.669220 0.366936 0.148340
H28   H     H_    0.780834 0.117668 0.746324 0.242177
I1    I     I_    0.251574 0.692906 0.868694 -0.439547
I2    I     I_    0.753085 0.312521 0.137938 -0.437027
N1    N     N_R   0.500000 0.857200 0.500000 -0.121815
N2    N     N_R   0.500000 0.142800 0.500000 -0.117991
O1    O     O_R   0.316770 0.614620 0.499990 -0.610230
O2    O     O_R   0.683230 0.385380 0.500010 -0.602093
O3    O     O_R   0.683230 0.614620 0.500010 -0.631877
O4    O     O_R   0.316770 0.385380 0.499990 -0.621607
O5    O     O_R   0.499970 0.614650 0.313950 -0.614992
O6    O     O_R   0.500030 0.385350 0.686050 -0.632020
O7    O     O_R   0.500030 0.614650 0.686050 -0.618590
O8    O     O_R   0.499970 0.385350 0.313950 -0.604946
Zn1   Zn    Zn3+2 0.500000 0.653120 0.500000 0.945267
Zn2   Zn    Zn3+2 0.500000 0.346880 0.500000 0.951746

loop_
_geom_bond_atom_site_label_1
_geom_bond_atom_site_label_2
_ccdc_geom_bond_type
C8    C9    A    
C7    C10   A    
C14   H26   S    
C18   H9    S    
C7    N2    A    
C1    C14   A    
C19   H8    S    
C29   H12   S    
C8    C18   S    
C21   H14   S    
C8    N1    A    
C9    C20   S    
C5    C29   S    
C4    C29   S    
C27   O7    A    
C12   C15   A    
O6    Zn2   S    
C17   H28   S    
C11   C12   A    
O2    Zn2   S    
C16   H4    S    
N1    Zn1   S    
C28   C30   S    
C2    C3    S    
C3    C5    S    
N2    Zn2   S    
C21   H13   S    
C10   C22   S    
C1    C25   S    
O4    Zn2   S    
C15   H27   S    
C12   C23   S    
C4    I2    S    
C6    C26   S    
C11   H24   S    
C17   H3    S    
C2    C29   S    
C21   H11   S    
C26   O5    A    
C22   C24   S    
C23   O1    A    
C7    C16   S    
O1    Zn1   S    
C5    C30   S    
O5    Zn1   S    
C19   H6    S    
C13   C15   A    
C16   H5    S    
C26   O8    A    
C11   C14   A    
C4    C30   S    
C10   N1    A    
C1    C13   A    
C9    N2    A    
C24   H18   S    
C20   H16   S    
C22   H20   S    
C25   O3    A    
C20   C21   S    
C23   O4    A    
C4    C6    S    
C18   C19   S    
C20   H15   S    
C24   H19   S    
O7    Zn1   S    
C17   H2    S    
C30   H22   S    
C3    C28   S    
O8    Zn2   S    
C27   O6    A    
C19   H7    S    
C18   H10   S    
C5    C27   S    
C24   H17   S    
C25   O2    A    
C28   H1    S    
C6    C28   S    
C2    C6    S    
C16   C17   S    
O3    Zn1   S    
C22   H21   S    
C13   H25   S    
C2    H23   S    
C3    I1    S    
