data_mof_unit_45627.cif
_audit_creation_date              2012-12-11T16:07:36-0500
_audit_creation_method            fapswitch 2.2
_symmetry_space_group_name_H-M    P1
_symmetry_Int_Tables_number       1
_space_group_crystal_system       triclinic
_cell_length_a                    6.979772
_cell_length_b                    14.672353
_cell_length_c                    15.779956
_cell_angle_alpha                 90.41445
_cell_angle_beta                  89.929317
_cell_angle_gamma                 90.034237
_cell_volume                      1615.97643538

loop_
_atom_site_label
_atom_site_type_symbol
_atom_type_description
_atom_site_fract_x
_atom_site_fract_y
_atom_site_fract_z
_atom_type_partial_charge
O1    O     O_R   0.494320 0.415010 0.412140 -0.525543
O2    O     O_R   0.824010 0.404260 0.587250 -0.559075
O3    O     O_R   0.994320 0.584990 0.587860 -0.543678
C1    C     C_R   0.653678 0.380612 0.614966 0.712327
O4    O     O_R   0.824040 0.403870 0.412760 -0.524391
O5    O     O_R   0.994350 0.584590 0.412130 -0.549417
C2    C     C_R   0.655209 0.384476 0.381638 0.738477
O6    O     O_R   0.494300 0.415410 0.587870 -0.530549
O7    O     O_3   0.660800 0.559290 0.500000 -0.387852
V1    V     V_3+5 0.935650 0.489000 0.500000 1.418001
O8    O     O_R   0.324060 0.595740 0.412750 -0.536502
C3    C     C_R   0.155758 0.621361 0.386681 0.795252
O9    O     O_R   0.324040 0.596130 0.587240 -0.550193
C4    C     C_R   0.155144 0.618549 0.615807 0.669870
V2    V     V_3+5 0.435660 0.511000 0.500000 1.432924
O10   O     O_3   0.160640 0.440710 0.500000 -0.362488
C5    C     C_3   0.061535 0.669022 0.775037 -0.125748
C6    C     C_3   0.232455 0.721089 0.813718 0.201314
H1    H     H_    0.005354 0.602522 0.797240 0.116832
C7    C     C_3   0.121072 0.810992 0.812011 -0.024668
C8    C     C_3   0.948168 0.760433 0.771576 -0.184597
C9    C     C_3   0.030668 0.778993 0.681439 -0.178787
C10   C     C_3   0.202410 0.827731 0.723173 0.217028
C11   C     C_3   0.319662 0.738733 0.725525 -0.169154
C12   C     C_3   0.144992 0.688665 0.685982 -0.073763
H2    H     H_    0.795903 0.769088 0.790391 0.127454
H3    H     H_    0.949219 0.804023 0.625883 0.127863
H4    H     H_    0.472516 0.730846 0.707378 0.118519
C13   C     C_3   0.280414 0.847464 0.255622 -0.061575
H5    H     H_    0.417568 0.846177 0.219360 0.160883
C14   C     C_3   0.296783 0.778168 0.332289 0.408127
H6    H     H_    0.337068 0.728289 0.131695 0.118762
C15   C     C_3   0.187305 0.720430 0.155813 -0.000533
C16   C     C_3   0.922918 0.807846 0.237631 0.554036
C17   C     C_3   0.121607 0.816308 0.190440 -0.108657
C18   C     C_3   0.148512 0.694733 0.317327 -0.095689
C19   C     C_3   0.191692 0.646589 0.228336 0.427587
C20   C     C_3   0.941001 0.737806 0.314300 -0.125412
H7    H     H_    0.839092 0.681219 0.303638 0.143529
C21   C     C_3   0.425945 0.268865 0.694847 0.442235
C22   C     C_3   0.422695 0.198525 0.768688 -0.392123
H8    H     H_    0.364207 0.131910 0.747160 0.130412
H9    H     H_    0.317497 0.220156 0.817805 0.199609
H10   H     H_    0.627715 0.414916 0.785456 0.112330
C23   C     C_3   0.706133 0.351308 0.769845 -0.461519
C24   C     C_3   0.783282 0.227054 0.667200 0.053109
C25   C     C_3   0.638829 0.308069 0.684165 -0.021725
H11   H     H_    0.930109 0.256315 0.670808 0.113450
C26   C     C_3   0.623922 0.185737 0.810256 -0.061864
C27   C     C_3   0.697011 0.281343 0.844387 0.487506
C28   C     C_3   0.768998 0.153738 0.739325 0.032154
H12   H     H_    0.913990 0.149846 0.768548 0.151599
H13   H     H_    0.856294 0.375784 0.762218 0.186173
C29   C     C_3   0.475363 0.339020 0.247417 -0.444109
H14   H     H_    0.340260 0.344968 0.283963 0.220679
H15   H     H_    0.496671 0.407525 0.219198 0.181990
C30   C     C_3   0.455246 0.264449 0.175777 0.631423
H16   H     H_    0.464462 0.220634 0.377908 0.178367
H17   H     H_    0.462420 0.111120 0.276562 0.145067
C31   C     C_3   0.605491 0.220520 0.344808 -0.462900
C32   C     C_3   0.832622 0.317695 0.252520 0.631515
C33   C     C_3   0.644425 0.316598 0.308330 -0.122500
C34   C     C_3   0.621828 0.191775 0.183768 -0.043275
C35   C     C_3   0.601985 0.146871 0.273557 -0.091157
C36   C     C_3   0.820132 0.242269 0.181347 0.022843
H18   H     H_    0.930139 0.190089 0.194314 0.167077
H19   H     H_    0.712194 0.203639 0.394324 0.164963
O11   O     O_R   0.771990 0.083520 0.910980 -0.554977
O12   O     O_R   0.442180 0.095020 0.086060 -0.524866
O13   O     O_R   0.271950 0.914280 0.086680 -0.568385
C37   C     C_R   0.611037 0.118524 0.114259 0.835418
O14   O     O_R   0.442270 0.094630 0.911580 -0.535936
O15   O     O_R   0.272040 0.913890 0.910940 -0.539087
C38   C     C_R   0.611577 0.116337 0.882201 0.716478
O16   O     O_R   0.771900 0.083910 0.086710 -0.528599
O17   O     O_3   0.605520 0.939610 0.998840 -0.374945
V3    V     V_3+5 0.330640 0.009880 0.998810 1.486103
O18   O     O_R   0.942330 0.902710 0.911540 -0.553766
C39   C     C_R   0.111187 0.880691 0.882656 0.686252
O19   O     O_R   0.942240 0.903100 0.086030 -0.492278
C40   C     C_R   0.110788 0.883151 0.116551 0.780790
V4    V     V_3+5 0.830640 0.987830 0.998780 1.505046
O20   O     O_3   0.105630 0.058150 0.998800 -0.366398
N1    N     N_3   0.341210 0.688918 0.886253 -0.682251
H20   H     H_    0.403927 0.626915 0.868753 0.226531
H21   H     H_    0.453224 0.734981 0.896473 0.231546
N2    N     N_3   0.495792 0.748124 0.333634 -0.687815
H22   H     H_    0.543610 0.721919 0.276511 0.266856
H23   H     H_    0.531494 0.707541 0.384947 0.268032
O21   O     O_3   0.373713 0.605060 0.231275 -0.664672
H24   H     H_    0.405338 0.581089 0.173902 0.287557
O22   O     O_3   0.780791 0.779961 0.178974 -0.640018
H25   H     H_    0.783096 0.713803 0.169698 0.295204
N3    N     N_3   0.863449 0.898843 0.266156 -0.597829
H26   H     H_    0.716324 0.898318 0.278548 0.252348
H27   H     H_    0.932405 0.919797 0.321361 0.258065
N4    N     N_3   0.890426 0.777811 0.397815 -0.719803
H28   H     H_    0.857994 0.727234 0.441627 0.250652
H29   H     H_    0.769184 0.818825 0.396259 0.266111
O23   O     O_3   0.072902 0.691322 0.087209 -0.640781
H30   H     H_    0.122890 0.720849 0.035272 0.310963
N5    N     N_3   0.055548 0.571906 0.212228 -0.635245
H31   H     H_    0.100130 0.533854 0.159431 0.279992
H32   H     H_    0.918412 0.593897 0.198217 0.221422
N6    N     N_3   0.283505 0.340391 0.716308 -0.683364
H33   H     H_    0.213537 0.364936 0.662583 0.261082
H34   H     H_    0.340921 0.396104 0.748449 0.207890
N7    N     N_3   0.364194 0.224314 0.615118 -0.640942
H35   H     H_    0.427352 0.160485 0.607558 0.252610
H36   H     H_    0.217552 0.210557 0.618116 0.209672
N8    N     N_3   0.571202 0.316073 0.912420 -0.645619
H37   H     H_    0.441168 0.338694 0.887617 0.228714
H38   H     H_    0.635887 0.373417 0.939915 0.250267
N9    N     N_3   0.764134 0.186743 0.582136 -0.653176
H39   H     H_    0.872936 0.138462 0.573909 0.247253
H40   H     H_    0.792715 0.236647 0.537035 0.215372
N10   N     N_3   0.729474 0.061615 0.706038 -0.668614
H41   H     H_    0.746263 0.013723 0.754168 0.222743
H42   H     H_    0.590324 0.055904 0.682970 0.261414
O24   O     O_3   0.884882 0.272571 0.876490 -0.652016
H43   H     H_    0.877327 0.243935 0.933033 0.328909
O25   O     O_3   0.464345 0.306192 0.096057 -0.635367
H44   H     H_    0.352430 0.347642 0.091501 0.305605
O26   O     O_3   0.275804 0.220872 0.181132 -0.648638
H45   H     H_    0.249187 0.205416 0.240842 0.268684
O27   O     O_3   0.997701 0.303908 0.302110 -0.647398
H46   H     H_    0.985345 0.245790 0.332876 0.246029
O28   O     O_3   0.851170 0.403442 0.214332 -0.648425
H47   H     H_    0.853267 0.449514 0.260304 0.310213
N11   N     N_3   0.866436 0.276380 0.096159 -0.635742
H48   H     H_    0.790983 0.335527 0.081796 0.299021
H49   H     H_    0.011291 0.294111 0.094278 0.277774
N12   N     N_3   0.746313 0.076772 0.289082 -0.665508
H50   H     H_    0.705713 0.042909 0.344437 0.235929
H51   H     H_    0.879624 0.105239 0.302849 0.230638
N13   N     N_3   0.279420 0.914756 0.695233 -0.693512
H52   H     H_    0.317018 0.907373 0.631427 0.235926
H53   H     H_    0.168032 0.962275 0.697926 0.221783
N14   N     N_3   0.259457 0.942596 0.284137 -0.680809
H54   H     H_    0.378873 0.959445 0.321023 0.250390
H55   H     H_    0.264680 0.986306 0.232305 0.231779
N15   N     N_3   0.267384 0.824281 0.414930 -0.634293
H56   H     H_    0.243355 0.777166 0.463167 0.213282
H57   H     H_    0.158669 0.872826 0.415504 0.280886

loop_
_geom_bond_atom_site_label_1
_geom_bond_atom_site_label_2
_ccdc_geom_bond_type
C21   C25   S    
C8    H2    S    
C34   C36   S    
O27   H46   S    
C22   H8    S    
C29   H14   S    
O12   V3    S    
N8    H37   S    
C1    O6    A    
O28   H47   S    
C36   N11   S    
C17   C40   S    
O24   H43   S    
N6    H34   S    
H17   C35   S    
O14   V3    S    
C10   N13   S    
C6    C11   S    
O22   H25   S    
C18   C19   S    
N1    H21   S    
N10   H42   S    
O5    C3    A    
C19   N5    S    
V3    O20   S    
H16   C31   S    
V2    O10   S    
N4    H28   S    
N7    H35   S    
C31   C33   S    
C16   C17   S    
O12   C37   A    
O13   C40   A    
O23   H30   S    
N3    H27   S    
C15   C17   S    
C30   O25   S    
C35   N12   S    
O8    V2    S    
N15   H56   S    
C31   H19   S    
C26   C28   S    
C9    C12   S    
C6    N1    S    
C10   C11   S    
C32   O27   S    
O1    V2    S    
C3    C18   S    
O7    V1    S    
C6    C7    S    
C32   C33   S    
C21   N7    S    
C23   H13   S    
C26   C38   S    
O1    C2    A    
C8    C9    S    
O13   V3    S    
C22   H9    S    
N3    H26   S    
C20   N4    S    
C22   C26   S    
N4    H29   S    
C30   C34   S    
C24   H11   S    
O17   V3    S    
C23   C25   S    
C13   N14   S    
C29   H15   S    
C14   N2    S    
C24   N9    S    
C28   H12   S    
C16   N3    S    
C11   C12   S    
O19   V4    S    
O17   V4    S    
O4    C2    A    
O18   C39   A    
O19   C40   A    
C29   C33   S    
C24   C28   S    
C5    C8    S    
N11   H49   S    
C2    C33   S    
C13   H5    S    
O18   V4    S    
C7    C10   S    
N14   H54   S    
C5    C6    S    
O15   C39   A    
N8    H38   S    
N1    H20   S    
N5    H32   S    
C1    C25   S    
O3    C4    A    
C19   O21   S    
O14   C38   A    
C21   C22   S    
C34   C37   S    
V4    O20   S    
O6    V2    S    
C9    H3    S    
N2    H23   S    
N12   H50   S    
C27   O24   S    
C5    H1    S    
O2    V1    S    
H10   C23   S    
N13   H53   S    
C24   C25   S    
C7    C39   S    
C16   C20   S    
C9    C10   S    
C11   H4    S    
N13   H52   S    
O5    V1    S    
N9    H40   S    
O8    C3    A    
O16   V4    S    
N9    H39   S    
N6    H33   S    
C13   C17   S    
C31   C35   S    
C15   O23   S    
C5    C12   S    
H6    C15   S    
C14   N15   S    
O9    V2    S    
N11   H48   S    
O7    V2    S    
O11   V4    S    
O4    V1    S    
C13   C14   S    
O3    V1    S    
V1    O10   S    
N10   H41   S    
C30   O26   S    
C37   O16   A    
N14   H55   S    
O21   H24   S    
C20   H7    S    
C23   C27   S    
O2    C1    A    
C18   C20   S    
C27   N8    S    
C28   N10   S    
N7    H36   S    
C32   O28   S    
N15   H57   S    
C36   H18   S    
C4    C12   S    
N5    H31   S    
C15   C19   S    
C34   C35   S    
C32   C36   S    
C7    C8    S    
N2    H22   S    
C26   C27   S    
N12   H51   S    
O15   V3    S    
C14   C18   S    
C21   N6    S    
O25   H44   S    
O9    C4    A    
O11   C38   A    
C29   C30   S    
O26   H45   S    
C16   O22   S    
