data_mof_unit_32039.cif
_audit_creation_date              2012-12-11T14:55:59-0500
_audit_creation_method            fapswitch 2.2
_symmetry_space_group_name_H-M    P1
_symmetry_Int_Tables_number       1
_space_group_crystal_system       triclinic
_cell_length_a                    27.974793
_cell_length_b                    17.281666
_cell_length_c                    18.077749
_cell_angle_alpha                 90.089692
_cell_angle_beta                  137.843292
_cell_angle_gamma                 89.947835
_cell_volume                      5865.73944548

loop_
_atom_site_label
_atom_site_type_symbol
_atom_type_description
_atom_site_fract_x
_atom_site_fract_y
_atom_site_fract_z
_atom_type_partial_charge
C1    C     C_R   0.688539 0.893890 0.791166 0.575661
C2    C     C_3   0.285031 0.700242 0.002485 -0.171622
C3    C     C_3   0.702750 0.710945 0.917486 -0.176056
C4    C     C_3   0.203736 0.791111 0.917382 -0.177771
C5    C     C_3   0.796249 0.208916 0.082570 -0.177815
C6    C     C_3   0.838021 0.738683 0.032659 -0.176696
C7    C     C_3   0.161988 0.261542 0.967503 -0.176823
C8    C     C_3   0.260549 0.757368 0.034106 -0.145573
C9    C     C_3   0.739401 0.242640 0.965842 -0.145559
C10   C     C_3   0.779422 0.705800 0.913688 -0.131610
C11   C     C_3   0.220756 0.294386 0.086486 -0.131665
C12   C     C_3   0.719120 0.207419 0.085555 -0.131468
C13   C     C_3   0.245059 0.350317 0.052369 -0.171253
C14   C     C_3   0.280916 0.792552 0.914486 -0.131439
C15   C     C_3   0.239443 0.255074 0.965547 -0.147267
C16   C     C_3   0.760381 0.744755 0.034264 -0.147328
C17   C     C_3   0.313704 0.816443 0.064856 0.234205
C18   C     C_3   0.686285 0.183536 0.935147 0.234201
C19   C     C_3   0.727847 0.766151 0.885446 0.212023
C20   C     C_3   0.272138 0.233835 0.114525 0.212006
C21   C     C_3   0.771862 0.265993 0.114237 0.211725
C22   C     C_3   0.228134 0.734007 0.885749 0.211739
C23   C     C_3   0.187706 0.316066 0.935583 0.233971
C24   C     C_3   0.755124 0.649668 0.947653 -0.171412
C25   C     C_3   0.812307 0.683957 0.064427 0.233931
C26   C     C_3   0.257333 0.850628 0.948083 -0.171459
C27   C     C_3   0.742693 0.149370 0.051924 -0.171427
C28   C     C_3   0.785537 0.799995 0.002212 -0.172681
C29   C     C_3   0.214282 0.200031 0.997752 -0.172517
C30   C     C_R   0.715984 0.755805 0.619446 0.131478
C31   C     C_R   0.284020 0.244199 0.380555 0.131483
C32   C     C_R   0.387717 0.852505 0.642773 0.132695
C33   C     C_R   0.311458 0.106100 0.208828 0.575716
C34   C     C_R   0.612320 0.147525 0.357286 0.132677
C35   C     C_R   0.112071 0.352416 0.356848 0.132367
C36   C     C_R   0.887934 0.647588 0.643161 0.132369
C37   C     C_R   0.784070 0.255774 0.380619 0.131251
C38   C     C_R   0.215921 0.744220 0.619327 0.131270
C39   C     C_R   0.261730 0.374060 0.400386 -0.221045
C40   C     C_R   0.738287 0.625937 0.599645 -0.221029
C41   C     C_R   0.605838 0.250698 0.259454 -0.219021
C42   C     C_R   0.394164 0.749299 0.740520 -0.219017
C43   C     C_R   0.894363 0.750836 0.741148 -0.218990
C44   C     C_R   0.329533 0.917683 0.182862 0.495881
C45   C     C_R   0.105629 0.249183 0.258836 -0.218994
C46   C     C_R   0.238064 0.874012 0.599377 -0.220854
C47   C     C_R   0.761947 0.125990 0.400635 -0.220844
C48   C     C_R   0.305667 0.321763 0.414621 -0.179297
C49   C     C_R   0.694342 0.678239 0.585385 -0.179251
C50   C     C_R   0.577082 0.212351 0.286966 -0.169351
C51   C     C_R   0.422948 0.787672 0.713074 -0.169344
C52   C     C_R   0.923137 0.712495 0.713559 -0.169198
C53   C     C_R   0.076855 0.287524 0.286422 -0.169208
C54   C     C_R   0.194247 0.821748 0.585372 -0.178921
C55   C     C_R   0.670453 0.082300 0.817138 0.495804
C56   C     C_R   0.805757 0.178251 0.414615 -0.178935
C57   C     C_R   0.213015 0.224176 0.312923 -0.283050
C58   C     C_R   0.786988 0.775830 0.687080 -0.283117
C59   C     C_R   0.666055 0.111596 0.377774 -0.266908
C60   C     C_R   0.333971 0.888422 0.622267 -0.266925
C61   C     C_R   0.834312 0.611538 0.622791 -0.266833
C62   C     C_R   0.165705 0.388459 0.377238 -0.266828
C63   C     C_R   0.286880 0.724237 0.686646 -0.283586
C64   C     C_R   0.713106 0.275748 0.313279 -0.283596
C65   C     C_R   0.170022 0.275088 0.303219 0.182139
C66   C     C_R   0.171553 0.416984 0.817247 0.496389
C67   C     C_R   0.829982 0.724919 0.696787 0.182143
C68   C     C_R   0.697328 0.151665 0.355424 0.184159
C69   C     C_R   0.302682 0.848336 0.644579 0.184163
C70   C     C_R   0.802957 0.651642 0.645080 0.184164
C71   C     C_R   0.197057 0.348357 0.354945 0.184165
C72   C     C_R   0.329777 0.775137 0.696225 0.182230
C73   C     C_R   0.670219 0.224853 0.303735 0.182241
C74   C     C_R   0.325675 0.104151 0.406676 -0.129659
C75   C     C_R   0.674325 0.895851 0.593325 -0.129655
C76   C     C_R   0.639455 0.070648 0.507230 -0.104625
C77   C     C_R   0.828443 0.583024 0.182750 0.496474
C78   C     C_R   0.360567 0.929372 0.492805 -0.104607
C79   C     C_R   0.860570 0.570731 0.492798 -0.103223
C80   C     C_R   0.139437 0.429264 0.507212 -0.103257
C81   C     C_R   0.174334 0.604180 0.593410 -0.130678
C82   C     C_R   0.825663 0.395817 0.406575 -0.130673
C83   C     C_R   0.443239 0.835637 0.580007 -0.105808
C84   C     C_R   0.556788 0.164392 0.420033 -0.105855
C85   C     C_R   0.592090 0.803289 0.505637 -0.017691
C86   C     C_R   0.407911 0.196711 0.494361 -0.017664
C87   C     C_R   0.907919 0.303312 0.494285 -0.015668
C88   C     C_R   0.811486 0.393973 0.208463 0.571183
C89   C     C_R   0.092075 0.696686 0.505695 -0.015616
C90   C     C_R   0.056775 0.335499 0.419951 -0.105033
C91   C     C_R   0.943234 0.664493 0.580060 -0.105010
C92   C     C_R   0.586867 0.174412 0.726710 0.497130
C93   C     C_R   0.413119 0.825570 0.273292 0.497223
C94   C     C_R   0.394617 0.196006 0.294812 0.438050
C95   C     C_R   0.605376 0.803988 0.705168 0.438066
C96   C     C_R   0.105295 0.695951 0.705802 0.438197
C97   C     C_R   0.894706 0.304052 0.294185 0.438200
C98   C     C_R   0.912389 0.674505 0.272780 0.496893
C99   C     C_R   0.188515 0.606030 0.791526 0.571287
C100  C     C_R   0.087604 0.325512 0.727228 0.496811
C101  C     C_R   0.677435 0.816384 0.790713 -0.352260
C102  C     C_R   0.322558 0.183603 0.209262 -0.352237
C103  C     C_R   0.354392 0.855870 0.168893 -0.351351
C104  C     C_R   0.645588 0.144105 0.831109 -0.351263
C105  C     C_R   0.147075 0.355227 0.831572 -0.351614
C106  C     C_R   0.852921 0.644791 0.168430 -0.351706
C107  C     C_R   0.822663 0.316559 0.208543 -0.351043
C108  C     C_R   0.177339 0.683448 0.791433 -0.351065
C109  C     C_R   0.337347 0.183291 0.428902 -0.010440
C110  C     C_3   0.714930 0.299739 0.997498 -0.171578
C111  C     C_R   0.662654 0.816712 0.571098 -0.010431
C112  C     C_R   0.602687 0.127109 0.424570 0.013947
C113  C     C_R   0.397353 0.872929 0.575492 0.013908
C114  C     C_R   0.897405 0.627221 0.575602 0.014233
C115  C     C_R   0.102603 0.372775 0.424409 0.014257
C116  C     C_R   0.162640 0.683287 0.571163 -0.011621
C117  C     C_R   0.837352 0.316708 0.428804 -0.011607
C118  C     C_3   0.661286 0.240185 0.966596 -0.177992
C119  C     C_3   0.338713 0.759767 0.033441 -0.177971
C120  C     C_3   0.297240 0.288843 0.082332 -0.176241
H1    H     H_    0.252626 0.743220 0.084377 0.127605
H2    H     H_    0.394671 0.748480 0.081002 0.126271
H3    H     H_    0.353083 0.299694 0.129069 0.136238
H4    H     H_    0.646904 0.699909 0.870628 0.136327
H5    H     H_    0.148037 0.803643 0.870275 0.136814
H6    H     H_    0.851944 0.196416 0.129643 0.136806
H7    H     H_    0.894125 0.748469 0.080075 0.126902
H8    H     H_    0.105893 0.251938 0.920220 0.126731
H9    H     H_    0.787015 0.883173 0.873773 0.304311
H10   H     H_    0.213003 0.116826 0.126321 0.304273
H11   H     H_    0.231923 0.922394 0.037132 0.314694
H12   H     H_    0.747289 0.256804 0.915535 0.127602
H13   H     H_    0.768071 0.077629 0.962809 0.314773
H14   H     H_    0.270035 0.419712 0.960987 0.314300
H15   H     H_    0.730054 0.580044 0.038744 0.314330
H16   H     H_    0.712889 0.383148 0.125301 0.304943
H17   H     H_    0.287118 0.616848 0.874706 0.304932
H18   H     H_    0.917465 0.805394 0.785061 0.133399
H19   H     H_    0.082515 0.194634 0.214899 0.133401
H20   H     H_    0.217650 0.931028 0.562832 0.134947
H21   H     H_    0.782371 0.068982 0.437216 0.134937
H22   H     H_    0.282109 0.431116 0.437030 0.135037
H23   H     H_    0.785568 0.691484 0.861190 0.126344
H24   H     H_    0.717915 0.568874 0.563016 0.135025
H25   H     H_    0.582677 0.305185 0.215568 0.133396
H26   H     H_    0.417318 0.694807 0.784386 0.133409
H27   H     H_    0.274321 0.076145 0.344811 0.133981
H28   H     H_    0.725678 0.923860 0.655193 0.133967
H29   H     H_    0.678941 0.031058 0.531553 0.101178
H30   H     H_    0.321080 0.968957 0.468485 0.101187
H31   H     H_    0.821079 0.531158 0.468418 0.100924
H32   H     H_    0.178931 0.468834 0.531601 0.100929
H33   H     H_    0.225701 0.576252 0.655302 0.134352
H34   H     H_    0.214752 0.308846 0.139128 0.126370
H35   H     H_    0.774298 0.423748 0.344685 0.134378
H36   H     H_    0.480480 0.790353 0.635620 0.149902
H37   H     H_    0.519556 0.209684 0.364433 0.149948
H38   H     H_    0.568462 0.747813 0.490227 0.168507
H39   H     H_    0.431539 0.252187 0.509768 0.168499
H40   H     H_    0.931586 0.247836 0.509735 0.167557
H41   H     H_    0.068410 0.752164 0.490239 0.167561
H42   H     H_    0.019542 0.290151 0.364287 0.149866
H43   H     H_    0.980473 0.709835 0.635733 0.149842
H44   H     H_    0.580154 0.274598 0.766308 0.319134
H45   H     H_    0.712525 0.194613 0.137759 0.126356
H46   H     H_    0.419773 0.725327 0.233695 0.319061
H47   H     H_    0.390839 0.306923 0.303811 0.319033
H48   H     H_    0.609153 0.693089 0.696024 0.318995
H49   H     H_    0.109524 0.806681 0.696114 0.318687
H50   H     H_    0.890474 0.193318 0.303844 0.318696
H51   H     H_    0.919567 0.774275 0.233323 0.319120
H52   H     H_    0.080199 0.225924 0.766736 0.319154
H53   H     H_    0.703941 0.362049 0.975293 0.151106
H54   H     H_    0.295992 0.637925 0.024678 0.151153
H55   H     H_    0.256280 0.412756 0.073862 0.130557
H56   H     H_    0.287546 0.805344 0.862319 0.126334
H57   H     H_    0.744062 0.587214 0.926202 0.130286
H58   H     H_    0.247445 0.913077 0.926732 0.129360
H59   H     H_    0.752610 0.086928 0.073290 0.129403
H60   H     H_    0.797665 0.862274 0.024562 0.151946
H61   H     H_    0.201999 0.137771 0.975359 0.151964
H62   H     H_    0.805951 0.833965 0.719175 0.125886
H63   H     H_    0.194050 0.166043 0.280822 0.125869
H64   H     H_    0.309275 0.941198 0.574568 0.119969
H65   H     H_    0.690758 0.058827 0.425494 0.119960
H66   H     H_    0.190346 0.441311 0.424973 0.119942
H67   H     H_    0.246644 0.239315 0.914687 0.127502
H68   H     H_    0.809679 0.558680 0.575068 0.119942
H69   H     H_    0.694105 0.333843 0.281256 0.126083
H70   H     H_    0.305872 0.666138 0.718638 0.126073
H71   H     H_    0.641408 0.658814 0.538610 0.129697
H72   H     H_    0.358601 0.341187 0.461392 0.129718
H73   H     H_    0.468345 0.761581 0.738264 0.118713
H74   H     H_    0.531696 0.238453 0.261797 0.118694
H75   H     H_    0.031515 0.261358 0.261296 0.118878
H76   H     H_    0.968460 0.738677 0.738655 0.118887
H77   H     H_    0.858643 0.158840 0.461129 0.129464
H78   H     H_    0.753035 0.760368 0.084976 0.127510
H79   H     H_    0.141367 0.841163 0.538882 0.129462
H80   H     H_    0.605334 0.251440 0.919071 0.126233
N1    N     N_R   0.625380 0.928280 0.709340 -0.108478
N2    N     N_R   0.613900 0.929750 0.547530 -0.057726
N3    N     N_R   0.613900 0.070250 0.547530 -0.046538
N4    N     N_R   0.386100 0.929750 0.452470 -0.046532
N5    N     N_R   0.886100 0.570250 0.452470 -0.046101
N6    N     N_R   0.113900 0.429750 0.547530 -0.046111
N7    N     N_R   0.113900 0.570250 0.547530 -0.057892
N8    N     N_R   0.886100 0.429750 0.452470 -0.057895
N9    N     N_R   0.437800 0.869550 0.507970 -0.038659
N10   N     N_R   0.562200 0.130450 0.492030 -0.038666
N11   N     N_R   0.562200 0.869550 0.492030 -0.053211
N12   N     N_R   0.374620 0.071720 0.290660 -0.108491
N13   N     N_R   0.437800 0.130450 0.507970 -0.053221
N14   N     N_R   0.937800 0.369550 0.507970 -0.052636
N15   N     N_R   0.062200 0.630450 0.492030 -0.052644
N16   N     N_R   0.062200 0.369550 0.492030 -0.038993
N17   N     N_R   0.937800 0.630450 0.507970 -0.038992
N18   N     N_R   0.573690 0.128980 0.653840 -0.102335
N19   N     N_R   0.426310 0.871020 0.346160 -0.102351
N20   N     N_R   0.426310 0.128980 0.346160 -0.111659
N21   N     N_R   0.573690 0.871020 0.653840 -0.111664
N22   N     N_R   0.073690 0.628980 0.653840 -0.111284
N23   N     N_R   0.374620 0.928280 0.290660 -0.100664
N24   N     N_R   0.926310 0.371020 0.346160 -0.111280
N25   N     N_R   0.926310 0.628980 0.346160 -0.102298
N26   N     N_R   0.073690 0.371020 0.653840 -0.102271
N27   N     N_R   0.625380 0.071720 0.709340 -0.100658
N28   N     N_R   0.125380 0.428280 0.709340 -0.101078
N29   N     N_R   0.874620 0.571720 0.290660 -0.101042
N30   N     N_R   0.874620 0.428280 0.290660 -0.108748
N31   N     N_R   0.125380 0.571720 0.709340 -0.108742
N32   N     N_R   0.386100 0.070250 0.452470 -0.057719
Ni1   Ni    Ni4+2 0.616560 0.000000 0.627280 0.253233
Ni2   Ni    Ni4+2 0.383440 0.000000 0.372720 0.253253
Ni3   Ni    Ni4+2 0.116560 0.500000 0.627280 0.253605
Ni4   Ni    Ni4+2 0.883440 0.500000 0.372720 0.253666
Ni5   Ni    Ni4+2 0.497990 0.870580 0.500000 0.261308
Ni6   Ni    Ni4+2 0.502010 0.129420 0.500000 0.261299
Ni7   Ni    Ni4+2 0.997990 0.370580 0.500000 0.261099
Ni8   Ni    Ni4+2 0.002010 0.629420 0.500000 0.261096
O1    O     O_3   0.750755 0.924746 0.834878 -0.714250
O2    O     O_3   0.446549 0.755614 0.301291 -0.776455
O3    O     O_3   0.427905 0.266244 0.343398 -0.771764
O4    O     O_3   0.572085 0.733759 0.656535 -0.771758
O5    O     O_3   0.072316 0.766172 0.656775 -0.771958
O6    O     O_3   0.927682 0.233827 0.343201 -0.771965
O7    O     O_3   0.946777 0.743700 0.300744 -0.777187
O8    O     O_3   0.053189 0.256339 0.699276 -0.777213
O9    O     O_3   0.249254 0.075249 0.165162 -0.714289
O10   O     O_3   0.265026 0.954677 0.104021 -0.715605
O11   O     O_3   0.734962 0.045312 0.895992 -0.715709
O12   O     O_3   0.236536 0.453167 0.895496 -0.713972
O13   O     O_3   0.763462 0.546826 0.104503 -0.713954
O14   O     O_3   0.749231 0.424678 0.164789 -0.713112
O15   O     O_3   0.250769 0.575317 0.835209 -0.713141
O16   O     O_3   0.553435 0.244363 0.698722 -0.776548

loop_
_geom_bond_atom_site_label_1
_geom_bond_atom_site_label_2
_ccdc_geom_bond_type
C61   C70   A    
C60   H64   S    
C88   N30   A    
C97   N24   A    
C16   C28   S    
N7    N15   A    
C7    C29   S    
C15   C29   S    
C35   C53   A    
C34   C112  S    
C83   C113  A    
C80   N6    A    
C52   H76   S    
H14   O12   S    
N2    N11   A    
C4    C8    S    
C118  H80   S    
C93   C103  A    
C74   C109  A    
C90   N16   A    
C21   C110  S    
C76   N3    A    
N7    Ni3   S    
C22   C108  S    
C87   H40   S    
C41   C73   A    
C7    C11   S    
C99   C108  A    
N5    N17   A    
C100  C105  A    
C95   N21   A    
C89   N15   A    
C29   H61   S    
C4    H5    S    
C90   H42   S    
C17   C26   S    
N10   Ni6   S    
H16   O14   S    
C77   C106  A    
C79   H31   S    
N9    Ni5   S    
C6    H7    S    
C87   C117  A    
C93   O2    S    
C27   H59   S    
C33   N12   A    
C84   N10   A    
C8    H1    S    
C110  H53   S    
C6    C25   S    
C20   C102  S    
H52   O8    S    
C40   C49   A    
C23   C105  S    
C45   H19   S    
C81   H33   S    
C15   C120  S    
C13   C23   S    
C43   H18   S    
C13   H55   S    
C55   N27   A    
C47   C56   A    
H13   O11   S    
C46   C69   A    
N4    Ni2   S    
C11   H34   S    
N15   Ni8   S    
C5    C27   S    
C37   C56   A    
N1    Ni1   S    
C44   C103  A    
C6    C28   S    
N28   Ni3   S    
N4    N9    A    
C2    C22   S    
C14   H56   S    
C64   C73   A    
N11   Ni5   S    
N3    N10   A    
C35   C115  S    
N1    N21   A    
C32   C113  S    
C92   N18   A    
C86   H39   S    
C18   C118  S    
C36   C52   A    
C120  H3    S    
C37   C117  S    
C95   O4    S    
C62   H66   S    
C98   N25   A    
C76   H29   S    
C15   C23   S    
C4    C22   S    
C96   C108  A    
C89   C116  A    
C36   C114  S    
C39   H22   S    
C91   H43   S    
C3    C24   S    
H44   O16   S    
C85   N11   A    
C89   H41   S    
C75   N2    A    
C25   C106  S    
C64   H69   S    
C20   C29   S    
C26   H58   S    
C4    C26   S    
N27   Ni1   S    
C96   N22   A    
C66   O12   S    
C11   C20   S    
C34   C50   A    
N18   Ni6   S    
C18   C27   S    
C12   C27   S    
C33   C102  A    
C74   H27   S    
C86   C109  A    
C77   O13   S    
C24   C25   S    
C74   N32   A    
N13   Ni6   S    
C51   H73   S    
C19   C101  S    
C97   O6    S    
C88   C107  A    
C92   C104  A    
C88   O14   S    
C83   H36   S    
C9    H12   S    
C10   C24   S    
C68   C73   A    
C79   N5    A    
C15   H67   S    
C55   C104  A    
C45   C53   A    
C61   H68   S    
N25   N29   A    
C54   H79   S    
C50   H74   S    
C84   H37   S    
H51   O7    S    
N6    Ni3   S    
C97   C107  A    
C41   C50   A    
C5    H6    S    
C69   C72   A    
C33   O9    S    
C94   O3    S    
C32   C51   A    
C5    C9    S    
C100  O8    S    
N23   Ni2   S    
N24   N30   A    
C59   C68   A    
C38   C116  S    
C16   C25   S    
C9    C18   S    
N12   Ni2   S    
C38   C54   A    
C80   C115  A    
C10   C19   S    
C76   C112  A    
C3    C19   S    
C46   C54   A    
N32   Ni2   S    
C31   C109  S    
C41   H25   S    
C44   N23   A    
C84   C112  A    
C90   C115  A    
H15   O13   S    
C100  N26   A    
C110  C118  S    
C28   H60   S    
N17   Ni8   S    
C47   H21   S    
C83   N9    A    
N13   N32   A    
C1    O1    S    
C12   C118  S    
C82   H35   S    
C92   O16   S    
C44   O10   S    
C21   C107  S    
C30   C49   A    
N22   N31   A    
N26   N28   A    
C31   C48   A    
C40   H24   S    
C19   C28   S    
C34   C59   A    
C7    H8    S    
C55   O11   S    
H17   O15   S    
C78   C113  A    
C94   N20   A    
C32   C60   A    
C66   C105  A    
C66   N28   A    
C36   C61   A    
C42   H26   S    
C1    C101  A    
N18   N27   A    
C20   C120  S    
C37   C64   A    
C16   H78   S    
C3    H4    S    
C78   H30   S    
C46   H20   S    
C14   C26   S    
H10   O9    S    
N6    N16   A    
C9    C110  S    
C80   H32   S    
N8    Ni4   S    
N8    N14   A    
N26   Ni7   S    
C56   H77   S    
N16   Ni7   S    
C75   C111  A    
N5    Ni4   S    
C2    C8    S    
C82   N8    A    
C18   C104  S    
C57   C65   A    
C85   C111  A    
C12   H45   S    
C6    C10   S    
C99   N31   A    
C2    C119  S    
H11   O10   S    
N3    Ni1   S    
C49   H71   S    
C75   H28   S    
N20   Ni6   S    
C63   H70   S    
N12   N20   A    
C1    N1    A    
C42   C51   A    
C40   C70   A    
C77   N29   A    
C8    C17   S    
C98   C106  A    
C91   C114  A    
C81   N7    A    
C30   C111  S    
C58   H62   S    
C67   C70   A    
C93   N19   A    
N30   Ni4   S    
C31   C57   A    
N29   Ni4   S    
C96   O5    S    
C17   C103  S    
C86   N13   A    
C98   O7    S    
C65   C71   A    
C2    H54   S    
N2    Ni1   S    
C45   C65   A    
C91   N17   A    
C11   C13   S    
C57   H63   S    
C14   C22   S    
C47   C68   A    
H48   O4    S    
C7    C23   S    
H9    O1    S    
C60   C69   A    
C53   H75   S    
N19   Ni5   S    
C30   C58   A    
C81   C116  A    
N22   Ni8   S    
C119  H2    S    
C87   N14   A    
C62   C71   A    
C59   H65   S    
C35   C62   A    
C99   O15   S    
C10   H23   S    
C43   C52   A    
N24   Ni7   S    
C48   H72   S    
C17   C119  S    
N19   N23   A    
C12   C21   S    
C58   C67   A    
C78   N4    A    
C5    C21   S    
C63   C72   A    
C94   C102  A    
C43   C67   A    
C14   C119  S    
C85   H38   S    
C79   C114  A    
N21   Ni5   S    
C24   H57   S    
C38   C63   A    
N25   Ni8   S    
C39   C71   A    
H50   O6    S    
N31   Ni3   S    
C13   C120  S    
C82   C117  A    
H49   O5    S    
C42   C72   A    
N14   Ni7   S    
C3    C16   S    
C95   C101  A    
H47   O3    S    
C39   C48   A    
H46   O2    S    
