data_mof_unit_7408.cif
_audit_creation_date              2012-12-10T17:40:08-0500
_audit_creation_method            fapswitch 2.2
_symmetry_space_group_name_H-M    P1
_symmetry_Int_Tables_number       1
_space_group_crystal_system       triclinic
_cell_length_a                    12.195657
_cell_length_b                    12.976815
_cell_length_c                    27.202183
_cell_angle_alpha                 92.02127
_cell_angle_beta                  87.050375
_cell_angle_gamma                 94.989069
_cell_volume                      4280.99416063

loop_
_atom_site_label
_atom_site_type_symbol
_atom_type_description
_atom_site_fract_x
_atom_site_fract_y
_atom_site_fract_z
_atom_type_partial_charge
C1    C     C_R   0.523363 0.700175 0.499175 0.955468
C2    C     C_R   0.476469 0.299382 0.501073 1.030244
C3    C     C_R   0.672342 0.506847 0.892586 -0.189994
C4    C     C_R   0.651508 0.510606 0.097960 -0.190310
C5    C     C_R   0.692825 0.599079 0.866352 -0.097040
C6    C     C_R   0.649063 0.417934 0.123987 -0.096014
C7    C     C_R   0.729195 0.692064 0.891657 0.549273
C8    C     C_R   0.670885 0.324695 0.098207 0.549558
C9    C     C_R   0.630881 0.415367 0.868378 -0.116620
C10   C     C_R   0.625420 0.603198 0.122842 -0.088217
C11   C     C_R   0.509668 0.503517 0.647922 -0.171167
C12   C     C_R   0.509609 0.509399 0.351827 -0.203234
C13   C     C_R   0.689052 0.604290 0.021401 0.034209
C14   C     C_R   0.677025 0.412384 0.968697 0.030302
C15   C     C_R   0.684006 0.415055 0.020468 0.035292
C16   C     C_R   0.707862 0.601506 0.969639 0.033157
C17   C     C_R   0.676475 0.510202 0.046674 0.075395
C18   C     C_R   0.687820 0.506662 0.943561 0.077402
C19   C     C_R   0.672471 0.697289 0.047949 -0.337032
C20   C     C_R   0.650890 0.319393 0.941743 -0.327843
C21   C     C_R   0.640236 0.697417 0.098010 0.527549
C22   C     C_R   0.628373 0.320282 0.891959 0.554286
C23   C     C_R   0.501721 0.503160 0.594105 0.961184
C24   C     C_R   0.501035 0.502952 0.405884 0.892860
C25   C     C_R   0.739026 0.691019 0.942967 -0.336467
C26   C     C_R   0.691082 0.325279 0.047045 -0.336795
C27   C     C_R   0.458949 0.186347 0.503010 -0.279671
C28   C     C_R   0.538365 0.812633 0.500962 -0.302710
C29   C     C_R   0.603252 0.967579 0.546130 0.396244
C30   C     C_R   0.359404 0.023180 0.479313 0.445987
C31   C     C_R   0.617506 0.865774 0.530938 -0.186812
C32   C     C_R   0.363584 0.130859 0.484565 -0.222095
C33   C     C_R   0.454608 0.865555 0.481878 0.476866
C34   C     C_R   0.542022 0.132515 0.522265 0.429461
C35   C     C_R   0.448636 0.970775 0.493365 -0.164731
C36   C     C_R   0.531010 0.024031 0.521254 -0.223253
C37   C     C_R   0.954815 0.448520 0.440209 -0.325345
C38   C     C_R   0.045741 0.550814 0.560307 -0.317780
C39   C     C_R   0.840311 0.446509 0.447096 0.088556
C40   C     C_R   0.160496 0.558238 0.551728 0.114774
C41   C     C_R   0.858572 0.508703 0.529800 0.049697
C42   C     C_R   0.140843 0.486118 0.471462 0.030340
C43   C     C_R   0.975633 0.512108 0.523438 0.008491
C44   C     C_R   0.024058 0.482265 0.478007 -0.001509
C45   C     C_R   0.673444 0.594819 0.815590 0.558002
C46   C     C_R   0.624155 0.422044 0.175100 0.561575
C47   C     C_R   0.590135 0.422470 0.821588 0.565356
C48   C     C_R   0.583837 0.598241 0.171897 0.531980
C49   C     C_R   0.598587 0.427713 0.713481 -0.128397
C50   C     C_R   0.607519 0.583537 0.279709 -0.074114
C51   C     C_R   0.554142 0.418321 0.667480 -0.048395
C52   C     C_R   0.585650 0.586380 0.330253 -0.040672
C53   C     C_R   0.494810 0.593089 0.678275 -0.132731
C54   C     C_R   0.455032 0.432154 0.321108 -0.166029
C55   C     C_R   0.520170 0.592289 0.728702 -0.044205
C56   C     C_R   0.471971 0.437048 0.269129 -0.146470
C57   C     C_R   0.578818 0.511633 0.745319 0.170035
C58   C     C_R   0.552871 0.510311 0.249013 0.156635
H1    H     H_    0.988885 0.421664 0.404968 0.191428
H2    H     H_    0.012173 0.583019 0.594575 0.178730
H3    H     H_    0.670110 0.638665 0.263695 0.168523
H4    H     H_    0.642012 0.365165 0.726239 0.174936
H5    H     H_    0.675937 0.770389 0.029884 0.151437
H6    H     H_    0.639650 0.245367 0.959046 0.151279
H7    H     H_    0.773166 0.759778 0.961967 0.146154
H8    H     H_    0.712690 0.254209 0.028632 0.148203
N1    N     N_R   0.614224 0.510443 0.795269 -0.347083
N2    N     N_R   0.585276 0.509122 0.197231 -0.362383
N3    N     N_R   0.207800 0.519340 0.508990 -0.170668
N4    N     N_R   0.792200 0.480660 0.491010 -0.165014
O1    O     O_R   0.421700 0.658820 0.502400 -0.545417
O2    O     O_R   0.578300 0.341180 0.497600 -0.582629
O3    O     O_R   0.609310 0.646410 0.496630 -0.568877
O4    O     O_R   0.390690 0.353590 0.503370 -0.580815
O5    O     O_R   0.406200 0.506190 0.574130 -0.597260
O6    O     O_R   0.593800 0.493810 0.425870 -0.564568
O7    O     O_R   0.593820 0.493770 0.568360 -0.616092
O8    O     O_R   0.406180 0.506230 0.431640 -0.619599
O9    O     O_2   0.712516 0.673756 0.786914 -0.487505
O10   O     O_2   0.638979 0.340404 0.202626 -0.492160
O11   O     O_2   0.541035 0.681305 0.194215 -0.520451
O12   O     O_2   0.524021 0.343142 0.803141 -0.503483
Zn1   Zn    Zn3+2 0.374730 0.508290 0.503850 1.056633
Zn2   Zn    Zn3+2 0.625270 0.491710 0.496150 1.052986
C59   C     C_2   0.458810 0.688203 0.657367 0.966260
O13   O     O_2   0.500306 0.719149 0.618181 -0.680115
O14   O     O_R   0.380099 0.744228 0.683130 -0.746842
H9    H     H_    0.372455 0.813829 0.668511 0.317226
C60   C     C_2   0.387607 0.342328 0.342772 1.009088
O15   O     O_2   0.420907 0.298160 0.377339 -0.618193
O16   O     O_R   0.287505 0.306241 0.322717 -0.750934
H10   H     H_    0.252994 0.240610 0.338290 0.401335
C61   C     C_2   0.266018 0.181139 0.470645 1.061797
O17   O     O_2   0.231541 0.165682 0.429394 -0.557778
O18   O     O_R   0.208118 0.238575 0.505980 -0.795784
H11   H     H_    0.144332 0.270331 0.491793 0.344073
C62   C     C_2   0.718338 0.820860 0.545329 1.081341
O19   O     O_2   0.774838 0.776828 0.514219 -0.635122
O20   O     O_R   0.754502 0.837436 0.593165 -0.766066
H12   H     H_    0.830141 0.813101 0.597213 0.350046
O21   O     O_3   0.661332 0.011631 0.585109 -0.602565
C63   C     C_3   0.592094 0.002835 0.628377 0.195949
H13   H     H_    0.547647 0.924233 0.631219 0.148049
H14   H     H_    0.530171 0.060724 0.628578 0.148179
C64   C     C_3   0.661289 0.021756 0.673636 -0.297473
H15   H     H_    0.715113 0.957508 0.676171 0.256400
H16   H     H_    0.714969 0.095055 0.670228 0.256154
C65   C     C_3   0.587944 0.027611 0.720684 -0.870687
H17   H     H_    0.541531 0.097633 0.721111 0.279746
H18   H     H_    0.639388 0.031779 0.753250 0.266510
H19   H     H_    0.528685 0.957862 0.723310 0.298056
O22   O     O_3   0.265884 0.969155 0.461490 -0.598615
C66   C     C_3   0.193332 0.939302 0.501738 0.131398
H20   H     H_    0.145232 0.005349 0.514069 0.134641
H21   H     H_    0.237602 0.914394 0.533649 0.152870
C67   C     C_3   0.114138 0.848379 0.485344 -0.274182
H22   H     H_    0.068966 0.870610 0.453415 0.230127
H23   H     H_    0.161373 0.781464 0.473736 0.269251
C68   C     C_3   0.031510 0.815602 0.526958 -0.907761
H24   H     H_    0.074478 0.796776 0.560069 0.266635
H25   H     H_    0.979992 0.745560 0.514869 0.303023
H26   H     H_    0.977863 0.878902 0.536672 0.270182
C69   C     C_2   0.189238 0.460006 0.422979 0.959980
O23   O     O_2   0.201117 0.369909 0.411844 -0.608704
O24   O     O_R   0.211963 0.537236 0.388508 -0.813108
H27   H     H_    0.239834 0.509385 0.355358 0.347618
C70   C     C_2   0.809660 0.530018 0.579294 0.933829
O25   O     O_2   0.813630 0.467395 0.611557 -0.640507
O26   O     O_R   0.764044 0.623310 0.590019 -0.765976
H28   H     H_    0.735510 0.629598 0.625590 0.355271
C71   C     C_2   0.224780 0.626618 0.585339 0.955093
O27   O     O_2   0.224405 0.607283 0.628991 -0.592497
O28   O     O_R   0.274442 0.720089 0.567898 -0.791619
H29   H     H_    0.303448 0.768973 0.594800 0.334090
C72   C     C_2   0.776467 0.403016 0.405440 0.985851
O29   O     O_2   0.797178 0.436964 0.364296 -0.589019
O30   O     O_R   0.697132 0.319842 0.412069 -0.812962
H30   H     H_    0.660655 0.296380 0.380444 0.361226
C73   C     C_2   0.485478 0.673445 0.764436 1.017176
O31   O     O_2   0.514594 0.764548 0.757614 -0.621286
O32   O     O_R   0.422182 0.644646 0.806821 -0.793089
H31   H     H_    0.402500 0.706356 0.828319 0.336230
C74   C     C_2   0.409550 0.363963 0.235157 1.015847
O33   O     O_2   0.409296 0.270775 0.239989 -0.557412
O34   O     O_R   0.353435 0.400154 0.196586 -0.777790
H32   H     H_    0.355648 0.478393 0.196701 0.314686
O35   O     O_3   0.753732 0.782509 0.865692 -0.582330
C75   C     C_3   0.697530 0.866507 0.886285 0.110662
H33   H     H_    0.727829 0.935903 0.865318 0.154909
H34   H     H_    0.718754 0.886525 0.924797 0.112182
C76   C     C_3   0.571982 0.849493 0.881558 -0.384349
H35   H     H_    0.553118 0.854512 0.842310 0.269951
H36   H     H_    0.539940 0.771852 0.894437 0.223547
C77   C     C_3   0.511782 0.930135 0.911987 -0.918051
H37   H     H_    0.526791 0.924177 0.951686 0.259517
H38   H     H_    0.421824 0.916480 0.907037 0.281423
H39   H     H_    0.539783 0.009326 0.900109 0.277819
O36   O     O_3   0.677140 0.234071 0.123196 -0.591100
C78   C     C_3   0.597851 0.154876 0.107304 0.019883
H40   H     H_    0.638209 0.081366 0.104056 0.164959
H41   H     H_    0.564823 0.166276 0.070604 0.121313
C79   C     C_3   0.501408 0.143530 0.145359 -0.255220
H42   H     H_    0.532783 0.130744 0.182108 0.272273
H43   H     H_    0.459095 0.216073 0.147303 0.260511
C80   C     C_3   0.418593 0.053332 0.131753 -0.906689
H44   H     H_    0.383800 0.066191 0.095745 0.263302
H45   H     H_    0.350187 0.047005 0.160330 0.291068
H46   H     H_    0.458672 0.979549 0.129505 0.278202
C81   C     C_2   0.645811 0.672473 0.358106 0.847215
O37   O     O_2   0.643351 0.761186 0.344690 -0.658137
O38   O     O_R   0.712092 0.653107 0.396510 -0.738156
H47   H     H_    0.750266 0.718681 0.411248 0.363426
C82   C     C_2   0.546293 0.315736 0.642141 0.961863
O39   O     O_2   0.619249 0.257803 0.645183 -0.620430
O40   O     O_R   0.450748 0.282950 0.617737 -0.801617
H48   H     H_    0.446800 0.207140 0.607498 0.333006
O41   O     O_3   0.618386 0.789573 0.122249 -0.595575
C83   C     C_3   0.717632 0.852937 0.127828 0.054453
H49   H     H_    0.732601 0.903361 0.095520 0.132838
H50   H     H_    0.790614 0.807532 0.131102 0.131604
C84   C     C_3   0.706065 0.920261 0.174759 -0.299326
H51   H     H_    0.630961 0.962562 0.173944 0.235993
H52   H     H_    0.696886 0.869918 0.207206 0.255724
C85   C     C_3   0.806093 0.998192 0.180409 -0.875319
H53   H     H_    0.881929 0.957325 0.182665 0.261506
H54   H     H_    0.794656 0.045828 0.214706 0.290362
H55   H     H_    0.815999 0.050379 0.148694 0.276908
O42   O     O_3   0.599637 0.227967 0.866841 -0.593567
C86   C     C_3   0.695399 0.176590 0.853978 0.055540
H56   H     H_    0.667906 0.094914 0.844742 0.165926
H57   H     H_    0.751137 0.175333 0.885155 0.119787
C87   C     C_3   0.758051 0.222221 0.808214 -0.364243
H58   H     H_    0.701220 0.221667 0.777561 0.255040
H59   H     H_    0.790185 0.303433 0.816293 0.212554
C88   C     C_3   0.855041 0.160191 0.791985 -0.894361
H60   H     H_    0.914746 0.162479 0.821576 0.271162
H61   H     H_    0.897586 0.194127 0.758495 0.280008
H62   H     H_    0.826078 0.078405 0.783257 0.264544
O43   O     O_3   0.628317 0.187079 0.545890 -0.580851
C89   C     C_3   0.729494 0.179717 0.518454 0.188498
H63   H     H_    0.735753 0.233359 0.487595 0.180652
H64   H     H_    0.740113 0.100868 0.502529 0.130232
C90   C     C_3   0.823488 0.210846 0.552310 -0.273519
H65   H     H_    0.818936 0.292584 0.564860 0.255051
H66   H     H_    0.815448 0.162160 0.585274 0.274039
C91   C     C_3   0.935167 0.199112 0.526205 -0.974628
H67   H     H_    0.943258 0.116979 0.514749 0.275415
H68   H     H_    0.000700 0.224269 0.551945 0.299539
H69   H     H_    0.945436 0.247870 0.493278 0.267394
O44   O     O_3   0.374719 0.813277 0.453682 -0.592272
C92   C     C_3   0.416784 0.798310 0.404897 0.140492
H70   H     H_    0.453140 0.722870 0.402091 0.130062
H71   H     H_    0.480205 0.861062 0.393036 0.155053
C93   C     C_3   0.322030 0.795224 0.370082 -0.316195
H72   H     H_    0.253095 0.740296 0.383635 0.265775
H73   H     H_    0.291381 0.873332 0.369489 0.254061
C94   C     C_3   0.358337 0.761961 0.317808 -0.835196
H74   H     H_    0.429059 0.814338 0.303776 0.289118
H75   H     H_    0.288997 0.765069 0.293160 0.269047
H76   H     H_    0.382387 0.681351 0.317073 0.265746

loop_
_geom_bond_atom_site_label_1
_geom_bond_atom_site_label_2
_ccdc_geom_bond_type
C30   C32   A    
O38   H47   S    
C80   H44   S    
C52   C81   S    
C8    C26   A    
C81   O37   D    
C14   C18   A    
O18   H11   S    
C75   C76   S    
O4    Zn1   S    
O14   H9    S    
C8    O36   S    
O6    Zn2   S    
C70   O26   S    
C83   H49   S    
C49   C57   A    
C72   O29   D    
C39   C72   S    
C59   O13   D    
C65   H17   S    
C94   H76   S    
C90   H66   S    
C29   C36   A    
C61   O17   D    
C30   C35   A    
C3    C18   A    
C3    C9    A    
C19   C21   A    
C75   H34   S    
C79   H42   S    
C93   H73   S    
C9    C22   A    
C47   O12   S    
C74   O33   D    
C62   O19   D    
C55   C73   S    
C85   H53   S    
C63   C64   S    
C74   O34   S    
C76   C77   S    
C51   C82   S    
C41   C70   S    
C69   O24   S    
C62   O20   S    
C56   C74   S    
O8    Zn1   S    
O1    Zn1   S    
O35   C75   S    
C19   H5    S    
C89   H63   S    
C49   C51   A    
C45   N1    A    
C1    C28   S    
C50   C52   A    
C76   H35   S    
C78   H41   S    
C2    C27   S    
C60   O16   S    
N4    Zn2   S    
O3    Zn2   S    
C77   H38   S    
C2    O4    A    
C66   C67   S    
C79   H43   S    
C21   O41   S    
C32   C61   S    
O30   H30   S    
O43   C89   S    
C61   O18   S    
C82   O39   D    
C82   O40   S    
C41   C43   A    
C86   H56   S    
C42   C44   A    
C57   N1    S    
C29   C31   A    
C2    O2    A    
C34   O43   S    
C47   N1    A    
O22   C66   S    
C12   C52   A    
C42   C69   S    
O34   H32   S    
C7    O35   S    
C53   C55   A    
C27   C34   A    
C90   C91   S    
C54   C56   A    
O2    Zn2   S    
C40   N3    A    
C13   C19   A    
C59   O14   S    
C26   H8    S    
O21   C63   S    
C14   C20   A    
C69   O23   D    
C25   H7    S    
C75   H33   S    
C54   C60   S    
C4    C6    A    
C67   H23   S    
C84   H52   S    
O16   H10   S    
C5    C7    A    
C91   H67   S    
C24   O6    A    
C15   C26   A    
C6    C8    A    
O7    Zn2   S    
C3    C5    A    
C94   H74   S    
C84   H51   S    
C5    C45   A    
C66   H21   S    
C42   N3    A    
C23   O7    A    
C30   O22   S    
O42   C86   S    
C35   C36   A    
C50   C58   A    
O36   C78   S    
C20   H6    S    
C86   C87   S    
C43   C44   A    
C87   C88   S    
C92   H70   S    
C46   N2    A    
N3    Zn1   S    
C79   C80   S    
C64   H16   S    
C33   O44   S    
C85   H54   S    
C78   H40   S    
C73   O31   D    
C78   C79   S    
C29   O21   S    
C45   O9    S    
C1    O1    A    
C64   C65   S    
C48   N2    A    
C63   H14   S    
C77   H37   S    
C37   H1    S    
C68   H25   S    
C77   H39   S    
C38   H2    S    
C4    C17   A    
C16   C18   A    
C92   H71   S    
C40   C71   S    
C20   C22   A    
C28   C33   A    
C9    C47   A    
C80   H46   S    
C55   C57   A    
C10   C48   A    
O24   H27   S    
C72   O30   S    
C4    C10   A    
C71   O27   D    
C24   O8    A    
C66   H20   S    
C81   O38   S    
C84   C85   S    
C58   N2    S    
C16   C25   A    
C15   C17   A    
C67   C68   S    
C49   H4    S    
C6    C46   A    
C27   C32   A    
C93   H72   S    
C68   H26   S    
C28   C31   A    
C23   O5    A    
C71   O28   S    
C93   C94   S    
C11   C53   A    
C10   C21   A    
C83   H50   S    
C68   H24   S    
C85   H55   S    
C31   C62   S    
C94   H75   S    
C64   H15   S    
C12   C24   S    
C7    C25   A    
C65   H19   S    
C13   C17   A    
C1    O3    A    
C87   H58   S    
C88   H62   S    
C37   C44   A    
C48   O11   S    
O26   H28   S    
C38   C43   A    
C37   C39   A    
O40   H48   S    
O20   H12   S    
C38   C40   A    
C73   O32   S    
C91   H69   S    
O5    Zn1   S    
O28   H29   S    
C65   H18   S    
C89   C90   S    
C11   C23   S    
C33   C35   A    
C39   N4    A    
C56   C58   A    
C67   H22   S    
C91   H68   S    
C76   H36   S    
C22   O42   S    
C63   H13   S    
C83   C84   S    
C11   C51   A    
O41   C83   S    
C88   H60   S    
C92   C93   S    
C34   C36   A    
C80   H45   S    
O44   C92   S    
C13   C16   A    
C50   H3    S    
C14   C15   A    
C53   C59   S    
C46   O10   S    
C90   H65   S    
C86   H57   S    
C60   O15   D    
O32   H31   S    
C89   H64   S    
C12   C54   A    
C70   O25   D    
C87   H59   S    
C41   N4    A    
C88   H61   S    
