data_mof_unit_41535.cif
_audit_creation_date              2013-03-05T16:35:52-0500
_audit_creation_method            fapswitch 2.2
_symmetry_space_group_name_H-M    P1
_symmetry_Int_Tables_number       1
_space_group_crystal_system       triclinic
_cell_length_a                    23.536988
_cell_length_b                    9.111383
_cell_length_c                    7.793302
_cell_angle_alpha                 89.41099
_cell_angle_beta                  89.999134
_cell_angle_gamma                 89.999571
_cell_volume                      1671.22046699

loop_
_atom_site_label
_atom_site_type_symbol
_atom_site_description
_atom_site_fract_x
_atom_site_fract_y
_atom_site_fract_z
_atom_type_partial_charge
O1    O     O_R   0.500000 0.288390 0.642760 -0.564217
O2    O     O_R   0.500000 0.711610 0.357240 -0.564214
O3    O     O_R   0.500000 0.711610 0.642760 -0.575926
O4    O     O_R   0.500000 0.288390 0.357240 -0.575927
H1    H     H_    0.948288 0.387780 0.914427 0.195887
H2    H     H_    0.051713 0.612178 0.085594 0.195888
H3    H     H_    0.948293 0.612206 0.085581 0.195887
H4    H     H_    0.051707 0.387774 0.914431 0.195887
C1    C     C_R   0.500000 0.220015 0.500507 0.871618
C2    C     C_R   0.500000 0.779985 0.499493 0.871624
O5    O     O_R   0.417880 0.500000 0.642820 -0.564024
O6    O     O_R   0.582120 0.500000 0.357180 -0.564025
O7    O     O_R   0.582120 0.500000 0.642820 -0.564023
O8    O     O_R   0.417880 0.500000 0.357180 -0.564023
C3    C     C_R   0.209308 0.499982 0.499995 0.288215
C4    C     C_R   0.790692 0.500004 0.499978 0.288163
C5    C     C_R   0.390915 0.499998 0.500001 0.876158
C6    C     C_R   0.609085 0.499999 0.499999 0.876161
Cu1   Cu    Cu3+1 0.500000 0.500000 0.669080 1.076534
Cu2   Cu    Cu3+1 0.500000 0.500000 0.330920 1.076534
C7    C     C_R   0.299047 0.628656 0.455288 0.093136
C8    C     C_R   0.700954 0.371331 0.544683 0.093127
C9    C     C_R   0.299049 0.371327 0.544706 0.093124
C10   C     C_R   0.700950 0.628673 0.455293 0.093130
C11   C     C_R   0.328722 0.499994 0.500002 -0.183261
C12   C     C_R   0.671277 0.500001 0.499993 -0.183271
C13   C     C_R   0.880595 0.530011 0.350316 0.538223
C14   C     C_R   0.119406 0.469986 0.649682 0.538233
C15   C     C_R   0.880592 0.469988 0.649666 0.538237
C16   C     C_R   0.119408 0.529951 0.350333 0.538222
N1    N     N_R   0.851980 0.500005 0.499987 -0.460497
N2    N     N_R   0.148020 0.499974 0.500005 -0.460493
C17   C     C_R   0.940127 0.463827 0.650992 -0.026016
C18   C     C_R   0.059873 0.536119 0.349017 -0.026024
C19   C     C_R   0.940129 0.536148 0.349007 -0.026025
C20   C     C_R   0.059871 0.463821 0.651000 -0.026022
C21   C     C_R   0.970022 0.499981 0.500002 -0.010769
C22   C     C_R   0.029978 0.499972 0.500007 -0.010765
C23   C     C_R   0.970357 0.421788 0.798804 -0.180414
C24   C     C_R   0.029644 0.578165 0.201211 -0.180426
C25   C     C_R   0.970361 0.578183 0.201205 -0.180427
C26   C     C_R   0.029639 0.421786 0.798807 -0.180430
C27   C     C_1   0.500000 0.065325 0.500691 -0.085391
C28   C     C_1   0.500000 0.934675 0.499308 -0.085392
C29   C     C_R   0.239442 0.632196 0.468233 0.138849
C30   C     C_R   0.760559 0.367784 0.531712 0.138893
C31   C     C_R   0.239444 0.367774 0.531749 0.138871
C32   C     C_R   0.760555 0.632223 0.468247 0.138880
N3    N     N_1   0.500000 0.500000 0.076820 -0.022950
N4    N     N_1   0.500000 0.500000 0.923180 -0.022950
O9    O     O_2   0.851453 0.554510 0.203646 -0.491192
O10   O     O_2   0.148549 0.445532 0.796347 -0.491179
O11   O     O_2   0.851446 0.445498 0.796328 -0.491188
O12   O     O_2   0.148552 0.554387 0.203665 -0.491179
C33   C     C_3   0.208963 0.777768 0.451392 -0.721208
H5    H     H_    0.212240 0.819510 0.317428 0.260817
H6    H     H_    0.163459 0.771470 0.486948 0.216642
H7    H     H_    0.228455 0.858416 0.539552 0.238376
C34   C     C_3   0.791039 0.222196 0.548487 -0.721182
H8    H     H_    0.836540 0.228493 0.512891 0.216633
H9    H     H_    0.787777 0.180423 0.682447 0.260808
H10   H     H_    0.771535 0.141566 0.460309 0.238380
C35   C     C_3   0.208967 0.222193 0.548562 -0.721190
H11   H     H_    0.212233 0.180447 0.682526 0.260814
H12   H     H_    0.163465 0.228481 0.512980 0.216638
H13   H     H_    0.228471 0.141551 0.460403 0.238383
C36   C     C_3   0.791031 0.777811 0.451452 -0.721173
H14   H     H_    0.836532 0.771518 0.487036 0.216645
H15   H     H_    0.787762 0.819578 0.317491 0.260808
H16   H     H_    0.771528 0.858446 0.539623 0.238379
I1    I     I_    0.344631 0.818617 0.368785 -0.303859
I2    I     I_    0.655371 0.181369 0.631192 -0.303853
I3    I     I_    0.344636 0.181373 0.631212 -0.303848
I4    I     I_    0.655362 0.818631 0.368794 -0.303853

loop_
_geom_bond_atom_site_label_1
_geom_bond_atom_site_label_2
_geom_bond_distance
_ccdc_geom_bond_type
C33   H5    1.110134 S    
C35   H12   1.107623 S    
C30   C34   1.512558 S    
C20   C26   1.403852 A    
Cu1   Cu2   2.635384 S    
C6    C12   1.463829 S    
C3    C31   1.417488 A    
C4    C32   1.417553 A    
C3    N2    1.442523 S    
C4    N1    1.442530 S    
C16   O12   1.349588 S    
O5    Cu1   1.943667 S    
C17   C23   1.403887 A    
O7    C6    1.281274 A    
C7    I1    2.139473 S    
C18   C24   1.403861 A    
C19   C21   1.407279 A    
C21   C22   1.411177 A    
H4    C26   1.082614 S    
C31   C35   1.512492 S    
C15   C17   1.402432 A    
O2    Cu2   1.941036 S    
O3    Cu1   1.936842 S    
H3    C25   1.082645 S    
C35   H13   1.110416 S    
C34   H8    1.107633 S    
O8    C5    1.281272 A    
C9    I3    2.139450 S    
C8    I2    2.139472 S    
C13   O9    1.349679 S    
C23   C26   1.395334 A    
C7    C29   1.406948 A    
C34   H9    1.110185 S    
C9    C31   1.406959 A    
C16   C18   1.402423 A    
C13   N1    1.371982 A    
C36   H14   1.107630 S    
C10   C32   1.406954 A    
O8    Cu2   1.943661 S    
C14   N2    1.371987 A    
O1    C1    1.277243 A    
C4    C30   1.417531 A    
O7    Cu1   1.943659 S    
C13   C19   1.402409 A    
O1    Cu1   1.941037 S    
C2    C28   1.409423 S    
C17   C21   1.407222 A    
C36   H15   1.110186 S    
C27   C28   1.190568 T    
Cu2   N3    1.980277 S    
O6    Cu2   1.943665 S    
C29   C33   1.512450 S    
C24   C25   1.395334 A    
C8    C30   1.406960 A    
C33   H6    1.107618 S    
H2    C24   1.082585 S    
C3    C29   1.417527 A    
O2    C2    1.277243 A    
H1    C23   1.082603 S    
C7    C11   1.405393 A    
O5    C5    1.281274 A    
C34   H10   1.110437 S    
C18   C22   1.407211 A    
C10   C12   1.405417 A    
C1    C27   1.409423 S    
C36   H16   1.110406 S    
C5    C11   1.463829 S    
C20   C22   1.407229 A    
C15   N1    1.372045 A    
O3    C2    1.272967 A    
C16   N2    1.371932 A    
C14   O10   1.349600 S    
Cu1   N4    1.980277 S    
C10   I4    2.139479 S    
C15   O11   1.349646 S    
C9    C11   1.405403 A    
C32   C36   1.512521 S    
C19   C25   1.403819 A    
C35   H11   1.110139 S    
O4    Cu2   1.936843 S    
C14   C20   1.402429 A    
N3    N4    1.197364 T    
C8    C12   1.405425 A    
C33   H7    1.110363 S    
O6    C6    1.281270 A    
O4    C1    1.272967 A    
