data_mof_unit_55764.cif
_audit_creation_date              2013-03-05T15:46:45-0500
_audit_creation_method            fapswitch 2.2
_symmetry_space_group_name_H-M    P1
_symmetry_Int_Tables_number       1
_space_group_crystal_system       triclinic
_cell_length_a                    10.285308
_cell_length_b                    10.502864
_cell_length_c                    12.849904
_cell_angle_alpha                 93.112895
_cell_angle_beta                  110.336312
_cell_angle_gamma                 94.121453
_cell_volume                      1293.55175122

loop_
_atom_site_label
_atom_site_type_symbol
_atom_site_description
_atom_site_fract_x
_atom_site_fract_y
_atom_site_fract_z
_atom_type_partial_charge
O1    O     O_R   0.936910 0.692950 0.509080 -0.629397
O2    O     O_R   0.138320 0.658600 0.480130 -0.525552
C1    C     C_R   0.052455 0.734747 0.497975 0.916617
O3    O     O_R   0.002900 0.525670 0.675280 -0.563880
O4    O     O_R   0.204310 0.491320 0.646330 -0.611278
C2    C     C_R   0.136816 0.518772 0.712932 0.994798
Zn1   Zn    Zn3+2 0.865520 0.522940 0.519330 1.129619
Zn2   Zn    Zn3+2 0.134480 0.477060 0.480670 1.151698
O5    O     O_R   0.861680 0.341400 0.519870 -0.573886
O6    O     O_R   0.063090 0.307050 0.490920 -0.586363
O7    O     O_R   0.795690 0.508680 0.353670 -0.608156
O8    O     O_R   0.997100 0.474330 0.324720 -0.563004
C3    C     C_R   0.952295 0.266119 0.509324 0.858589
C4    C     C_R   0.862857 0.479607 0.288402 0.946253
C5    C     C_R   0.738206 0.356239 0.982904 0.467388
C6    C     C_R   0.779395 0.448282 0.170936 -0.203833
C7    C     C_R   0.143408 0.567332 0.909871 0.159969
C8    C     C_R   0.209510 0.554251 0.024297 0.393371
C9    C     C_R   0.340735 0.508073 0.061450 0.276124
C10   C     C_R   0.419055 0.498287 0.990229 -0.119327
C11   C     C_R   0.357472 0.522946 0.878285 -0.117909
C12   C     C_R   0.557778 0.464192 0.025773 -0.027463
C13   C     C_R   0.614100 0.417664 0.946947 -0.014705
C14   C     C_R   0.551815 0.446906 0.836622 0.447870
C15   C     C_R   0.443711 0.527973 0.813395 0.161539
C16   C     C_R   0.646498 0.489822 0.134855 -0.147963
C17   C     C_R   0.821642 0.370343 0.097671 0.141059
C18   C     C_R   0.213879 0.540385 0.834835 -0.171717
H1    H     H_    0.614987 0.550264 0.190889 0.209816
C19   C     C_2   0.088282 0.873528 0.512416 0.026782
C20   C     C_2   0.060205 0.943179 0.593424 0.129985
C21   C     C_2   0.941037 0.131045 0.529366 0.267771
C22   C     C_2   0.057813 0.082149 0.592054 0.406888
N1    N     N_2   0.313640 0.446500 0.454900 0.032779
C23   C     C_2   0.427082 0.524172 0.489387 0.545382
N2    N     N_2   0.686360 0.553430 0.545150 0.002036
C24   C     C_2   0.569368 0.482656 0.495313 0.377421
N3    N     N_R   0.944802 0.304592 0.139562 0.223600
O9    O     O_R   0.042381 0.316968 0.097098 -0.293955
O10   O     O_R   0.956366 0.226851 0.217083 -0.348876
N4    N     N_R   0.028981 0.884989 0.681800 0.213684
O11   O     O_R   0.946461 0.936994 0.725271 -0.260924
O12   O     O_R   0.106027 0.799806 0.734751 -0.358156
O13   O     O_3   0.818546 0.052700 0.478577 -0.715237
H2    H     H_    0.747805 0.105440 0.432279 0.390009
N5    N     N_R   0.141671 0.932667 0.434633 0.216947
O14   O     O_R   0.121217 0.872500 0.338199 -0.297084
O15   O     O_R   0.224378 0.038320 0.464119 -0.289458
N6    N     N_R   0.578596 0.354237 0.456907 0.237275
O16   O     O_R   0.581457 0.262174 0.521227 -0.286025
O17   O     O_R   0.597059 0.330526 0.363060 -0.307344
O18   O     O_3   0.413819 0.648750 0.519609 -0.651027
H3    H     H_    0.457947 0.703512 0.478277 0.386743
O19   O     O_3   0.682279 0.668083 0.594089 -0.595724
H4    H     H_    0.779946 0.706667 0.622766 0.422271
O20   O     O_3   0.316678 0.332280 0.404400 -0.564879
H5    H     H_    0.220768 0.290406 0.382211 0.423050
O21   O     O_3   0.611422 0.416448 0.758946 -0.597747
H6    H     H_    0.542236 0.426859 0.684944 0.325196
O22   O     O_3   0.772317 0.282513 0.905416 -0.611747
H7    H     H_    0.839093 0.222131 0.943552 0.385470
N7    N     N_R   0.003161 0.601505 0.870497 0.221146
O23   O     O_R   0.979395 0.719778 0.885689 -0.261956
O24   O     O_R   0.900631 0.511895 0.844954 -0.285599
N8    N     N_R   0.383518 0.454265 0.166235 0.246495
O25   O     O_R   0.386252 0.330819 0.168358 -0.243960
O26   O     O_R   0.392412 0.523893 0.255545 -0.365121
O27   O     O_3   0.144946 0.574418 0.101293 -0.641229
H8    H     H_    0.051827 0.603797 0.065475 0.375420
N9    N     N_R   0.454030 0.640365 0.755850 0.243099
O28   O     O_R   0.359469 0.720615 0.736757 -0.313128
O29   O     O_R   0.574930 0.681588 0.753110 -0.238217
O30   O     O_3   0.175191 0.162237 0.654873 -0.741240
H9    H     H_    0.248889 0.108280 0.695121 0.378906

loop_
_geom_bond_atom_site_label_1
_geom_bond_atom_site_label_2
_geom_bond_distance
_ccdc_geom_bond_type
O4    Zn2   1.989207 S    
N9    O29   1.299870 A    
C13   C14   1.399586 A    
C20   C22   1.462511 S    
C14   C15   1.408302 A    
N1    O20   1.340200 S    
N9    O28   1.300367 A    
C4    C6    1.458891 S    
C2    C18   1.485279 S    
C7    N7    1.432632 S    
C1    C19   1.463108 S    
C24   N6    1.431923 S    
N4    O11   1.301448 A    
C3    C21   1.459155 S    
C5    C17   1.418315 A    
C9    C10   1.418136 A    
O3    C2    1.300557 A    
C19   C20   1.363347 D    
Zn2   O8    2.008232 S    
C21   C22   1.347716 D    
N7    O23   1.300536 A    
C6    C17   1.413146 A    
C5    C13   1.414177 A    
C7    C8    1.408412 A    
C21   O13   1.382536 S    
C5    O22   1.382834 S    
Zn2   N1    2.026295 S    
C10   C11   1.402936 A    
N3    O10   1.301173 A    
N4    O12   1.297932 A    
O4    C2    1.308585 A    
C11   C15   1.413136 A    
O3    Zn1   2.008231 S    
O1    Zn1   1.910271 S    
C22   O30   1.385480 S    
N2    C24   1.301805 D    
C23   C24   1.534756 S    
C11   C18   1.415395 A    
C10   C12   1.418052 A    
C9    N8    1.425685 S    
O2    C1    1.301735 A    
N8    O25   1.300423 A    
O30   H9    0.992116 S    
C6    C16   1.393155 A    
N3    O9    1.300582 A    
N1    C23   1.299159 D    
O7    C4    1.295802 A    
N5    O15   1.301223 A    
N5    O14   1.301450 A    
N2    O19   1.338151 S    
O20   H5    0.988097 S    
C17   N3    1.436475 S    
C12   C16   1.380068 A    
Zn1   O5    1.904700 S    
O18   H3    0.991011 S    
C16   H1    1.081020 S    
C14   O21   1.375966 S    
C8    C9    1.398642 A    
Zn1   N2    2.026441 S    
C23   O18   1.374291 S    
N6    O16   1.301124 A    
O5    C3    1.301618 A    
O19   H4    0.988476 S    
O27   H8    0.987856 S    
Zn1   O7    1.989207 S    
N7    O24   1.299536 A    
C15   N9    1.443201 S    
C20   N4    1.437692 S    
O1    C1    1.294258 A    
O21   H6    0.987283 S    
C12   C13   1.412486 A    
C7    C18   1.421540 A    
C8    O27   1.385221 S    
C19   N5    1.444376 S    
Zn2   O6    1.910272 S    
O2    Zn2   1.904698 S    
O13   H2    0.991465 S    
N8    O26   1.298640 A    
O8    C4    1.301240 A    
O22   H7    0.988162 S    
N6    O17   1.298343 A    
O6    C3    1.291229 A    
