data_mof_unit_28802.cif
_audit_creation_date              2012-12-11T16:24:09-0500
_audit_creation_method            fapswitch 2.2
_symmetry_space_group_name_H-M    P1
_symmetry_Int_Tables_number       1
_space_group_crystal_system       triclinic
_cell_length_a                    14.721096
_cell_length_b                    14.724322
_cell_length_c                    33.350591
_cell_angle_alpha                 96.082486
_cell_angle_beta                  96.116378
_cell_angle_gamma                 61.243949
_cell_volume                      6289.00558444

loop_
_atom_site_label
_atom_site_type_symbol
_atom_type_description
_atom_site_fract_x
_atom_site_fract_y
_atom_site_fract_z
_atom_type_partial_charge
C1    C     C_R   0.391172 0.699506 0.446116 0.549733
C2    C     C_R   0.330389 0.346882 0.308892 -0.031204
C3    C     C_R   0.406217 0.261348 0.329095 -0.029014
C4    C     C_R   0.425973 0.270508 0.370789 0.410065
C5    C     C_R   0.396447 0.255194 0.165608 0.449153
C6    C     C_R   0.386938 0.238004 0.123765 0.399129
C7    C     C_R   0.207442 0.374851 0.122997 0.324287
C8    C     C_R   0.217783 0.391377 0.164788 -0.143244
C9    C     C_R   0.310829 0.329408 0.186193 -0.087716
C10   C     C_1   0.316111 0.337332 0.229429 0.094728
C11   C     C_1   0.321287 0.341882 0.265688 0.055328
C12   C     C_R   0.405830 0.386188 0.433996 0.565935
C13   C     C_R   0.290752 0.294593 0.102111 -0.045023
C14   C     C_R   0.761379 0.370611 0.410279 -0.077978
C15   C     C_R   0.794934 0.432920 0.392883 0.143859
C16   C     C_R   0.818024 0.414173 0.351998 0.129905
C17   C     C_R   0.812528 0.331129 0.329026 -0.028585
C18   C     C_R   0.796271 0.260252 0.347804 0.389342
C19   C     C_R   0.771988 0.278293 0.388171 0.142459
C20   C     C_R   0.830377 0.298947 0.203845 0.361452
C21   C     C_R   0.819783 0.319614 0.285132 0.404287
C22   C     C_R   0.824650 0.382095 0.142196 -0.102754
C23   C     C_R   0.702549 0.409020 0.447624 0.565076
C24   C     C_R   0.854813 0.377052 0.103394 0.169506
C25   C     C_R   0.916359 0.191158 0.098541 -0.121606
C26   C     C_R   0.885697 0.196388 0.137187 0.167682
C27   C     C_R   0.844532 0.291857 0.160297 0.003664
C28   C     C_R   0.906801 0.279617 0.082001 -0.010120
C29   C     C_R   0.372132 0.754056 0.409183 -0.044972
C30   C     C_R   0.275042 0.792987 0.387713 -0.099162
C31   C     C_R   0.263216 0.823042 0.348419 0.136336
C32   C     C_R   0.349531 0.813715 0.330074 0.034673
C33   C     C_R   0.445188 0.782100 0.352750 0.143201
C34   C     C_R   0.393149 0.702017 0.561269 0.560026
C35   C     C_R   0.455489 0.753487 0.392121 -0.093831
C36   C     C_R   0.341536 0.838318 0.206252 0.378020
C37   C     C_R   0.342928 0.825966 0.286716 0.380165
C38   C     C_R   0.267818 0.826218 0.136392 -0.147004
C39   C     C_R   0.248429 0.852607 0.096215 0.103450
C40   C     C_R   0.374574 0.916364 0.107185 0.388845
C41   C     C_R   0.393095 0.889720 0.147115 0.433204
C42   C     C_R   0.335845 0.849531 0.162603 -0.063374
C43   C     C_R   0.297297 0.904319 0.081792 -0.044422
C44   C     C_R   0.369571 0.371642 0.585363 -0.038043
C45   C     C_R   0.406852 0.388702 0.548927 0.563458
C46   C     C_R   0.294473 0.459125 0.606461 -0.109161
C47   C     C_R   0.273762 0.453457 0.645521 0.406463
C48   C     C_R   0.327856 0.359235 0.664487 0.000873
C49   C     C_R   0.394887 0.269379 0.642018 -0.130305
C50   C     C_R   0.415851 0.274582 0.602712 0.160578
C51   C     C_R   0.319474 0.348704 0.788944 0.378484
C52   C     C_R   0.321116 0.354893 0.708035 0.341397
C53   C     C_R   0.222496 0.408207 0.851864 0.387815
C54   C     C_R   0.210722 0.388664 0.890488 0.407379
C55   C     C_R   0.385919 0.244840 0.892222 -0.150529
C56   C     C_R   0.701692 0.413362 0.562692 0.584736
C57   C     C_R   0.397806 0.264051 0.853716 0.344181
C58   C     C_R   0.314305 0.342589 0.832342 -0.031299
C59   C     C_R   0.290652 0.303105 0.910098 -0.104232
C60   C     C_R   0.755337 0.379801 0.602864 -0.046671
C61   C     C_R   0.787520 0.443450 0.628316 0.376408
C62   C     C_R   0.815577 0.424496 0.669149 0.451479
C63   C     C_R   0.813060 0.341484 0.684925 -0.093354
C64   C     C_R   0.789136 0.273422 0.659439 -0.146816
C65   C     C_R   0.760916 0.291686 0.618653 0.325715
C66   C     C_R   0.877968 0.219107 0.822144 -0.152167
C67   C     C_R   0.369940 0.366378 0.392558 0.016360
C68   C     C_R   0.904581 0.204978 0.863374 0.099563
C69   C     C_R   0.873984 0.383648 0.873410 0.413503
C70   C     C_R   0.847587 0.396195 0.832197 0.461914
C71   C     C_R   0.853352 0.312836 0.806403 -0.064852
C72   C     C_1   0.839017 0.321730 0.763526 0.112155
C73   C     C_1   0.828187 0.329827 0.727629 0.112133
C74   C     C_R   0.908413 0.286242 0.889483 -0.046488
C75   C     C_R   0.373815 0.756243 0.602105 -0.082283
C76   C     C_R   0.283291 0.774412 0.619792 -0.135867
C77   C     C_R   0.271069 0.801734 0.660846 0.119079
C78   C     C_R   0.288505 0.449418 0.372221 -0.163768
C79   C     C_R   0.349456 0.812330 0.685110 0.000922
C80   C     C_R   0.435897 0.803432 0.667569 0.407769
C81   C     C_R   0.448415 0.776482 0.626141 0.171765
C82   C     C_R   0.384872 0.899301 0.830749 0.152006
C83   C     C_R   0.366463 0.927358 0.871513 -0.099262
C84   C     C_R   0.240322 0.864717 0.865849 -0.075857
C85   C     C_R   0.259306 0.834985 0.825125 0.148701
C86   C     C_R   0.329233 0.855473 0.807122 0.027333
C87   C     C_1   0.338212 0.839047 0.764202 0.123442
C88   C     C_1   0.343863 0.827441 0.728173 0.148609
C89   C     C_R   0.269284 0.439762 0.330582 -0.112595
C90   C     C_R   0.291396 0.913865 0.889036 -0.042275
C91   C     C_R   0.962884 0.264358 0.045546 0.556459
C92   C     C_R   0.272583 0.259582 0.060161 0.585563
C93   C     C_R   0.259396 0.959417 0.043915 0.579856
C94   C     C_R   0.962180 0.267627 0.930590 0.577792
C95   C     C_R   0.270971 0.264158 0.945372 0.561741
C96   C     C_R   0.256376 0.964843 0.929049 0.550134
Cr1   Cr    Cr6+3 0.576280 0.580550 0.506370 1.158377
Cr2   Cr    Cr6+3 0.346780 0.572400 0.496520 1.063420
Cr3   Cr    Cr6+3 0.576960 0.347070 0.497150 1.207148
Cr4   Cr    Cr6+3 0.087320 0.083240 0.984860 1.132741
Cr5   Cr    Cr6+3 0.087720 0.316210 0.996740 1.235379
Cr6   Cr    Cr6+3 0.317350 0.090340 0.995890 1.155929
H1    H     H_    0.790130 0.456754 0.159002 0.191646
H2    H     H_    0.952773 0.115857 0.082275 0.191331
H3    H     H_    0.209356 0.795655 0.400703 0.184583
H4    H     H_    0.531158 0.723661 0.408216 0.196230
H5    H     H_    0.225662 0.791753 0.147545 0.212132
H6    H     H_    0.255879 0.534514 0.593829 0.180554
H7    H     H_    0.434414 0.195037 0.655440 0.202405
H8    H     H_    0.453103 0.188854 0.312350 0.199795
H9    H     H_    0.449693 0.180032 0.906983 0.210050
H10   H     H_    0.879669 0.155456 0.802071 0.199327
H11   H     H_    0.788290 0.208292 0.671467 0.196919
H12   H     H_    0.406598 0.965490 0.888755 0.177621
H13   H     H_    0.223559 0.761931 0.602231 0.200552
H14   H     H_    0.182671 0.853062 0.878883 0.206937
H15   H     H_    0.243805 0.524101 0.387968 0.170690
H16   H     H_    0.151650 0.449768 0.180645 0.194611
H17   H     H_    0.210075 0.506201 0.315089 0.172940
N1    N     N_R   0.761901 0.389901 0.222168 -0.191415
N2    N     N_R   0.260501 0.441444 0.730834 -0.059742
N3    N     N_R   0.381119 0.265265 0.726585 -0.207557
N4    N     N_R   0.379950 0.262155 0.766185 -0.103569
N5    N     N_R   0.756307 0.399863 0.262053 -0.154575
N6    N     N_R   0.887689 0.228390 0.266963 -0.099527
N7    N     N_R   0.893473 0.218701 0.227078 -0.135056
N8    N     N_R   0.309383 0.776195 0.220429 -0.198123
N9    N     N_R   0.310687 0.769662 0.259967 -0.163516
N10   N     N_R   0.374275 0.888701 0.272666 -0.141391
N11   N     N_R   0.373231 0.894961 0.233138 -0.092303
N12   N     N_R   0.259225 0.438355 0.770466 -0.085350
O1    O     O_R   0.679450 0.499830 0.463150 -0.462718
O2    O     O_R   0.356040 0.477400 0.534170 -0.517230
O3    O     O_R   0.495910 0.323070 0.537100 -0.420930
O4    O     O_R   0.663920 0.359620 0.542290 -0.436942
O5    O     O_3   0.500010 0.500010 0.500010 -0.307883
O6    O     O_R   0.170070 0.978950 0.027680 -0.468154
O7    O     O_R   0.001760 0.175230 0.026640 -0.513946
O8    O     O_R   0.984760 0.333570 0.037150 -0.423995
O9    O     O_R   0.183410 0.309240 0.041890 -0.440168
O10   O     O_R   0.340240 0.172500 0.045430 -0.410211
O11   O     O_R   0.309670 0.000990 0.032050 -0.431276
O12   O     O_R   0.480650 0.664000 0.464630 -0.492813
O13   O     O_R   0.168330 0.982130 0.939200 -0.469025
O14   O     O_R   0.000140 0.178170 0.944610 -0.469960
O15   O     O_R   0.983010 0.336750 0.948660 -0.404574
O16   O     O_R   0.181800 0.312190 0.959860 -0.425560
O17   O     O_R   0.338500 0.175680 0.956950 -0.523680
O18   O     O_R   0.308050 0.003930 0.950020 -0.504540
O19   O     O_3   0.164130 0.163270 0.992500 -0.326951
O20   O     O_R   0.323930 0.675950 0.455370 -0.505630
O21   O     O_R   0.354700 0.475360 0.451930 -0.518567
O22   O     O_R   0.494470 0.320860 0.448390 -0.408951
O23   O     O_R   0.662580 0.357570 0.460050 -0.471762
O24   O     O_R   0.680900 0.502040 0.551870 -0.427350
O25   O     O_R   0.481990 0.666040 0.546870 -0.456886
O26   O     O_R   0.325370 0.678160 0.544080 -0.512284
F1    F     F_    0.470483 0.162504 0.104940 -0.481290
Br1   Br    Br    0.754733 0.172035 0.410295 -0.196322
Br2   Br    Br    0.823546 0.506246 0.082338 -0.263363
Br3   Br    Br    0.859420 0.500692 0.327455 -0.289911
F2    F     F_    0.797973 0.176039 0.326038 -0.513942
Br4   Br    Br    0.902609 0.069945 0.156109 -0.267194
Br5   Br    Br    0.153220 0.816653 0.063554 -0.320846
F3    F     F_    0.487814 0.196064 0.186266 -0.498921
Br6   Br    Br    0.128069 0.873960 0.320763 -0.312592
Br7   Br    Br    0.568314 0.763354 0.330153 -0.273780
F4    F     F_    0.428406 0.960215 0.094506 -0.501325
F5    F     F_    0.464910 0.906767 0.170915 -0.495031
Br8   Br    Br    0.509103 0.146456 0.575214 -0.275650
F6    F     F_    0.118354 0.449144 0.907209 -0.492372
F7    F     F_    0.204900 0.541881 0.665167 -0.530258
F8    F     F_    0.140749 0.486146 0.832523 -0.483575
F9    F     F_    0.489709 0.202676 0.836788 -0.537723
Br9   Br    Br    0.937526 0.071037 0.880290 -0.337791
F10   F     F_    0.733597 0.226043 0.595461 -0.549433
F11   F     F_    0.787203 0.526957 0.614382 -0.498667
F12   F     F_    0.820654 0.488687 0.817187 -0.480004
F13   F     F_    0.870272 0.466157 0.897092 -0.484979
F14   F     F_    0.503287 0.187341 0.389228 -0.539705
F15   F     F_    0.840698 0.489900 0.693678 -0.475425
Br10  Br    Br    0.481581 0.928789 0.807956 -0.244557
F16   F     F_    0.509801 0.817768 0.691078 -0.512413
Br11  Br    Br    0.569196 0.767923 0.605048 -0.167769
Br12  Br    Br    0.184076 0.771446 0.794825 -0.258950
Br13  Br    Br    0.148399 0.817978 0.682806 -0.276481
F17   F     F_    0.113765 0.433317 0.103697 -0.547327
Br14  Br    Br    0.814259 0.541888 0.423901 -0.293054

loop_
_geom_bond_atom_site_label_1
_geom_bond_atom_site_label_2
_ccdc_geom_bond_type
C94   O15   A    
C66   C68   A    
C87   C88   T    
C61   F11   S    
C55   C59   A    
C51   N4    A    
C41   C42   A    
C12   O21   A    
C36   C42   S    
C12   O22   A    
C65   F10   S    
C47   F7    S    
Cr5   O8    S    
C53   F8    S    
C7    C8    A    
Cr2   O21   S    
C85   C86   A    
C25   C28   A    
C20   N7    A    
Cr2   O2    S    
C45   O3    A    
C29   C30   A    
C59   C95   S    
C5    C6    A    
C7    F17   S    
N2    N12   A    
C38   C42   A    
C30   C31   A    
C80   C81   A    
Cr1   O25   S    
C3    H8    S    
C68   C74   A    
C15   C16   A    
Cr3   O23   S    
Cr2   O5    S    
Cr5   O19   S    
C76   H13   S    
C18   C19   A    
C80   F16   S    
C38   H5    S    
C74   C94   S    
Cr1   O12   S    
Cr6   O17   S    
C52   N3    A    
C68   Br9   S    
C40   C43   A    
C89   H17   S    
C53   C54   A    
C16   C17   A    
C46   H6    S    
C23   O1    A    
Cr2   O26   S    
C70   C71   A    
Cr6   O10   S    
C5    F3    S    
C9    C10   S    
C34   C75   S    
C54   C59   A    
C37   N9    A    
C94   O14   A    
C10   C11   T    
C84   H14   S    
C77   Br13  S    
C83   H12   S    
C61   C62   A    
C67   C78   A    
C84   C90   A    
C4    F14   S    
C56   O24   A    
C2    C11   S    
C14   C19   A    
C79   C88   S    
C6    F1    S    
Cr5   O9    S    
C44   C46   A    
Cr2   O20   S    
C77   C79   A    
C78   C89   A    
C85   Br12  S    
C12   C67   S    
Cr5   O15   S    
C8    H16   S    
C78   H15   S    
C95   O16   A    
C76   C77   A    
Cr4   O13   S    
C51   N12   A    
C86   C87   S    
C8    C9    A    
C39   C43   A    
C63   C73   S    
Cr4   O19   S    
C25   C26   A    
C82   C86   A    
C41   F5    S    
C17   C21   S    
C22   H1    S    
C56   C60   S    
Cr3   O3    S    
C60   C61   A    
C14   C23   S    
C2    C89   A    
C75   C76   A    
C66   C71   A    
C5    C9    A    
C62   C63   A    
C1    O12   A    
C36   N11   A    
C96   O13   A    
C91   O7    A    
C52   N2    A    
C47   C48   A    
C31   Br6   S    
C48   C52   S    
Cr4   O14   S    
C1    C29   S    
C17   C18   A    
C26   C27   A    
Cr3   O4    S    
C69   C74   A    
C50   Br8   S    
C51   C58   S    
C32   C37   S    
C84   C85   A    
C92   O10   A    
Cr4   O7    S    
Cr6   O19   S    
C91   O8    A    
C40   C41   A    
C60   C65   A    
C49   C50   A    
C34   O25   A    
C22   C27   A    
C55   C57   A    
C13   C92   S    
N6    N7    A    
C22   C24   A    
C79   C80   A    
C36   N8    A    
C21   N6    A    
C3    C4    A    
C92   O9    A    
C20   N1    A    
C56   O4    A    
C44   C45   S    
C49   H7    S    
N10   N11   A    
C44   C50   A    
C83   C90   A    
C82   Br10  S    
C46   C47   A    
Cr5   O16   S    
C64   H11   S    
C55   H9    S    
C54   F6    S    
C31   C32   A    
C70   F12   S    
C95   O17   A    
C24   C28   A    
Cr1   O1    S    
C72   C73   T    
C4    C67   A    
C53   C58   A    
C24   Br2   S    
C25   H2    S    
C90   C96   S    
C20   C27   S    
C75   C81   A    
C16   Br3   S    
C15   Br14  S    
C29   C35   A    
C45   O2    A    
Cr1   O5    S    
C43   C93   S    
C19   Br1   S    
C32   C33   A    
C21   N5    A    
C2    C3    A    
N3    N4    A    
C71   C72   S    
C30   H3    S    
C35   H4    S    
C26   Br4   S    
C62   F15   S    
C18   F2    S    
C57   C58   A    
C38   C39   A    
C48   C49   A    
C96   O18   A    
Cr3   O22   S    
C64   C65   A    
C33   C35   A    
C37   N10   A    
Cr3   O5    S    
C1    O20   A    
C28   C91   S    
Cr1   O24   S    
C69   C70   A    
C40   F4    S    
C93   O6    A    
Cr4   O6    S    
Cr6   O18   S    
C63   C64   A    
C34   O26   A    
N1    N5    A    
C7    C13   A    
C82   C83   A    
C23   O23   A    
C14   C15   A    
C33   Br7   S    
Cr6   O11   S    
C81   Br11  S    
C66   H10   S    
C39   Br5   S    
C69   F13   S    
C93   O11   A    
N8    N9    A    
C57   F9    S    
C6    C13   A    
