data_mof_unit_41378.cif
_audit_creation_date              2013-03-05T16:41:05-0500
_audit_creation_method            fapswitch 2.2
_symmetry_space_group_name_H-M    P1
_symmetry_Int_Tables_number       1
_space_group_crystal_system       triclinic
_cell_length_a                    18.654984
_cell_length_b                    18.778967
_cell_length_c                    18.732649
_cell_angle_alpha                 109.496224
_cell_angle_beta                  109.207451
_cell_angle_gamma                 109.350311
_cell_volume                      5074.04980677

loop_
_atom_site_label
_atom_site_type_symbol
_atom_site_description
_atom_site_fract_x
_atom_site_fract_y
_atom_site_fract_z
_atom_type_partial_charge
O1    O     O_R   0.408360 0.551710 0.460090 -0.601965
O2    O     O_R   0.408400 0.448280 0.356670 -0.628079
C1    C     C_R   0.380790 0.501042 0.380003 0.875014
O3    O     O_R   0.591600 0.643340 0.551710 -0.596476
O4    O     O_R   0.591630 0.539900 0.448290 -0.628353
C2    C     C_R   0.621440 0.620155 0.501340 0.859515
Zn1   Zn    Zn3+2 0.499980 0.569060 0.569060 1.014446
Zn2   Zn    Zn3+2 0.500020 0.430940 0.430940 0.948082
O5    O     O_R   0.591600 0.551720 0.643330 -0.607326
O6    O     O_R   0.591640 0.448290 0.539910 -0.629393
O7    O     O_R   0.408370 0.460100 0.551710 -0.603958
O8    O     O_R   0.408400 0.356660 0.448290 -0.630317
C3    C     C_R   0.618219 0.497824 0.620076 0.861547
C4    C     C_R   0.378756 0.380045 0.499225 0.866395
H1    H     H_    0.828974 0.807994 0.902310 0.152066
C5    C     C_R   0.820429 0.866623 0.821296 -0.174455
H2    H     H_    0.837998 0.927966 0.873269 0.188265
C6    C     C_R   0.800380 0.854739 0.737589 0.025410
C7    C     C_R   0.776834 0.773368 0.669941 0.026046
C8    C     C_R   0.774045 0.706728 0.689204 -0.090112
H3    H     H_    0.759572 0.645188 0.640280 0.133058
C9    C     C_R   0.791039 0.719016 0.771926 -0.113809
H4    H     H_    0.787085 0.666906 0.785267 0.154184
C10   C     C_R   0.814907 0.798773 0.838027 -0.177673
C11   C     C_R   0.825809 0.817634 0.576389 -0.209389
H5    H     H_    0.884649 0.871552 0.635876 0.151392
C12   C     C_R   0.813424 0.809798 0.495891 -0.087275
C13   C     C_R   0.736522 0.741542 0.417611 -0.012872
C14   C     C_R   0.676118 0.678779 0.422214 -0.268476
H6    H     H_    0.617587 0.624376 0.362698 0.152598
C15   C     C_R   0.688666 0.686612 0.502681 -0.065580
C16   C     C_R   0.762074 0.758941 0.581637 0.046760
C17   C     C_R   0.636693 0.726440 0.278793 -0.170070
H7    H     H_    0.591058 0.727884 0.302298 0.116387
C18   C     C_R   0.616277 0.717950 0.196502 -0.136222
H8    H     H_    0.555420 0.712770 0.157093 0.123060
C19   C     C_R   0.674424 0.716292 0.165129 -0.115218
H9    H     H_    0.658476 0.709564 0.101360 0.126939
C20   C     C_R   0.753260 0.723550 0.216207 -0.120197
H10   H     H_    0.798450 0.722519 0.192054 0.138415
C21   C     C_R   0.773955 0.732438 0.298642 -0.098410
H11   H     H_    0.835374 0.739035 0.337842 0.104433
C22   C     C_R   0.716009 0.733976 0.330788 0.133308
H12   H     H_    0.572698 0.889798 0.596475 0.185030
C23   C     C_R   0.437785 0.792146 0.529281 -0.201597
H13   H     H_    0.424197 0.827720 0.576955 0.191635
C24   C     C_R   0.371459 0.711333 0.456877 0.685108
C25   C     C_R   0.389563 0.665091 0.395492 -0.009516
C26   C     C_R   0.474440 0.699674 0.407751 -0.270829
H14   H     H_    0.489392 0.664040 0.361460 0.136049
C27   C     C_R   0.540407 0.780314 0.480305 -0.080240
H15   H     H_    0.605714 0.805973 0.489777 0.184686
C28   C     C_R   0.521980 0.826945 0.540617 -0.183872
C29   C     C_R   0.256273 0.576037 0.252529 -0.201700
H16   H     H_    0.260383 0.636195 0.255891 0.160271
C30   C     C_R   0.185612 0.495901 0.182968 -0.084440
C31   C     C_R   0.177199 0.417025 0.179768 0.015306
C32   C     C_R   0.244577 0.421134 0.244407 -0.278473
H17   H     H_    0.240922 0.361494 0.242244 0.158092
C33   C     C_R   0.314978 0.501325 0.313751 -0.084466
C34   C     C_R   0.319920 0.579477 0.319686 0.054503
C35   C     C_R   0.057116 0.274693 0.138290 -0.216946
H18   H     H_    0.080320 0.297174 0.207080 0.165570
C36   C     C_R   0.985081 0.191106 0.075991 0.001773
C37   C     C_R   0.955650 0.163464 0.987191 -0.149610
H19   H     H_    0.900063 0.099777 0.937853 0.206565
C38   C     C_R   0.997807 0.217905 0.961239 -0.114301
H20   H     H_    0.974871 0.195903 0.892651 0.182636
C39   C     C_R   0.069473 0.300605 0.023528 -0.122035
H21   H     H_    0.101181 0.342039 0.002561 0.106497
C40   C     C_R   0.099559 0.329997 0.112520 0.113374
H22   H     H_    0.180483 0.581583 0.495678 0.203755
C41   C     C_R   0.206575 0.518114 0.569877 -0.257124
H23   H     H_    0.203564 0.560388 0.623328 0.162589
C42   C     C_R   0.222833 0.451275 0.572724 0.652831
C43   C     C_R   0.227082 0.396361 0.503476 -0.003788
C44   C     C_R   0.213609 0.408773 0.431202 -0.235687
H24   H     H_    0.215073 0.366223 0.376596 0.136699
C45   C     C_R   0.196809 0.475360 0.428527 -0.074499
H25   H     H_    0.185700 0.484224 0.372454 0.179552
C46   C     C_R   0.193579 0.530132 0.497901 -0.143186
C47   C     C_R   0.179144 0.257989 0.504971 -0.138685
H26   H     H_    0.124357 0.263499 0.509097 0.161855
C48   C     C_R   0.186351 0.184864 0.498908 -0.111641
C49   C     C_R   0.255410 0.174886 0.491510 0.022683
C50   C     C_R   0.317763 0.240096 0.491344 -0.197056
H27   H     H_    0.371580 0.233320 0.485937 0.155053
C51   C     C_R   0.311268 0.313980 0.498297 -0.094303
C52   C     C_R   0.241072 0.323232 0.504207 0.067952
C53   C     C_R   0.300354 0.084584 0.548298 -0.111117
H28   H     H_    0.331230 0.136757 0.614344 0.165307
C54   C     C_R   0.299007 0.006058 0.534168 -0.214084
H29   H     H_    0.329168 0.999273 0.589910 0.163818
C55   C     C_R   0.258340 0.936894 0.448882 0.042938
C56   C     C_R   0.220595 0.948474 0.378371 -0.180170
H30   H     H_    0.189942 0.896610 0.312308 0.184720
C57   C     C_R   0.220668 0.026429 0.392520 -0.216805
H31   H     H_    0.189392 0.033581 0.337407 0.136471
C58   C     C_R   0.259850 0.094549 0.477481 0.123757
H32   H     H_    0.453512 0.565598 0.851246 0.174100
C59   C     C_R   0.580237 0.621507 0.863627 -0.181583
H33   H     H_    0.597924 0.687081 0.906976 0.140227
C60   C     C_R   0.640024 0.606253 0.841076 -0.113095
H34   H     H_    0.704028 0.660364 0.867880 0.119719
C61   C     C_R   0.617444 0.521589 0.784554 0.121162
C62   C     C_R   0.534931 0.451856 0.752121 -0.212131
H35   H     H_    0.518463 0.386436 0.709577 0.165623
C63   C     C_R   0.475090 0.466550 0.776434 0.024333
C64   C     C_R   0.498226 0.552235 0.831615 -0.151102
C65   C     C_R   0.747784 0.505267 0.824947 -0.263099
H36   H     H_    0.747912 0.512908 0.885048 0.154026
C66   C     C_R   0.814128 0.496890 0.810779 -0.097121
C67   C     C_R   0.816822 0.488862 0.734390 0.034904
C68   C     C_R   0.749367 0.485954 0.671060 -0.178918
H37   H     H_    0.749622 0.478287 0.611139 0.164878
C69   C     C_R   0.683258 0.495634 0.685663 -0.113551
C70   C     C_R   0.682637 0.506304 0.763562 -0.004475
C71   C     C_R   0.964739 0.543548 0.740461 0.062945
C72   C     C_R   0.027365 0.524693 0.726136 -0.202084
H38   H     H_    0.089726 0.576445 0.745002 0.157907
C73   C     C_R   0.009035 0.438906 0.684286 -0.133193
H39   H     H_    0.057047 0.425028 0.672073 0.167348
C74   C     C_R   0.928428 0.370970 0.656940 -0.119489
H40   H     H_    0.914346 0.304713 0.623090 0.149895
C75   C     C_R   0.866730 0.388509 0.673769 -0.197479
H41   H     H_    0.805115 0.335247 0.654076 0.130074
C76   C     C_R   0.883885 0.474402 0.715656 0.037491
O9    O     O_R   0.051730 0.908360 0.460060 -0.626206
O10   O     O_R   0.948280 0.908380 0.356650 -0.620849
C77   C     C_R   0.998064 0.877595 0.380337 0.871948
O11   O     O_R   0.960110 0.908350 0.551690 -0.618154
O12   O     O_R   0.856660 0.908370 0.448270 -0.617978
C78   C     C_R   0.879800 0.877322 0.497299 0.847240
Zn3   Zn    Zn3+2 0.069070 0.999960 0.569030 0.958181
Zn4   Zn    Zn3+2 0.930930 0.999990 0.430930 0.989526
O13   O     O_R   0.051720 0.091580 0.643310 -0.621802
O14   O     O_R   0.948270 0.091600 0.539890 -0.612982
O15   O     O_R   0.143340 0.091590 0.551680 -0.623727
O16   O     O_R   0.039890 0.091610 0.448270 -0.614546
C79   C     C_R   0.998357 0.118703 0.619839 0.865063
C80   C     C_R   0.120140 0.119249 0.499235 0.887101
O17   O     O_R   0.051730 0.460050 0.908360 -0.621424
O18   O     O_R   0.948290 0.356630 0.908390 -0.623866
C81   C     C_R   0.001711 0.380151 0.881093 0.865988
O19   O     O_R   0.143340 0.551690 0.091580 -0.618921
O20   O     O_R   0.039900 0.448270 0.091610 -0.610959
C82   C     C_R   0.119961 0.497921 0.118246 0.869602
Zn5   Zn    Zn3+2 0.069070 0.569030 0.999960 1.004370
Zn6   Zn    Zn3+2 0.930930 0.430930 0.000000 0.971649
O21   O     O_R   0.051710 0.643320 0.091560 -0.592785
O22   O     O_R   0.948270 0.539900 0.091590 -0.633846
O23   O     O_R   0.960100 0.551680 0.908340 -0.613903
O24   O     O_R   0.856660 0.448270 0.908370 -0.621175
C83   C     C_R   0.998508 0.620051 0.118827 0.871131
C84   C     C_R   0.880086 0.497714 0.877648 0.865222
H42   H     H_    0.979592 0.674196 0.575573 0.143895
C85   C     C_R   0.060686 0.751684 0.541018 -0.133621
H43   H     H_    0.117213 0.789525 0.605628 0.135169
C86   C     C_R   0.065326 0.767979 0.474616 -0.036205
H44   H     H_    0.125933 0.818177 0.488611 0.153284
C87   C     C_R   0.991806 0.720229 0.390971 0.078300
C88   C     C_R   0.915319 0.652545 0.373649 -0.201335
H45   H     H_    0.858860 0.612961 0.308830 0.138583
C89   C     C_R   0.910701 0.636693 0.440272 -0.114740
H46   H     H_    0.850976 0.585635 0.426895 0.141700
C90   C     C_R   0.983205 0.686544 0.524043 -0.108300
C91   C     C_R   0.993277 0.673898 0.252417 -0.188485
H47   H     H_    0.991119 0.616285 0.254770 0.160048
C92   C     C_R   0.996412 0.685832 0.183554 -0.058352
C93   C     C_R   0.000476 0.760879 0.179748 -0.001729
C94   C     C_R   0.000021 0.822138 0.245728 -0.261555
H48   H     H_    0.001737 0.879685 0.243522 0.159701
C95   C     C_R   0.998409 0.810905 0.315154 -0.082246
C96   C     C_R   0.995958 0.736732 0.319880 -0.005510
C97   C     C_R   0.067076 0.857491 0.127252 -0.148595
H49   H     H_    0.114267 0.908021 0.193798 0.116356
C98   C     C_R   0.070173 0.873277 0.060281 -0.133958
H50   H     H_    0.119189 0.935219 0.075580 0.137979
C99   C     C_R   0.010371 0.809020 0.973669 -0.062941
H51   H     H_    0.013165 0.821242 0.921923 0.147701
C100  C     C_R   0.946950 0.729321 0.954109 -0.119695
H52   H     H_    0.901595 0.679156 0.887317 0.155700
C101  C     C_R   0.942301 0.713925 0.020806 -0.130441
H53   H     H_    0.891343 0.652626 0.004438 0.095063
C102  C     C_R   0.003712 0.777121 0.108160 0.130161
H54   H     H_    0.400739 0.585043 0.074226 0.118024
C103  C     C_R   0.284877 0.542593 0.958286 -0.122954
H55   H     H_    0.309448 0.604296 0.959788 0.124797
C104  C     C_R   0.201629 0.473794 0.891833 -0.020917
H56   H     H_    0.162562 0.482799 0.841955 0.136825
C105  C     C_R   0.168870 0.393985 0.890285 0.101728
C106  C     C_R   0.222350 0.382584 0.953367 -0.190256
H57   H     H_    0.199495 0.320442 0.951228 0.138455
C107  C     C_R   0.305372 0.451625 0.019983 -0.110868
H58   H     H_    0.345744 0.442937 0.069298 0.136675
C108  C     C_R   0.336453 0.531706 0.022676 -0.107655
C109  C     C_R   0.076949 0.252912 0.755299 -0.204878
H59   H     H_    0.137151 0.256241 0.758203 0.175694
C110  C     C_R   0.996178 0.182996 0.685650 -0.080910
C111  C     C_R   0.916706 0.177977 0.679111 0.006546
C112  C     C_R   0.921520 0.243632 0.746246 -0.243706
H60   H     H_    0.861734 0.240738 0.744086 0.157377
C113  C     C_R   0.002451 0.314515 0.814943 -0.084667
C114  C     C_R   0.081271 0.320448 0.819347 -0.018974
C115  C     C_R   0.766290 0.128000 0.563509 -0.167310
H61   H     H_    0.780436 0.194534 0.587831 0.116319
C116  C     C_R   0.684951 0.062718 0.490803 -0.126084
H62   H     H_    0.637742 0.079514 0.460532 0.136589
C117  C     C_R   0.664908 0.976016 0.456687 -0.138943
H63   H     H_    0.602254 0.925400 0.399917 0.134399
C118  C     C_R   0.725710 0.954616 0.496147 -0.103911
H64   H     H_    0.710100 0.887553 0.469468 0.143911
C119  C     C_R   0.806413 0.019531 0.570113 -0.069789
H65   H     H_    0.851403 0.001218 0.601492 0.123577
C120  C     C_R   0.828758 0.107404 0.603404 0.107015
F1    F     F_    0.290252 0.677289 0.447422 -0.690628
C121  C     C_2   0.940904 0.132560 0.103287 0.896114
O25   O     O_2   0.966386 0.156683 0.180641 -0.634328
O26   O     O_R   0.869976 0.049277 0.040509 -0.835773
H66   H     H_    0.845721 0.015433 0.067168 0.344724
F2    F     F_    0.234615 0.440332 0.642926 -0.667966
C122  C     C_2   0.799707 0.926806 0.722532 0.857224
O27   O     O_2   0.858748 0.001533 0.775652 -0.673163
O28   O     O_R   0.729285 0.909884 0.649894 -0.835307
H67   H     H_    0.730182 0.965149 0.653268 0.336627
C123  C     C_2   0.253677 0.852300 0.432936 0.878425
O29   O     O_2   0.283043 0.840732 0.494173 -0.631273
O30   O     O_R   0.214262 0.784892 0.347595 -0.817128
H68   H     H_    0.212834 0.729629 0.344954 0.366696
C124  C     C_2   0.390190 0.392564 0.746991 0.933994
O31   O     O_2   0.337426 0.405765 0.766279 -0.581746
O32   O     O_R   0.370904 0.307252 0.698700 -0.840775
H69   H     H_    0.312043 0.262796 0.684657 0.343377
C125  C     C_2   0.984535 0.634981 0.777472 0.860689
O33   O     O_2   0.058860 0.693473 0.833694 -0.641180
O34   O     O_R   0.919702 0.654845 0.744505 -0.850506
H70   H     H_    0.943181 0.719759 0.769907 0.336047

loop_
_geom_bond_atom_site_label_1
_geom_bond_atom_site_label_2
_geom_bond_distance
_ccdc_geom_bond_type
C107  C108  1.397322 A    
C94   H48   1.085508 S    
C42   C43   1.407601 A    
C85   H43   1.082308 S    
C103  C108  1.397780 A    
C21   C22   1.403341 A    
C112  H60   1.084983 S    
C7    C8    1.403435 A    
O13   C79   1.281107 A    
O11   Zn3   2.017918 S    
O28   H67   1.012595 S    
C26   H14   1.083088 S    
C68   H37   1.084811 S    
C53   H28   1.081858 S    
C74   H40   1.080004 S    
C97   C98   1.396316 A    
C63   C124  1.482731 S    
C44   H24   1.082984 S    
C30   C31   1.415159 A    
Zn1   O7    2.021471 S    
C94   C95   1.393348 A    
C35   H18   1.083927 S    
C47   C52   1.385835 A    
C36   C121  1.483722 S    
H54   C108  1.081821 S    
C13   C14   1.384909 A    
C18   C19   1.397367 A    
C79   C110  1.432203 S    
Zn5   O21   2.015608 S    
C67   C68   1.386671 A    
Zn6   O22   2.022003 S    
C86   H44   1.081367 S    
O4    C2    1.284311 A    
Zn2   O6    2.021313 S    
O7    C4    1.279666 A    
C50   C51   1.399251 A    
C74   C75   1.397588 A    
C62   H35   1.083545 S    
C59   C64   1.396151 A    
O18   C81   1.282205 A    
O20   Zn6   2.019007 S    
C100  H52   1.075772 S    
C111  C120  1.494321 S    
O5    C3    1.281331 A    
C63   C64   1.407095 A    
C109  C114  1.381081 A    
C39   C40   1.401294 A    
C6    C7    1.424846 A    
C21   H11   1.076552 S    
O22   C83   1.281443 A    
C109  C110  1.395900 A    
Zn6   O24   2.019703 S    
C71   C72   1.406867 A    
C66   C67   1.407581 A    
C35   C36   1.406840 A    
O19   C82   1.283536 A    
O10   Zn4   2.016926 S    
H12   C28   1.080446 S    
C56   H30   1.080661 S    
C111  C112  1.388209 A    
C26   C27   1.394849 A    
C66   C84   1.429550 S    
O26   H66   1.013911 S    
C35   C40   1.407040 A    
O18   Zn6   2.015822 S    
C86   C87   1.404792 A    
C105  C106  1.404383 A    
O24   C84   1.279687 A    
H22   C46   1.082380 S    
C43   C52   1.483892 S    
C11   H5    1.085065 S    
C1    C33   1.433100 S    
C11   C16   1.385247 A    
C23   C24   1.396833 A    
C107  H58   1.082379 S    
C23   C28   1.395298 A    
H32   C64   1.083031 S    
C5    C10   1.390365 A    
C95   C96   1.411679 A    
C99   C100  1.396167 A    
C112  C113  1.397769 A    
C61   C70   1.478763 S    
C39   H21   1.077683 S    
C125  O34   1.394482 S    
C19   H9    1.082572 S    
O3    Zn1   2.015150 S    
C7    C16   1.495749 S    
C65   C70   1.382306 A    
C41   C46   1.397112 A    
O30   H68   1.013276 S    
C57   C58   1.399881 A    
C57   H31   1.082806 S    
C88   C89   1.398326 A    
C116  H62   1.082359 S    
C72   C73   1.393689 A    
C77   C95   1.431505 S    
C19   C20   1.396857 A    
O14   C79   1.276855 A    
C29   C30   1.395183 A    
C103  C104  1.398373 A    
O20   C82   1.274856 A    
C27   H15   1.076834 S    
C12   C78   1.434415 S    
C59   H33   1.082434 S    
O17   Zn5   2.022217 S    
C17   H7    1.083208 S    
C43   C44   1.405714 A    
C20   C21   1.398036 A    
O34   H70   1.012983 S    
C100  C101  1.395695 A    
C91   H47   1.085462 S    
C45   C46   1.396712 A    
C50   H27   1.085047 S    
O12   C78   1.277955 A    
Zn3   O13   2.017055 S    
C37   C38   1.396605 A    
C121  O25   1.223458 D    
C49   C50   1.383323 A    
C17   C22   1.406773 A    
C47   H26   1.085345 S    
C88   H45   1.083264 S    
C31   C40   1.487373 S    
C38   H20   1.082304 S    
C91   C92   1.397016 A    
C33   C34   1.403347 A    
O1    C1    1.278974 A    
C18   H8    1.082020 S    
C106  C107  1.398062 A    
C71   C76   1.419591 A    
C85   C86   1.398475 A    
Zn4   O16   2.018007 S    
C101  H53   1.081781 S    
C118  H64   1.077805 S    
C14   H6    1.085568 S    
C49   C58   1.477975 S    
O9    Zn3   2.020756 S    
C97   C102  1.407949 A    
C81   C113  1.434576 S    
C71   C125  1.477141 S    
C53   C54   1.398475 A    
C24   C25   1.404915 A    
O23   C84   1.276546 A    
H42   C90   1.082580 S    
Zn2   O8    2.015153 S    
C24   F1    1.356871 S    
C8    H3    1.082508 S    
C54   C55   1.406911 A    
C117  H63   1.082463 S    
C44   C45   1.398394 A    
C55   C56   1.403206 A    
C60   C61   1.401918 A    
C92   C93   1.413074 A    
C56   C57   1.397418 A    
C48   C49   1.405045 A    
C124  O32   1.396762 S    
C42   F2    1.356500 S    
C73   H39   1.082688 S    
C119  H65   1.081580 S    
C91   C96   1.384134 A    
C5    C6    1.404881 A    
H1    C10   1.082469 S    
C118  C119  1.398666 A    
C8    C9    1.394497 A    
C98   H50   1.082357 S    
C47   C48   1.394634 A    
O21   C83   1.277501 A    
C75   H41   1.081904 S    
Zn4   O14   2.020720 S    
O17   C81   1.276680 A    
C45   H25   1.081820 S    
O3    C2    1.273474 A    
C11   C12   1.396088 A    
C125  O33   1.223076 D    
C41   C42   1.398784 A    
O15   C80   1.277522 A    
C41   H23   1.082544 S    
C53   C58   1.402021 A    
C20   H10   1.082473 S    
O19   Zn5   2.019577 S    
C116  C117  1.394279 A    
O10   C77   1.284326 A    
C38   C39   1.396014 A    
C104  H56   1.082491 S    
Zn1   O5    2.017310 S    
C115  H61   1.077369 S    
C29   H16   1.085340 S    
C89   H46   1.082355 S    
C122  O28   1.391726 S    
O1    Zn1   2.021309 S    
C15   C16   1.414763 A    
O2    Zn2   2.017309 S    
Zn5   O23   2.019007 S    
O8    C4    1.279658 A    
O11   C78   1.281809 A    
O6    C3    1.279955 A    
O9    C77   1.274128 A    
C85   C90   1.397473 A    
Zn3   O15   2.018868 S    
O4    Zn2   2.021467 S    
C68   C69   1.402197 A    
C72   H38   1.083394 S    
C65   H36   1.085483 S    
C67   C76   1.487429 S    
C29   C34   1.381566 A    
C121  O26   1.398875 S    
C61   C62   1.403980 A    
C13   C22   1.487300 S    
C123  O30   1.399174 S    
C115  C120  1.408800 A    
C36   C37   1.404227 A    
C30   C82   1.433816 S    
C101  C102  1.402805 A    
O2    C1    1.278788 A    
C32   H17   1.085333 S    
C119  C120  1.404245 A    
C4    C51   1.435492 S    
C124  O31   1.223427 D    
C14   C15   1.394835 A    
C97   H49   1.078966 S    
C87   C88   1.405351 A    
C106  H57   1.083071 S    
C87   C96   1.484238 S    
O16   C80   1.279052 A    
C31   C32   1.387062 A    
C5    H2    1.083293 S    
C62   C63   1.408743 A    
C48   C80   1.430173 S    
O12   Zn4   2.018614 S    
C25   C26   1.400478 A    
C93   C102  1.486310 S    
C89   C90   1.397175 A    
C54   H29   1.083012 S    
C17   C18   1.398630 A    
C98   C99   1.393987 A    
C69   C70   1.409685 A    
C2    C15   1.432508 S    
C9    C10   1.390015 A    
C37   H19   1.081477 S    
C109  H59   1.085889 S    
C6    C122  1.474788 S    
C65   C66   1.394364 A    
C73   C74   1.391687 A    
C3    C69   1.438485 S    
C105  C114  1.481262 S    
C55   C123  1.481553 S    
C27   C28   1.398607 A    
C99   H51   1.081126 S    
C23   H13   1.082134 S    
C110  C111  1.414933 A    
C51   C52   1.410865 A    
C83   C92   1.435658 S    
C59   C60   1.394779 A    
C123  O29   1.222666 D    
C93   C94   1.383997 A    
C25   C34   1.472149 S    
C60   H34   1.082237 S    
C75   C76   1.402749 A    
C117  C118  1.393961 A    
C9    H4    1.073784 S    
C103  H55   1.082273 S    
C113  C114  1.409517 A    
C104  C105  1.404593 A    
C115  C116  1.397602 A    
C32   C33   1.393245 A    
C122  O27   1.222720 D    
O32   H69   1.013772 S    
C12   C13   1.412088 A    
