data_mof_unit_30523.cif
_audit_creation_date              2012-12-11T15:20:10-0500
_audit_creation_method            fapswitch 2.2
_symmetry_space_group_name_H-M    P1
_symmetry_Int_Tables_number       1
_space_group_crystal_system       triclinic
_cell_length_a                    16.641218
_cell_length_b                    16.678491
_cell_length_c                    43.101599
_cell_angle_alpha                 90.039091
_cell_angle_beta                  89.994145
_cell_angle_gamma                 120.132003
_cell_volume                      10346.3352323

loop_
_atom_site_label
_atom_site_type_symbol
_atom_type_description
_atom_site_fract_x
_atom_site_fract_y
_atom_site_fract_z
_atom_type_partial_charge
C1    C     C_R   0.583874 0.425911 0.794710 0.547647
C2    C     C_R   0.841992 0.415838 0.705352 0.547916
C3    C     C_R   0.574001 0.158626 0.794836 0.549454
C4    C     C_R   0.583668 0.426154 0.705444 0.546854
C5    C     C_R   0.842683 0.416350 0.794504 0.548336
C6    C     C_R   0.573957 0.158345 0.705234 0.548174
C7    C     C_R   0.426170 0.584330 0.294714 0.548214
C8    C     C_R   0.416494 0.842854 0.205528 0.547050
C9    C     C_R   0.157267 0.573505 0.294476 0.548353
C10   C     C_R   0.426072 0.583864 0.205317 0.547955
C11   C     C_R   0.416481 0.842701 0.294519 0.546111
C12   C     C_R   0.157980 0.573843 0.205338 0.547722
C13   C     C_R   0.039741 0.459214 0.130251 -0.060114
C14   C     C_R   0.541108 0.919825 0.371308 -0.061194
C15   C     C_R   0.373556 0.451664 0.129854 -0.055321
C16   C     C_R   0.024694 0.450423 0.366544 -0.053922
C17   C     C_R   0.430531 0.979058 0.133916 -0.053479
C18   C     C_R   0.525024 0.595007 0.374054 -0.060446
C19   C     C_R   0.477983 0.072279 0.625356 -0.055309
C20   C     C_R   0.965654 0.423838 0.868837 -0.052885
C21   C     C_R   0.575240 0.542459 0.631580 -0.057295
C22   C     C_R   0.478074 0.077908 0.875004 -0.046132
C23   C     C_R   0.956603 0.414860 0.630198 -0.052429
C24   C     C_R   0.581052 0.524983 0.873258 -0.054415
C25   C     C_R   0.067878 0.470332 0.161205 -0.138204
C26   C     C_R   0.521083 0.888004 0.340751 -0.142492
C27   C     C_R   0.366823 0.472203 0.160836 -0.139125
C28   C     C_R   0.057005 0.465535 0.336054 -0.133043
C29   C     C_R   0.410586 0.944400 0.164101 -0.136010
C30   C     C_R   0.517121 0.616376 0.343450 -0.136450
C31   C     C_R   0.484567 0.100564 0.656077 -0.137045
C32   C     C_R   0.934824 0.404366 0.838191 -0.133136
C33   C     C_R   0.594075 0.530583 0.662219 -0.137991
C34   C     C_R   0.484869 0.104209 0.844080 -0.129286
C35   C     C_R   0.931849 0.401744 0.661460 -0.133572
C36   C     C_R   0.606369 0.518720 0.842867 -0.137433
C37   C     C_R   0.120290 0.634547 0.157891 -0.135052
C38   C     C_R   0.406873 0.937417 0.337777 -0.137129
C39   C     C_R   0.523270 0.604133 0.158449 -0.136657
C40   C     C_R   0.117746 0.630621 0.342474 -0.134814
C41   C     C_R   0.517125 0.886135 0.158288 -0.137568
C42   C     C_R   0.377798 0.466442 0.337378 -0.139135
C43   C     C_R   0.624018 0.090635 0.662507 -0.139584
C44   C     C_R   0.888492 0.520859 0.840687 -0.137125
C45   C     C_R   0.482169 0.366225 0.658521 -0.142440
C46   C     C_R   0.623686 0.092816 0.838379 -0.139704
C47   C     C_R   0.874356 0.509162 0.656904 -0.136132
C48   C     C_R   0.464539 0.370778 0.836955 -0.142039
C49   C     C_R   0.092539 0.623296 0.126882 -0.045813
C50   C     C_R   0.427382 0.969607 0.368256 -0.051816
C51   C     C_R   0.529774 0.583440 0.127490 -0.055734
C52   C     C_R   0.085714 0.615332 0.373049 -0.042808
C53   C     C_R   0.536552 0.920423 0.127993 -0.047578
C54   C     C_R   0.386878 0.444357 0.368020 -0.049083
C55   C     C_R   0.616372 0.060661 0.631756 -0.053501
C56   C     C_R   0.919093 0.539934 0.871372 -0.052533
C57   C     C_R   0.463808 0.378229 0.627799 -0.055457
C58   C     C_R   0.615653 0.064520 0.869368 -0.048692
C59   C     C_R   0.898929 0.521918 0.625580 -0.043680
C60   C     C_R   0.439102 0.377460 0.867318 -0.056922
C61   C     C_R   0.054410 0.536073 0.112749 0.238205
C62   C     C_R   0.492149 0.957936 0.385523 0.243350
C63   C     C_R   0.453926 0.508913 0.112785 0.244959
C64   C     C_R   0.041545 0.525497 0.385452 0.238924
C65   C     C_R   0.491105 0.964427 0.115348 0.242169
C66   C     C_R   0.459355 0.509585 0.386802 0.236847
C67   C     C_R   0.544414 0.053391 0.612766 0.239031
C68   C     C_R   0.955020 0.489425 0.885830 0.245326
C69   C     C_R   0.512399 0.465866 0.613908 0.243095
C70   C     C_R   0.543848 0.058944 0.888090 0.239080
C71   C     C_R   0.937590 0.472692 0.611922 0.238853
C72   C     C_R   0.498310 0.453508 0.885907 0.242013
C73   C     C_R   0.892808 0.450332 0.824186 0.012750
C74   C     C_R   0.558932 0.112360 0.674783 0.012944
C75   C     C_R   0.549544 0.440354 0.824649 0.012104
C76   C     C_R   0.887577 0.446337 0.674860 0.009928
C77   C     C_R   0.559000 0.114275 0.825591 0.011685
C78   C     C_R   0.550019 0.441795 0.675655 0.011304
C79   C     C_R   0.451174 0.893294 0.324097 0.011378
C80   C     C_R   0.110983 0.558648 0.175070 0.009884
C81   C     C_R   0.442069 0.553446 0.325008 0.012962
C82   C     C_R   0.451290 0.894827 0.176216 0.010030
C83   C     C_R   0.106614 0.556123 0.324061 0.010145
C84   C     C_R   0.440451 0.550662 0.175134 0.011077
C85   C     C_R   0.098125 0.555288 0.027756 0.047308
C86   C     C_R   0.589120 0.051568 0.463869 0.042900
C87   C     C_R   0.458393 0.413523 0.034929 0.037480
C88   C     C_R   0.082210 0.532054 0.470381 0.048685
C89   C     C_R   0.587314 0.060558 0.037218 0.043330
C90   C     C_R   0.398609 0.470021 0.470846 0.041000
C91   C     C_R   0.606066 0.074282 0.528790 0.047340
C92   C     C_R   0.070555 0.543050 0.963108 0.043165
C93   C     C_R   0.415530 0.463499 0.535717 0.040255
C94   C     C_R   0.604541 0.082188 0.972262 0.046170
C95   C     C_R   0.053220 0.518696 0.534880 0.044974
C96   C     C_R   0.466551 0.395755 0.970146 0.040565
C97   C     C_R   0.112333 0.563290 0.059912 0.440386
C98   C     C_R   0.580751 0.040407 0.431516 0.431843
C99   C     C_R   0.457424 0.423794 0.067250 0.428799
C100  C     C_R   0.097298 0.542679 0.438323 0.446259
C101  C     C_R   0.579447 0.048283 0.069534 0.433941
C102  C     C_R   0.390646 0.475281 0.438600 0.428492
C103  C     C_R   0.613600 0.088117 0.561024 0.437133
C104  C     C_R   0.057091 0.538478 0.930880 0.435693
C105  C     C_R   0.423613 0.459323 0.568016 0.425880
C106  C     C_R   0.612683 0.094564 0.939962 0.442497
C107  C     C_R   0.039342 0.515659 0.567019 0.435797
C108  C     C_R   0.475920 0.389356 0.938029 0.432831
C109  C     C_R   0.947561 0.480260 0.068851 0.424828
C110  C     C_R   0.423353 0.915739 0.436899 0.423022
C111  C     C_R   0.450308 0.563083 0.060760 0.426674
C112  C     C_R   0.932882 0.465978 0.428916 0.435767
C113  C     C_R   0.419299 0.929803 0.064309 0.444982
C114  C     C_R   0.546108 0.504104 0.431586 0.423487
C115  C     C_R   0.459384 0.959065 0.568082 0.418945
C116  C     C_R   0.891525 0.454701 0.937937 0.428136
C117  C     C_R   0.582492 0.496956 0.562613 0.432170
C118  C     C_R   0.456827 0.968332 0.933101 0.430711
C119  C     C_R   0.873878 0.435456 0.559656 0.449645
C120  C     C_R   0.467487 0.527303 0.929668 0.422074
C121  C     C_R   0.929535 0.469587 0.036377 0.007163
C122  C     C_R   0.427542 0.926341 0.469664 0.007874
C123  C     C_R   0.452055 0.556171 0.027882 0.007895
C124  C     C_R   0.913936 0.451744 0.461294 0.013092
C125  C     C_R   0.423403 0.940961 0.031558 0.023603
C126  C     C_R   0.559996 0.507021 0.464190 0.009112
C127  C     C_R   0.446150 0.946464 0.535472 0.007164
C128  C     C_R   0.901528 0.457153 0.970738 0.005746
C129  C     C_R   0.578624 0.505255 0.529932 0.014167
C130  C     C_R   0.442813 0.958249 0.965724 0.012487
C131  C     C_R   0.884373 0.437100 0.526864 0.016039
C132  C     C_R   0.459075 0.537435 0.962126 0.007747
C133  C     C_R   0.006447 0.509115 0.015822 -0.042384
C134  C     C_R   0.512501 0.993809 0.483107 -0.043979
C135  C     C_R   0.456622 0.480391 0.015084 -0.046000
C136  C     C_R   0.990286 0.487994 0.482054 -0.041706
C137  C     C_R   0.509551 0.005377 0.018047 -0.041573
C138  C     C_R   0.484032 0.487330 0.483806 -0.043417
C139  C     C_R   0.521347 0.004626 0.515827 -0.042715
C140  C     C_R   0.992547 0.502952 0.983211 -0.044864
C141  C     C_R   0.492904 0.485163 0.516499 -0.043477
C142  C     C_R   0.518693 0.015169 0.985310 -0.044242
C143  C     C_R   0.975631 0.480909 0.514612 -0.041218
C144  C     C_R   0.460546 0.471330 0.982410 -0.046304
C145  C     C_R   0.174187 0.592971 0.007374 -0.117197
C146  C     C_R   0.672734 0.119392 0.477305 -0.121521
C147  C     C_R   0.461705 0.337859 0.022131 -0.115454
C148  C     C_R   0.157711 0.565584 0.490932 -0.121801
C149  C     C_R   0.671788 0.126369 0.023730 -0.118882
C150  C     C_R   0.323373 0.450353 0.490392 -0.126251
C151  C     C_R   0.681038 0.130624 0.509257 -0.119701
C152  C     C_R   0.160641 0.587023 0.975551 -0.115416
C153  C     C_R   0.331565 0.446685 0.522323 -0.125379
C154  C     C_R   0.680147 0.137283 0.991765 -0.118996
C155  C     C_R   0.143451 0.559379 0.522696 -0.121576
C156  C     C_R   0.465281 0.328903 0.990247 -0.110009
C157  C     C_R   0.838065 0.421212 0.023790 -0.050672
C158  C     C_R   0.350208 0.871919 0.489323 -0.041912
C159  C     C_R   0.449345 0.621923 0.007490 -0.045496
C160  C     C_R   0.822159 0.403384 0.473608 -0.052392
C161  C     C_R   0.345305 0.888702 0.011917 -0.032906
C162  C     C_R   0.647452 0.531822 0.477784 -0.043261
C163  C     C_R   0.360050 0.880007 0.521887 -0.045376
C164  C     C_R   0.824255 0.415240 0.991347 -0.050218
C165  C     C_R   0.657105 0.533081 0.510349 -0.036615
C166  C     C_R   0.355450 0.895370 0.979347 -0.041384
C167  C     C_R   0.807486 0.396779 0.506025 -0.053187
C168  C     C_R   0.451049 0.611781 0.975000 -0.046810
Cr1   Cr    Cr6+3 0.530290 0.262330 0.750000 1.024792
Cr2   Cr    Cr6+3 0.732040 0.469710 0.750000 1.025752
Cr3   Cr    Cr6+3 0.737670 0.267960 0.750000 1.025250
Cr4   Cr    Cr6+3 0.262330 0.530290 0.250000 1.024499
Cr5   Cr    Cr6+3 0.469710 0.732040 0.250000 1.026128
Cr6   Cr    Cr6+3 0.267960 0.737670 0.250000 1.026338
H1    H     H_    0.856307 0.557323 0.830606 0.132418
H2    H     H_    0.682187 0.099372 0.676351 0.129675
H3    H     H_    0.419240 0.309492 0.823546 0.129112
H4    H     H_    0.839809 0.543984 0.666482 0.141210
H5    H     H_    0.681728 0.100374 0.824730 0.129712
H6    H     H_    0.447393 0.296912 0.668164 0.130402
H7    H     H_    0.353094 0.942959 0.325498 0.135639
H8    H     H_    0.153772 0.703533 0.167814 0.141771
H9    H     H_    0.319222 0.416721 0.323712 0.130044
H10   H     H_    0.549251 0.847913 0.166919 0.135674
H11   H     H_    0.156124 0.701157 0.333948 0.140484
H12   H     H_    0.581208 0.664967 0.168727 0.135288
H13   H     H_    0.221325 0.617679 0.960674 0.180167
H14   H     H_    0.746655 0.184195 0.518640 0.159820
H15   H     H_    0.468111 0.269577 0.981378 0.178618
H16   H     H_    0.203753 0.587562 0.537735 0.174700
H17   H     H_    0.746524 0.189115 0.982339 0.161697
H18   H     H_    0.271659 0.430792 0.536538 0.167589
H19   H     H_    0.732259 0.164497 0.463104 0.163716
H20   H     H_    0.244848 0.628179 0.016002 0.174604
H21   H     H_    0.257485 0.437468 0.481035 0.165965
H22   H     H_    0.732065 0.169874 0.037893 0.167491
H23   H     H_    0.228585 0.598514 0.482501 0.170709
H24   H     H_    0.462308 0.285401 0.036787 0.174398
H25   H     H_    0.910226 0.590391 0.884468 0.131475
H26   H     H_    0.667814 0.045600 0.622459 0.141701
H27   H     H_    0.374806 0.322013 0.876754 0.135719
H28   H     H_    0.884215 0.566919 0.611573 0.159896
H29   H     H_    0.666630 0.049367 0.879021 0.146302
H30   H     H_    0.415581 0.318519 0.614273 0.135483
H31   H     H_    0.389183 0.998960 0.379060 0.136758
H32   H     H_    0.104081 0.683022 0.113454 0.154588
H33   H     H_    0.335982 0.377737 0.377430 0.145667
H34   H     H_    0.582806 0.907999 0.113740 0.143877
H35   H     H_    0.099193 0.673760 0.387596 0.156223
H36   H     H_    0.592101 0.628151 0.114431 0.132109
H37   H     H_    0.059753 0.410575 0.173822 0.136855
H38   H     H_    0.556274 0.854167 0.330906 0.130764
H39   H     H_    0.302042 0.429648 0.172994 0.134025
H40   H     H_    0.047064 0.406747 0.322371 0.138368
H41   H     H_    0.360023 0.952676 0.177416 0.136483
H42   H     H_    0.567392 0.684388 0.334812 0.134533
H43   H     H_    0.433814 0.117683 0.664639 0.133684
H44   H     H_    0.939432 0.349938 0.826057 0.136963
H45   H     H_    0.646362 0.590159 0.674864 0.135690
H46   H     H_    0.434433 0.121283 0.835176 0.139341
H47   H     H_    0.943023 0.353031 0.674705 0.138061
H48   H     H_    0.672513 0.573179 0.834200 0.133598
H49   H     H_    0.010449 0.391634 0.119448 0.134987
H50   H     H_    0.590721 0.909812 0.384522 0.131272
H51   H     H_    0.314401 0.394283 0.118633 0.132362
H52   H     H_    0.990972 0.380901 0.375994 0.138942
H53   H     H_    0.395022 0.012884 0.124346 0.138675
H54   H     H_    0.580731 0.646555 0.388265 0.137845
H55   H     H_    0.422581 0.067936 0.610967 0.140747
H56   H     H_    0.992790 0.384133 0.879949 0.132795
H57   H     H_    0.612981 0.610465 0.621043 0.133279
H58   H     H_    0.422894 0.075069 0.889141 0.148432
H59   H     H_    0.986423 0.376570 0.619801 0.139467
H60   H     H_    0.627652 0.583832 0.887424 0.137303
N1    N     N_R   0.037570 0.526835 0.079846 -0.392939
N2    N     N_R   0.498865 0.972876 0.418576 -0.389251
N3    N     N_R   0.454440 0.498316 0.079620 -0.390097
N4    N     N_R   0.023248 0.511663 0.418219 -0.393489
N5    N     N_R   0.496673 0.982665 0.082507 -0.387794
N6    N     N_R   0.464117 0.492700 0.419447 -0.387862
N7    N     N_R   0.540353 0.031444 0.580159 -0.387479
N8    N     N_R   0.968591 0.495435 0.918879 -0.393586
N9    N     N_R   0.506007 0.475164 0.580914 -0.389597
N10   N     N_R   0.539012 0.038431 0.920858 -0.385637
N11   N     N_R   0.950755 0.475574 0.578861 -0.392560
N12   N     N_R   0.478110 0.455641 0.918379 -0.388673
O1    O     O_R   0.509640 0.171340 0.784000 -0.512897
O2    O     O_R   0.661700 0.490360 0.716000 -0.513591
O3    O     O_R   0.828660 0.338300 0.784000 -0.511975
O4    O     O_R   0.509640 0.171340 0.716000 -0.513865
O5    O     O_R   0.661700 0.490360 0.784000 -0.513695
O6    O     O_R   0.828660 0.338300 0.716000 -0.511904
O7    O     O_R   0.171340 0.509640 0.284000 -0.511085
O8    O     O_R   0.490360 0.661700 0.216000 -0.513022
O9    O     O_R   0.338300 0.828660 0.284000 -0.514024
O10   O     O_R   0.171340 0.509640 0.216000 -0.514450
O11   O     O_R   0.490360 0.661700 0.284000 -0.514818
O12   O     O_R   0.338300 0.828660 0.216000 -0.513953
O13   O     O_R   0.539230 0.345420 0.781810 -0.498493
O14   O     O_R   0.806190 0.460770 0.718190 -0.496938
O15   O     O_R   0.654580 0.193810 0.781810 -0.495094
O16   O     O_R   0.539230 0.345420 0.718190 -0.498717
O17   O     O_R   0.806190 0.460770 0.781810 -0.498066
O18   O     O_R   0.654580 0.193810 0.718190 -0.495571
O19   O     O_R   0.345420 0.539230 0.281810 -0.494573
O20   O     O_R   0.460770 0.806190 0.218190 -0.496799
O21   O     O_R   0.193810 0.654580 0.281810 -0.496301
O22   O     O_R   0.345420 0.539230 0.218190 -0.497762
O23   O     O_R   0.460770 0.806190 0.281810 -0.498596
O24   O     O_R   0.193810 0.654580 0.218190 -0.496470
O25   O     O_3   0.666667 0.333333 0.750000 -0.234930
O26   O     O_3   0.333333 0.666667 0.250000 -0.234399
O27   O     O_2   0.191428 0.602540 0.070323 -0.466002
O28   O     O_2   0.646243 0.090683 0.414765 -0.499577
O29   O     O_2   0.459990 0.366898 0.084478 -0.501358
O30   O     O_2   0.176587 0.579759 0.428136 -0.465185
O31   O     O_2   0.646281 0.095627 0.086217 -0.499195
O32   O     O_2   0.318836 0.466147 0.427542 -0.498438
O33   O     O_2   0.684738 0.151927 0.572080 -0.495738
O34   O     O_2   0.123987 0.573137 0.913397 -0.479939
O35   O     O_2   0.357393 0.441544 0.584764 -0.506813
O36   O     O_2   0.684836 0.156536 0.928815 -0.493729
O37   O     O_2   0.106085 0.549455 0.584593 -0.486072
O38   O     O_2   0.484331 0.325820 0.927514 -0.500880
O39   O     O_2   0.883663 0.449138 0.087482 -0.482811
O40   O     O_2   0.353369 0.854264 0.424523 -0.486133
O41   O     O_2   0.444375 0.626199 0.072830 -0.476053
O42   O     O_2   0.869553 0.439205 0.410156 -0.468206
O43   O     O_2   0.347772 0.871155 0.076743 -0.475595
O44   O     O_2   0.606628 0.511516 0.413805 -0.479624
O45   O     O_2   0.399083 0.905986 0.585934 -0.489796
O46   O     O_2   0.814411 0.416046 0.926089 -0.466956
O47   O     O_2   0.653044 0.506758 0.574897 -0.478164
O48   O     O_2   0.396178 0.914937 0.915383 -0.477016
O49   O     O_2   0.796580 0.398251 0.571331 -0.445816
O50   O     O_2   0.466120 0.582329 0.911306 -0.487265
C169  C     C_1   0.729402 0.364608 0.979746 0.274354
N13   N     N_1   0.653926 0.324076 0.970549 -0.226907
C170  C     C_1   0.279134 0.821235 0.540856 0.268154
N14   N     N_1   0.214525 0.774380 0.555829 -0.213926
C171  C     C_1   0.444602 0.679327 0.955368 0.259261
N15   N     N_1   0.439323 0.733262 0.939921 -0.215098
C172  C     C_1   0.712158 0.348467 0.517295 0.274048
N16   N     N_1   0.636199 0.310039 0.526126 -0.231819
C173  C     C_1   0.273677 0.839232 0.960370 0.269935
N17   N     N_1   0.208398 0.794542 0.945373 -0.224538
C174  C     C_1   0.749764 0.568748 0.523208 0.272027
N18   N     N_1   0.823666 0.597712 0.533340 -0.252113
C175  C     C_1   0.258224 0.810767 0.476575 0.274936
N19   N     N_1   0.184832 0.762690 0.466500 -0.242239
C176  C     C_1   0.756526 0.375955 0.043685 0.265304
N20   N     N_1   0.691337 0.339711 0.059353 -0.216418
C177  C     C_1   0.729992 0.561383 0.458835 0.270421
N21   N     N_1   0.795921 0.585145 0.443876 -0.219283
C178  C     C_1   0.252852 0.829798 0.024662 0.276254
N22   N     N_1   0.179113 0.783315 0.034715 -0.252352
C179  C     C_1   0.741277 0.358451 0.453418 0.274303
N23   N     N_1   0.676623 0.322500 0.437493 -0.200175
C180  C     C_1   0.447011 0.702255 0.019379 0.261657
N24   N     N_1   0.445445 0.766357 0.028832 -0.251470

loop_
_geom_bond_atom_site_label_1
_geom_bond_atom_site_label_2
_ccdc_geom_bond_type
C132  C144  A    
C154  H17   S    
C12   O10   A    
C44   H1    S    
C104  O34   D    
C93   C141  A    
C171  N15   T    
C16   H52   S    
C111  N3    Am   
C38   H7    S    
C4    O16   A    
C47   C76   A    
C112  C124  A    
C35   H47   S    
C149  H22   S    
C33   C78   A    
C21   C33   A    
C60   C72   A    
C113  O43   D    
C97   N1    Am   
C108  N12   Am   
C72   N12   S    
C25   H37   S    
C115  N7    Am   
C86   C134  A    
C3    O15   A    
C105  O35   D    
C45   C78   A    
C64   N4    S    
C108  O38   D    
C66   N6    S    
C96   C108  A    
C28   C83   A    
C28   H40   S    
C40   C83   A    
Cr2   O2    S    
C152  H13   S    
C93   C105  A    
Cr5   O20   S    
C151  H14   S    
C116  N8    Am   
C6    O4    A    
C58   C70   A    
C117  O47   D    
C4    C78   S    
C96   C144  A    
C162  C165  A    
C163  C170  S    
C15   C27   A    
C172  N16   T    
C110  O40   D    
C45   C57   A    
C122  C158  A    
C161  C178  S    
C14   C26   A    
C19   H55   S    
C145  H20   S    
C11   C79   S    
C9    C83   S    
C117  N9    Am   
C112  N4    Am   
C7    O11   A    
C71   N11   S    
C3    C77   S    
C131  C143  A    
C114  N6    Am   
Cr4   O10   S    
C89   C101  A    
C46   H5    S    
C20   C68   A    
C9    O7    A    
C91   C103  A    
C138  C141  A    
C63   N3    S    
C46   C77   A    
Cr3   O3    S    
C93   C153  A    
C29   C82   A    
Cr4   O22   S    
Cr5   O23   S    
C109  C121  A    
C96   C156  A    
C123  C159  A    
C41   C82   A    
C124  C160  A    
C57   H30   S    
C8    O12   A    
C85   C97   A    
C92   C104  A    
C47   C59   A    
C98   N2    Am   
C49   H32   S    
C167  C172  S    
C123  C135  A    
C5    O17   A    
C147  H24   S    
C26   H38   S    
C105  N9    Am   
C42   C54   A    
Cr6   O21   S    
C39   C51   A    
C137  C142  A    
C90   C150  A    
C9    O21   A    
C24   C36   A    
C10   O22   A    
C15   H51   S    
C27   C84   A    
C85   C145  A    
C39   C84   A    
C136  C143  A    
C114  C126  A    
C29   H41   S    
C14   C62   A    
C128  C164  A    
Cr3   O15   S    
C122  C134  A    
C98   O28   D    
C119  C131  A    
C41   H10   S    
C100  N4    Am   
C148  C155  A    
C117  C129  A    
C156  H15   S    
C131  C167  A    
C166  C173  S    
C46   C58   A    
Cr3   O18   S    
C42   C81   A    
C120  N12   Am   
C90   C138  A    
C118  N10   Am   
C33   H45   S    
C22   C34   A    
C37   C80   A    
C35   C76   A    
C114  O44   D    
C94   C142  A    
C119  O49   D    
C24   H60   S    
C120  O50   D    
C134  C139  A    
C31   C74   A    
Cr6   O26   S    
C56   C68   A    
C116  O46   D    
C21   C69   A    
C106  O36   D    
C36   C75   A    
C157  C164  A    
C41   C53   A    
C164  C169  S    
C158  C163  A    
C109  N1    Am   
C43   C55   A    
C7    C81   S    
C61   N1    S    
C159  C180  S    
C24   C72   A    
C20   C32   A    
C118  O48   D    
C106  N10   Am   
Cr6   O12   S    
C6    O18   A    
C1    O5    A    
C54   C66   A    
C18   C66   A    
C119  N11   Am   
C107  O37   D    
C17   H53   S    
C59   H28   S    
C5    C73   S    
C130  C142  A    
C32   H44   S    
C150  H21   S    
C145  C152  A    
C30   H42   S    
C146  C151  A    
C23   H59   S    
C23   C71   A    
Cr2   O25   S    
C1    O13   A    
C22   C70   A    
C95   C143  A    
C101  N5    Am   
C25   C80   A    
C17   C29   A    
Cr4   O26   S    
C19   C31   A    
Cr6   O24   S    
C87   C147  A    
C100  O30   D    
C8    C82   S    
C101  O31   D    
C12   O24   A    
C47   H4    S    
C34   C77   A    
C34   H46   S    
C148  H23   S    
C129  C141  A    
C38   C79   A    
C53   H34   S    
C7    O19   A    
C45   H6    S    
C39   H12   S    
C94   C106  A    
C150  C153  A    
C11   O9    A    
C19   C67   A    
C89   C149  A    
C178  N22   T    
C11   O23   A    
C3    O1    A    
C13   H49   S    
C86   C146  A    
C110  N2    Am   
C6    C74   S    
C165  C174  S    
Cr4   O7    S    
C20   H56   S    
C124  C136  A    
C111  C123  A    
C174  N18   T    
C87   C135  A    
C49   C61   A    
C88   C136  A    
C5    O3    A    
C8    O20   A    
C52   C64   A    
C99   O29   D    
C69   N9    S    
C125  C137  A    
Cr3   O6    S    
Cr1   O4    S    
C170  N14   T    
Cr4   O19   S    
C118  C130  A    
C155  H16   S    
C2    O6    A    
C37   C49   A    
C43   H2    S    
C44   C56   A    
C55   H26   S    
Cr5   O8    S    
C51   C63   A    
C146  H19   S    
C147  C156  A    
C88   C100  A    
C95   C107  A    
C91   C139  A    
C58   H29   S    
C89   C137  A    
C115  O45   D    
C168  C171  S    
C158  C175  S    
C92   C140  A    
C2    C76   S    
C127  C163  A    
C10   O8    A    
C17   C65   A    
C125  C161  A    
C102  N6    Am   
C26   C79   A    
C129  C165  A    
C30   C81   A    
C110  C122  A    
C51   H36   S    
C177  N21   T    
C104  N8    Am   
C37   H8    S    
Cr1   O16   S    
C128  C140  A    
C44   C73   A    
C86   C98   A    
C180  N24   T    
C99   N3    Am   
C60   H27   S    
C133  C140  A    
C173  N17   T    
C27   H39   S    
C111  O41   D    
C85   C133  A    
C31   H43   S    
C16   C28   A    
C2    O14   A    
C176  N20   T    
C169  N13   T    
Cr3   O25   S    
C103  O33   D    
C149  C154  A    
C67   N7    S    
C175  N19   T    
Cr5   O11   S    
C14   H50   S    
C113  C125  A    
C21   H57   S    
C115  C127  A    
C159  C168  A    
C160  C167  A    
C130  C166  A    
C4    O2    A    
C70   N10   S    
C90   C102  A    
C68   N8    S    
C92   C152  A    
C18   C30   A    
C161  C166  A    
C56   H25   S    
C109  O39   D    
C43   C74   A    
C121  C157  A    
C48   C75   A    
C13   C25   A    
C127  C139  A    
C102  O32   D    
C48   H3    S    
C160  C179  S    
C48   C60   A    
C87   C99   A    
C88   C148  A    
C62   N2    S    
C1    C75   S    
C32   C73   A    
C40   H11   S    
C40   C52   A    
Cr2   O17   S    
C162  C177  S    
C94   C154  A    
C22   H58   S    
Cr1   O1    S    
C18   H54   S    
C135  C144  A    
Cr1   O25   S    
C50   C62   A    
C36   H48   S    
C53   C65   A    
C126  C138  A    
C157  C176  S    
C120  C132  A    
C107  N11   Am   
C132  C168  A    
Cr5   O26   S    
C55   C67   A    
C38   C50   A    
C42   H9    S    
C112  O42   D    
C23   C35   A    
C57   C69   A    
C91   C151  A    
C52   H35   S    
C12   C80   S    
C10   C84   S    
C103  N7    Am   
Cr2   O5    S    
C95   C155  A    
C179  N23   T    
C50   H31   S    
Cr6   O9    S    
C113  N5    Am   
C13   C61   A    
C54   H33   S    
C116  C128  A    
Cr1   O13   S    
C15   C63   A    
C65   N5    S    
Cr2   O14   S    
C16   C64   A    
C121  C133  A    
C126  C162  A    
C97   O27   D    
C59   C71   A    
C153  H18   S    
