data_mof_unit_62193.cif
_audit_creation_date              2013-03-05T16:24:31-0500
_audit_creation_method            fapswitch 2.2
_symmetry_space_group_name_H-M    P1
_symmetry_Int_Tables_number       1
_space_group_crystal_system       triclinic
_cell_length_a                    21.63213
_cell_length_b                    21.643646
_cell_length_c                    47.151822
_cell_angle_alpha                 89.873044
_cell_angle_beta                  90.122856
_cell_angle_gamma                 90.002655
_cell_volume                      22076.291522

loop_
_atom_site_label
_atom_site_type_symbol
_atom_site_description
_atom_site_fract_x
_atom_site_fract_y
_atom_site_fract_z
_atom_type_partial_charge
O1    O     O_R   0.000030 0.908460 0.023630 -0.617368
O2    O     O_R   0.091540 0.000030 0.023630 -0.612559
O3    O     O_R   0.999970 0.091540 0.023630 -0.617647
O4    O     O_R   0.908460 0.999970 0.023630 -0.618016
O5    O     O_R   0.500030 0.408460 0.523630 -0.615784
O6    O     O_R   0.591540 0.500030 0.523630 -0.615868
O7    O     O_R   0.499970 0.591540 0.523630 -0.615830
O8    O     O_R   0.408460 0.499970 0.523630 -0.615927
O9    O     O_R   0.000060 0.908530 0.976290 -0.621559
O10   O     O_R   0.091470 0.000060 0.976290 -0.625918
O11   O     O_R   0.999940 0.091470 0.976290 -0.624315
O12   O     O_R   0.908530 0.999940 0.976290 -0.618201
O13   O     O_R   0.500060 0.408530 0.476290 -0.622612
O14   O     O_R   0.591470 0.500060 0.476290 -0.622912
O15   O     O_R   0.499940 0.591470 0.476290 -0.622655
O16   O     O_R   0.408530 0.499940 0.476290 -0.622951
C1    C     C_R   0.000227 0.880095 0.999962 0.876412
C2    C     C_R   0.119895 0.000189 0.999959 0.879714
C3    C     C_R   0.000499 0.119995 0.999889 0.879872
C4    C     C_R   0.880115 0.999890 0.999910 0.880318
C5    C     C_R   0.500233 0.380104 0.499963 0.877842
C6    C     C_R   0.619894 0.500241 0.499961 0.877843
C7    C     C_R   0.499790 0.619897 0.499908 0.877871
C8    C     C_R   0.380104 0.499775 0.499908 0.877966
C9    C     C_R   0.500195 0.000449 0.853926 0.311516
C10   C     C_R   0.999650 0.499843 0.853929 0.311886
C11   C     C_R   0.004530 0.501103 0.354621 0.294133
C12   C     C_R   0.499645 0.999865 0.353922 0.311335
C13   C     C_R   0.055153 0.523840 0.131007 -0.150177
C14   C     C_R   0.457477 0.035959 0.130962 -0.149536
C15   C     C_R   0.949591 0.487690 0.132220 -0.150579
C16   C     C_R   0.542503 0.963356 0.131068 -0.149725
C17   C     C_R   0.536870 0.042360 0.630983 -0.149983
C18   C     C_R   0.957379 0.535957 0.630948 -0.149654
C19   C     C_R   0.463758 0.957778 0.631064 -0.150008
C20   C     C_R   0.042433 0.463391 0.631082 -0.149550
H1    H     H_    0.096321 0.538751 0.142183 0.199702
H2    H     H_    0.424151 0.063047 0.142712 0.189334
H3    H     H_    0.909381 0.473870 0.144343 0.195730
H4    H     H_    0.575861 0.936226 0.142899 0.189196
H5    H     H_    0.564199 0.075563 0.642740 0.189058
H6    H     H_    0.924011 0.563026 0.642682 0.189535
H7    H     H_    0.436472 0.924631 0.642888 0.189073
H8    H     H_    0.075792 0.436276 0.642919 0.189603
Zn1   Zn    Zn3+2 0.000000 0.000000 0.031570 0.984428
Zn2   Zn    Zn3+2 0.500000 0.500000 0.531570 0.985805
Zn3   Zn    Zn3+2 0.000000 0.000000 0.968360 0.979240
Zn4   Zn    Zn3+2 0.500000 0.500000 0.468360 0.975724
C21   C     C_R   0.000376 0.503865 0.086779 -0.318489
C22   C     C_R   0.499982 0.999809 0.086337 -0.301992
C23   C     C_R   0.500200 0.999999 0.586344 -0.302383
C24   C     C_R   0.999948 0.499800 0.586337 -0.302031
C25   C     C_R   0.003376 0.505335 0.146415 0.179126
C26   C     C_R   0.499991 0.999612 0.145758 0.189696
C27   C     C_R   0.500332 0.000111 0.645765 0.189917
C28   C     C_R   0.999901 0.499648 0.645763 0.188990
C29   C     C_R   0.781082 0.037992 0.016763 0.125242
C30   C     C_R   0.963856 0.780906 0.017722 0.117320
C31   C     C_R   0.219081 0.963170 0.017464 0.114404
C32   C     C_R   0.973844 0.219175 0.020930 0.123839
C33   C     C_R   0.281091 0.536772 0.517323 0.113927
C34   C     C_R   0.463254 0.280921 0.517422 0.114153
C35   C     C_R   0.719070 0.463195 0.517453 0.113707
C36   C     C_R   0.536950 0.718908 0.517333 0.114176
C37   C     C_R   0.814632 0.998584 0.999683 -0.093079
C38   C     C_R   0.001567 0.814580 0.999817 -0.093504
C39   C     C_R   0.185396 0.001550 0.999803 -0.090232
C40   C     C_R   0.001684 0.185692 0.999549 -0.096053
C41   C     C_R   0.314598 0.498564 0.499657 -0.091755
C42   C     C_R   0.501619 0.314607 0.499823 -0.093181
C43   C     C_R   0.685392 0.501629 0.499815 -0.091530
C44   C     C_R   0.498582 0.685400 0.499657 -0.093263
C45   C     C_R   0.782439 0.957714 0.981777 -0.203793
C46   C     C_R   0.040522 0.782470 0.981045 -0.204889
C47   C     C_R   0.217467 0.041181 0.981246 -0.196411
C48   C     C_R   0.030411 0.218263 0.977237 -0.197266
C49   C     C_R   0.282336 0.459139 0.481093 -0.204534
C50   C     C_R   0.541260 0.282534 0.481348 -0.203177
C51   C     C_R   0.717468 0.541322 0.481289 -0.204447
C52   C     C_R   0.458968 0.717662 0.481094 -0.203163
H9    H     H_    0.807107 0.925908 0.968168 0.163560
H10   H     H_    0.070964 0.807176 0.966755 0.164373
H11   H     H_    0.192711 0.072127 0.967146 0.161455
H12   H     H_    0.053168 0.193970 0.960123 0.167927
H13   H     H_    0.306946 0.428326 0.466991 0.162479
H14   H     H_    0.572221 0.307272 0.467307 0.164171
H15   H     H_    0.692717 0.572326 0.467215 0.162373
H16   H     H_    0.428018 0.693066 0.466985 0.164267
C53   C     C_R   0.717651 0.957477 0.981881 -0.200624
C54   C     C_R   0.040696 0.717714 0.981148 -0.194790
C55   C     C_R   0.282244 0.041346 0.981321 -0.201483
C56   C     C_R   0.030561 0.283030 0.977373 -0.203123
C57   C     C_R   0.217551 0.458944 0.481200 -0.207686
C58   C     C_R   0.541406 0.217778 0.481422 -0.203047
C59   C     C_R   0.782247 0.541454 0.481356 -0.207427
C60   C     C_R   0.458750 0.782426 0.481213 -0.203179
H17   H     H_    0.692942 0.925570 0.968289 0.163921
H18   H     H_    0.071198 0.693092 0.966905 0.162951
H19   H     H_    0.306855 0.072366 0.967251 0.162467
H20   H     H_    0.053273 0.308028 0.960404 0.157197
H21   H     H_    0.192783 0.428069 0.467134 0.157608
H22   H     H_    0.572429 0.193186 0.467407 0.163032
H23   H     H_    0.806865 0.572509 0.467303 0.157888
H24   H     H_    0.427718 0.807174 0.467149 0.163023
C61   C     C_R   0.685518 0.999452 0.999234 -0.075631
C62   C     C_R   0.000465 0.685489 0.999369 -0.078136
C63   C     C_R   0.314500 0.000439 0.999285 -0.072285
C64   C     C_R   0.000425 0.314791 0.999344 -0.075646
C65   C     C_R   0.185487 0.499600 0.499212 -0.068740
C66   C     C_R   0.500473 0.185518 0.499302 -0.072333
C67   C     C_R   0.814496 0.500465 0.499284 -0.068509
C68   C     C_R   0.499582 0.814496 0.499230 -0.072670
C69   C     C_R   0.719181 0.039234 0.016140 0.152207
C70   C     C_R   0.962388 0.719022 0.017083 0.126010
C71   C     C_R   0.280982 0.961700 0.016784 0.149990
C72   C     C_R   0.972119 0.281036 0.020521 0.091052
C73   C     C_R   0.219190 0.538201 0.516683 0.149859
C74   C     C_R   0.461764 0.219040 0.516738 0.149595
C75   C     C_R   0.780969 0.461699 0.516766 0.150633
C76   C     C_R   0.538359 0.780792 0.516702 0.148741
C77   C     C_3   0.714553 0.089657 0.037446 -0.433660
C78   C     C_3   0.914497 0.714265 0.039609 -0.446689
C79   C     C_3   0.285730 0.912846 0.038962 -0.436542
C80   C     C_3   0.937580 0.285348 0.047701 -0.391543
C81   C     C_3   0.214666 0.586638 0.538956 -0.437923
C82   C     C_3   0.412910 0.214304 0.538831 -0.438022
C83   C     C_3   0.785702 0.412764 0.538907 -0.437626
C84   C     C_3   0.586997 0.785309 0.538990 -0.438349
C85   C     C_3   0.785783 0.088854 0.037856 -0.494125
C86   C     C_3   0.915655 0.785470 0.040113 -0.460012
C87   C     C_3   0.214495 0.914039 0.039507 -0.470669
C88   C     C_3   0.939186 0.214235 0.048078 -0.482723
C89   C     C_3   0.285906 0.585480 0.539464 -0.468890
C90   C     C_3   0.414121 0.285502 0.539378 -0.469186
C91   C     C_3   0.714468 0.413986 0.539458 -0.469433
C92   C     C_3   0.585861 0.714104 0.539489 -0.468640
H25   H     H_    0.694674 0.132669 0.028290 0.209652
H26   H     H_    0.870372 0.694710 0.031503 0.218911
H27   H     H_    0.305228 0.869088 0.030529 0.210955
H28   H     H_    0.965661 0.306771 0.064828 0.229548
H29   H     H_    0.195036 0.630537 0.530617 0.211618
H30   H     H_    0.369114 0.194825 0.530323 0.210797
H31   H     H_    0.805177 0.369028 0.530441 0.211423
H32   H     H_    0.630849 0.804951 0.530668 0.210990
H33   H     H_    0.693311 0.073653 0.057614 0.235125
H34   H     H_    0.932773 0.692622 0.059319 0.221702
H35   H     H_    0.307419 0.930184 0.058801 0.237712
H36   H     H_    0.890394 0.304607 0.044692 0.244982
H37   H     H_    0.193229 0.568913 0.558774 0.237458
H38   H     H_    0.430281 0.192619 0.558700 0.237157
H39   H     H_    0.807406 0.430024 0.558758 0.237234
H40   H     H_    0.569410 0.806716 0.558804 0.237294
H41   H     H_    0.806821 0.131124 0.028595 0.194943
H42   H     H_    0.872362 0.807054 0.032097 0.208604
H43   H     H_    0.192843 0.871142 0.031191 0.206914
H44   H     H_    0.967942 0.194686 0.065479 0.225809
H45   H     H_    0.307442 0.628547 0.531226 0.208399
H46   H     H_    0.371197 0.307149 0.530987 0.207857
H47   H     H_    0.692795 0.371129 0.531111 0.208289
H48   H     H_    0.628892 0.692601 0.531263 0.208042
H49   H     H_    0.805825 0.073073 0.058352 0.227386
H50   H     H_    0.934149 0.804980 0.060199 0.225707
H51   H     H_    0.195030 0.931670 0.059729 0.229305
H52   H     H_    0.893043 0.192642 0.045254 0.199655
H53   H     H_    0.305613 0.567468 0.559641 0.228407
H54   H     H_    0.431789 0.304952 0.559631 0.228482
H55   H     H_    0.695016 0.431552 0.559695 0.228456
H56   H     H_    0.568006 0.694387 0.559658 0.228436
C93   C     C_R   0.053558 0.525755 0.101439 0.253901
C94   C     C_R   0.456197 0.035867 0.101325 0.242402
C95   C     C_R   0.947839 0.485042 0.102689 0.256887
C96   C     C_R   0.543786 0.963669 0.101430 0.243643
C97   C     C_R   0.536609 0.043588 0.601344 0.243439
C98   C     C_R   0.956145 0.535861 0.601311 0.243206
C99   C     C_R   0.463892 0.956434 0.601428 0.243547
C100  C     C_R   0.043717 0.463641 0.601444 0.243093
O17   O     O_R   0.500070 0.051830 0.958000 -0.632380
O18   O     O_R   0.948170 0.500070 0.958000 -0.626758
O19   O     O_R   0.499930 0.948170 0.958000 -0.632339
O20   O     O_R   0.051830 0.499930 0.958000 -0.632366
O21   O     O_R   0.000070 0.551830 0.458000 -0.626344
O22   O     O_R   0.448170 0.000070 0.458000 -0.632407
O23   O     O_R   0.999930 0.448170 0.458000 -0.626399
O24   O     O_R   0.551830 0.999930 0.458000 -0.632304
C101  C     C_R   0.500000 0.000063 0.944468 0.849912
C102  C     C_R   0.999942 0.499989 0.944464 0.853123
C103  C     C_R   0.000117 0.500062 0.444635 0.844360
C104  C     C_R   0.499941 0.999996 0.444463 0.850395
O25   O     O_R   0.591650 0.051830 0.999920 -0.635941
O26   O     O_R   0.948170 0.591650 0.999920 -0.629968
O27   O     O_R   0.408350 0.948170 0.999920 -0.636121
O28   O     O_R   0.051830 0.408350 0.999920 -0.621960
O29   O     O_R   0.091650 0.551830 0.499920 -0.634279
O30   O     O_R   0.448170 0.091650 0.499920 -0.636115
O31   O     O_R   0.908350 0.448170 0.499920 -0.634539
O32   O     O_R   0.551830 0.908350 0.499920 -0.635868
O33   O     O_R   0.591650 0.948400 0.999950 -0.595330
O34   O     O_R   0.051600 0.591650 0.999950 -0.595998
O35   O     O_R   0.408350 0.051600 0.999950 -0.593715
O36   O     O_R   0.948400 0.408350 0.999950 -0.603713
O37   O     O_R   0.091650 0.448400 0.499950 -0.597083
O38   O     O_R   0.551600 0.091650 0.499950 -0.594699
O39   O     O_R   0.908350 0.551600 0.499950 -0.596777
O40   O     O_R   0.448400 0.908350 0.499950 -0.594701
C105  C     C_R   0.619991 0.000049 0.999764 0.920862
C106  C     C_R   0.999943 0.619991 0.999914 0.887671
C107  C     C_R   0.380015 0.999931 0.999810 0.920224
C108  C     C_R   0.000143 0.380101 0.000026 0.880453
C109  C     C_R   0.119982 0.500071 0.499798 0.916552
C110  C     C_R   0.499937 0.120000 0.499815 0.920351
C111  C     C_R   0.880014 0.499935 0.499806 0.916596
C112  C     C_R   0.500066 0.880003 0.499810 0.920174
Zn5   Zn    Zn3+2 0.500040 0.069180 0.999920 1.024309
Zn6   Zn    Zn3+2 0.930820 0.500040 0.999920 1.032681
Zn7   Zn    Zn3+2 0.499960 0.930820 0.999920 1.023519
Zn8   Zn    Zn3+2 0.069180 0.499960 0.999920 1.042934
Zn9   Zn    Zn3+2 0.000040 0.569180 0.499920 1.026527
Zn10  Zn    Zn3+2 0.430820 0.000040 0.499920 1.023138
Zn11  Zn    Zn3+2 0.999960 0.430820 0.499920 1.026302
Zn12  Zn    Zn3+2 0.569180 0.999960 0.499920 1.023111
O41   O     O_R   0.500010 0.051830 0.041840 -0.587651
O42   O     O_R   0.948170 0.500010 0.041840 -0.572520
O43   O     O_R   0.499990 0.948170 0.041840 -0.587933
O44   O     O_R   0.051830 0.499990 0.041840 -0.572166
O45   O     O_R   0.000010 0.551830 0.541840 -0.587954
O46   O     O_R   0.448170 0.000010 0.541840 -0.587797
O47   O     O_R   0.999990 0.448170 0.541840 -0.587995
O48   O     O_R   0.551830 0.999990 0.541840 -0.587904
C113  C     C_R   0.499996 0.999940 0.055263 1.020307
C114  C     C_R   0.000039 0.501017 0.055434 0.949198
C115  C     C_R   0.999995 0.499938 0.555262 1.020195
C116  C     C_R   0.500061 0.999997 0.555268 1.020305
C117  C     C_R   0.993329 0.450247 0.190845 0.529003
C118  C     C_R   0.481431 0.947589 0.190309 0.529780
C119  C     C_R   0.018407 0.557863 0.191203 0.529402
C120  C     C_R   0.518586 0.051636 0.190230 0.529475
C121  C     C_R   0.448423 0.019210 0.690190 0.529436
C122  C     C_R   0.982122 0.447353 0.690326 0.529268
C123  C     C_R   0.552261 0.981352 0.690358 0.529488
C124  C     C_R   0.017659 0.551962 0.690245 0.529228
N1    N     N_R   0.005272 0.504474 0.176810 -0.336272
N2    N     N_R   0.500035 0.999596 0.176115 -0.340935
N3    N     N_R   0.500339 0.000223 0.676121 -0.340912
N4    N     N_R   0.999916 0.499643 0.676126 -0.340723
C125  C     C_R   0.020644 0.557875 0.220873 -0.024153
C126  C     C_R   0.518789 0.052812 0.219939 -0.028153
C127  C     C_R   0.992562 0.448679 0.220503 -0.023844
C128  C     C_R   0.481042 0.946512 0.220023 -0.028382
C129  C     C_R   0.553387 0.981154 0.720071 -0.028276
C130  C     C_R   0.017836 0.553138 0.719955 -0.028164
C131  C     C_R   0.447298 0.019621 0.719899 -0.028207
C132  C     C_R   0.981797 0.446254 0.720039 -0.028179
C133  C     C_R   0.006780 0.502930 0.235578 -0.019742
C134  C     C_R   0.499859 0.999691 0.234893 -0.018336
C135  C     C_R   0.500340 0.000433 0.734897 -0.018387
C136  C     C_R   0.999773 0.499718 0.734909 -0.018411
C137  C     C_R   0.035862 0.611455 0.236114 -0.146574
C138  C     C_R   0.537499 0.105578 0.234972 -0.145830
C139  C     C_R   0.977837 0.394351 0.235359 -0.147052
C140  C     C_R   0.462217 0.893807 0.235141 -0.145570
C141  C     C_R   0.606016 0.962080 0.735231 -0.145948
C142  C     C_R   0.035692 0.606198 0.734988 -0.145902
C143  C     C_R   0.394667 0.038797 0.734888 -0.146018
C144  C     C_R   0.963852 0.393241 0.735157 -0.145958
C145  C     C_R   0.606003 0.962152 0.764802 -0.150112
C146  C     C_R   0.035601 0.606246 0.764558 -0.150297
C147  C     C_R   0.394659 0.038878 0.764459 -0.150378
C148  C     C_R   0.963775 0.393282 0.764728 -0.150277
C149  C     C_R   0.037307 0.610455 0.265659 -0.150606
C150  C     C_R   0.537392 0.105635 0.264542 -0.150082
C151  C     C_R   0.976577 0.394095 0.264896 -0.150539
C152  C     C_R   0.462097 0.893868 0.264712 -0.149991
C153  C     C_R   0.553349 0.981266 0.779792 -0.018316
C154  C     C_R   0.017696 0.553221 0.779675 -0.018360
C155  C     C_R   0.447292 0.019815 0.779620 -0.018079
C156  C     C_R   0.981600 0.446350 0.779761 -0.018294
C157  C     C_R   0.022543 0.556136 0.280522 -0.015401
C158  C     C_R   0.518605 0.052915 0.279659 -0.018237
C159  C     C_R   0.991049 0.447883 0.280132 -0.015153
C160  C     C_R   0.480770 0.946648 0.279746 -0.018283
C161  C     C_R   0.500329 0.000511 0.764794 -0.016313
C162  C     C_R   0.999687 0.499764 0.764806 -0.016297
C163  C     C_R   0.006877 0.502294 0.265437 -0.017426
C164  C     C_R   0.499743 0.999751 0.264790 -0.016263
C165  C     C_R   0.552261 0.981779 0.809502 0.506614
C166  C     C_R   0.017183 0.552186 0.809386 0.506586
C167  C     C_R   0.448321 0.019353 0.809334 0.506406
C168  C     C_R   0.981999 0.447460 0.809473 0.506315
C169  C     C_R   0.022953 0.554209 0.310193 0.505210
C170  C     C_R   0.518043 0.051905 0.309372 0.506510
C171  C     C_R   0.989643 0.448851 0.309793 0.505406
C172  C     C_R   0.481161 0.947763 0.309459 0.506580
N5    N     N_R   0.500270 0.000559 0.823573 -0.357746
N6    N     N_R   0.999579 0.499837 0.823581 -0.357915
N7    N     N_R   0.005890 0.501353 0.324216 -0.355228
N8    N     N_R   0.499578 0.999854 0.323569 -0.357805
O49   O     O_2   0.982600 0.397913 0.176112 -0.544978
O50   O     O_2   0.462956 0.897321 0.175678 -0.533796
O51   O     O_2   0.028500 0.610923 0.176849 -0.543289
O52   O     O_2   0.537154 0.101858 0.175524 -0.534459
O53   O     O_2   0.398284 0.038018 0.675438 -0.534421
O54   O     O_2   0.964376 0.396815 0.675701 -0.534490
O55   O     O_2   0.602403 0.962448 0.675771 -0.534340
O56   O     O_2   0.035481 0.602464 0.675545 -0.534438
H57   H     H_    0.046915 0.654223 0.225284 0.196860
H58   H     H_    0.552258 0.146973 0.223955 0.197661
H59   H     H_    0.966646 0.352063 0.224232 0.196621
H60   H     H_    0.447537 0.852369 0.224190 0.197817
H61   H     H_    0.647352 0.947050 0.724315 0.197652
H62   H     H_    0.049766 0.647833 0.723970 0.197710
H63   H     H_    0.353338 0.053769 0.723838 0.197621
H64   H     H_    0.949838 0.351574 0.724206 0.197706
H65   H     H_    0.647329 0.947172 0.775853 0.195381
H66   H     H_    0.049613 0.647913 0.775508 0.195328
H67   H     H_    0.353321 0.053907 0.775375 0.195210
H68   H     H_    0.949707 0.351645 0.775746 0.195388
H69   H     H_    0.049420 0.652487 0.276788 0.195277
H70   H     H_    0.552077 0.147071 0.275492 0.195372
H71   H     H_    0.964479 0.351609 0.275723 0.195296
H72   H     H_    0.447333 0.852475 0.275729 0.195413
O57   O     O_2   0.602815 0.964103 0.824250 -0.552649
O58   O     O_2   0.033703 0.603131 0.824015 -0.552641
O59   O     O_2   0.397739 0.037053 0.823919 -0.553429
O60   O     O_2   0.965427 0.396553 0.824187 -0.552581
O61   O     O_2   0.040696 0.604599 0.324930 -0.556343
O62   O     O_2   0.535361 0.102590 0.323996 -0.552862
O63   O     O_2   0.971424 0.397969 0.324115 -0.556751
O64   O     O_2   0.463762 0.897130 0.324169 -0.552840
C173  C     C_R   0.501348 0.944392 0.868764 -0.099550
C174  C     C_R   0.055700 0.501759 0.868771 -0.099588
C175  C     C_R   0.498955 0.056386 0.868743 -0.099058
C176  C     C_R   0.943684 0.497962 0.868734 -0.099069
C177  C     C_R   0.039262 0.457495 0.369871 -0.089521
C178  C     C_R   0.555708 0.001304 0.368768 -0.099559
C179  C     C_R   0.968180 0.544280 0.369176 -0.090482
C180  C     C_R   0.443665 0.998462 0.368730 -0.099153
H73   H     H_    0.502148 0.901020 0.857366 0.146577
H74   H     H_    0.099091 0.503075 0.857374 0.146070
H75   H     H_    0.498210 0.099851 0.857329 0.146713
H76   H     H_    0.900228 0.496617 0.857309 0.146483
H77   H     H_    0.067990 0.424372 0.358864 0.156365
H78   H     H_    0.599113 0.002240 0.357374 0.146749
H79   H     H_    0.940643 0.577709 0.357611 0.155954
H80   H     H_    0.400195 0.997497 0.357307 0.146912
C181  C     C_R   0.501253 0.944198 0.898298 -0.210766
C182  C     C_R   0.055861 0.501767 0.898304 -0.213511
C183  C     C_R   0.498901 0.056335 0.898279 -0.210850
C184  C     C_R   0.943699 0.498051 0.898270 -0.206985
C185  C     C_R   0.036910 0.456453 0.399338 -0.216604
C186  C     C_R   0.555868 0.001324 0.398301 -0.210802
C187  C     C_R   0.967310 0.544451 0.398668 -0.216708
C188  C     C_R   0.443681 0.998535 0.398267 -0.211118
H81   H     H_    0.502143 0.900275 0.909333 0.168264
H82   H     H_    0.099780 0.503249 0.909345 0.168163
H83   H     H_    0.497961 0.100164 0.909301 0.168300
H84   H     H_    0.899851 0.496604 0.909289 0.168974
H85   H     H_    0.063821 0.422403 0.410857 0.154398
H86   H     H_    0.599799 0.002432 0.409342 0.168355
H87   H     H_    0.939322 0.578270 0.409656 0.154352
H88   H     H_    0.399823 0.997459 0.409285 0.168300
C189  C     C_R   0.500043 0.000203 0.913310 -0.039676
C190  C     C_R   0.999826 0.499940 0.913308 -0.042516
C191  C     C_R   0.001291 0.500222 0.413800 -0.021212
C192  C     C_R   0.499822 0.999957 0.413305 -0.040056
N9    N     N_R   0.104971 0.553183 0.086882 0.235040
O65   O     O_R   0.095708 0.599508 0.069744 -0.370039
O66   O     O_R   0.161162 0.540567 0.094915 -0.358492
N10   N     N_R   0.408945 0.070763 0.086940 0.224413
O67   O     O_R   0.378868 0.046711 0.065744 -0.418017
O68   O     O_R   0.389385 0.122553 0.097641 -0.349953
N11   N     N_R   0.892889 0.461488 0.089510 0.235311
O69   O     O_R   0.895920 0.412252 0.073830 -0.404498
O70   O     O_R   0.838992 0.480921 0.097834 -0.361379
N12   N     N_R   0.591126 0.929006 0.087150 0.223924
O71   O     O_R   0.621202 0.953344 0.066031 -0.418227
O72   O     O_R   0.610782 0.877157 0.097899 -0.352314
N13   N     N_R   0.571641 0.090644 0.586969 0.223886
O73   O     O_R   0.547502 0.120907 0.565803 -0.419392
O74   O     O_R   0.623674 0.109890 0.597672 -0.353383
N14   N     N_R   0.908904 0.570744 0.586911 0.223798
O75   O     O_R   0.878831 0.546666 0.565720 -0.419978
O76   O     O_R   0.889341 0.622548 0.597598 -0.353254
N15   N     N_R   0.428812 0.909314 0.587146 0.223910
O77   O     O_R   0.452790 0.879118 0.566028 -0.419173
O78   O     O_R   0.376902 0.889984 0.597880 -0.353422
N16   N     N_R   0.090984 0.428838 0.587183 0.223760
O79   O     O_R   0.121020 0.452985 0.566007 -0.419879
O80   O     O_R   0.110585 0.377014 0.597979 -0.353288

loop_
_geom_bond_atom_site_label_1
_geom_bond_atom_site_label_2
_geom_bond_distance
_ccdc_geom_bond_type
C17   C27   1.395054 A    
C18   C28   1.395183 A    
C123  C129  1.401188 A    
C153  C165  1.401202 A    
C154  C162  1.408677 A    
O34   Zn8   2.020637 S    
C32   C88   1.488512 S    
C51   H15   1.083456 S    
O21   C103  1.286722 A    
C33   C89   1.488803 S    
C143  C147  1.394332 A    
C147  C155  1.404581 A    
C117  O49   1.349885 S    
C140  H60   1.083106 S    
C26   N2    1.431395 S    
C141  H61   1.083094 S    
O38   C110  1.274964 A    
C15   C25   1.394731 A    
O34   C106  1.274758 A    
C124  N4    1.369315 A    
C34   C42   1.381720 A    
C22   C113  1.465221 S    
O37   C109  1.275261 A    
Zn6   O42   2.011129 S    
O33   C105  1.274943 A    
O26   C106  1.276907 A    
C187  H87   1.083435 S    
C149  H69   1.083115 S    
C18   H6    1.083315 S    
O3    C3    1.276517 A    
C168  N6    1.369097 A    
C180  C188  1.392732 A    
C170  O62   1.349620 S    
C63   C107  1.417450 S    
C168  O60   1.349634 S    
C9    N5    1.431200 S    
C151  C159  1.404301 A    
C16   C96   1.397846 A    
C155  C167  1.401212 A    
O36   C108  1.275435 A    
C176  H76   1.082900 S    
O12   Zn3   2.014501 S    
C147  H67   1.083093 S    
C45   H9    1.083459 S    
N10   O67   1.301009 A    
C48   H12   1.083293 S    
C71   C79   1.488911 S    
O39   Zn9   2.019602 S    
O17   Zn5   2.012778 S    
O37   Zn11  2.019597 S    
C57   H21   1.083480 S    
C68   C76   1.381626 A    
C139  H59   1.083124 S    
C125  C133  1.407851 A    
C165  N5    1.369206 A    
C181  H81   1.082871 S    
N16   O80   1.301400 A    
Zn8   O44   2.012713 S    
C18   C98   1.397647 A    
C10   C176  1.399342 A    
C31   C87   1.488787 S    
O12   C4    1.273261 A    
O13   C5    1.273354 A    
C3    C40   1.422214 S    
C83   H31   1.111476 S    
C84   H32   1.111473 S    
C166  O58   1.349644 S    
C187  C191  1.400210 A    
C35   C43   1.381575 A    
C129  C135  1.408687 A    
C11   C179  1.402821 A    
C60   H24   1.083432 S    
C20   H8    1.083306 S    
N15   O77   1.301064 A    
C16   H4    1.083296 S    
O23   Zn11  2.011140 S    
C122  C132  1.401213 A    
C7    C44   1.417984 S    
C11   N7    1.433981 S    
C62   C106  1.417845 S    
C29   C69   1.339567 A    
C50   C58   1.401550 A    
C12   C178  1.399371 A    
O5    Zn2   2.017140 S    
C36   C76   1.340016 A    
C96   N12   1.438807 S    
O20   C102  1.290022 A    
C19   C99   1.397763 A    
C46   C54   1.401554 A    
C153  C161  1.408663 A    
C52   H16   1.083446 S    
N9    O65   1.301597 A    
C150  C158  1.404573 A    
C156  C162  1.408684 A    
O10   C2    1.273081 A    
O46   C116  1.287594 A    
C177  C185  1.390610 A    
C78   H34   1.111734 S    
O18   C102  1.290226 A    
O24   Zn12  2.011132 S    
O5    C5    1.274782 A    
C82   C90   1.541484 S    
O10   Zn3   2.012924 S    
C151  H71   1.083120 S    
C123  N3    1.369168 A    
C13   C93   1.395066 A    
Zn10  O46   2.011129 S    
C133  C163  1.407968 A    
C131  C143  1.404565 A    
N14   O75   1.301013 A    
C120  C126  1.401137 A    
O6    C6    1.274611 A    
O47   C115  1.288058 A    
C36   C92   1.488789 S    
O32   C112  1.276801 A    
C41   C49   1.407826 A    
C143  H63   1.083093 S    
C64   C108  1.413995 S    
C175  H75   1.082894 S    
C179  H79   1.082857 S    
O29   Zn9   2.017003 S    
C14   C26   1.395078 A    
C100  N16   1.438867 S    
C169  N7    1.371075 A    
C170  N8    1.369176 A    
C61   C69   1.381129 A    
C25   N1    1.433791 S    
C120  O52   1.349632 S    
C121  O53   1.349607 S    
C157  C169  1.399570 A    
C38   C46   1.408043 A    
C79   H27   1.111483 S    
C80   C88   1.539612 S    
C67   C75   1.381639 A    
C77   H25   1.111493 S    
C21   C114  1.479416 S    
N12   O71   1.301090 A    
C119  N1    1.370844 A    
C31   C39   1.381594 A    
C84   H40   1.111623 S    
C81   H29   1.111474 S    
C11   C177  1.402548 A    
O36   Zn6   2.020629 S    
C154  C166  1.401158 A    
C19   H7    1.083298 S    
C47   C55   1.401261 A    
C118  C128  1.401236 A    
C86   H50   1.111498 S    
C28   N4    1.431670 S    
C49   H13   1.083448 S    
C152  C160  1.404599 A    
C118  O50   1.349612 S    
O39   C111  1.275209 A    
O15   Zn4   2.015561 S    
C142  H62   1.083126 S    
C173  H73   1.082897 S    
C10   C174  1.399287 A    
C59   H23   1.083479 S    
C67   C111  1.417505 S    
O4    Zn1   2.014500 S    
O2    Zn1   2.016075 S    
C130  C136  1.408616 A    
C12   C180  1.399439 A    
C149  C157  1.404489 A    
O7    Zn2   2.015507 S    
C172  N8    1.369179 A    
C94   N10   1.438799 S    
C117  C127  1.398923 A    
O14   Zn4   2.012924 S    
C134  C164  1.409714 A    
C167  N5    1.369198 A    
O40   Zn10  2.020629 S    
C148  H68   1.083126 S    
O30   C110  1.276902 A    
C35   C75   1.339867 A    
C104  C192  1.469146 S    
C29   C37   1.381471 A    
C148  C156  1.404564 A    
C85   H49   1.111460 S    
C86   H42   1.111719 S    
O27   C107  1.277030 A    
C32   C40   1.382046 A    
C93   N9    1.435922 S    
O25   Zn5   2.017003 S    
C118  N2    1.369193 A    
C123  O55   1.349602 S    
C145  C153  1.404586 A    
C90   H46   1.111714 S    
C176  C184  1.392705 A    
C159  C163  1.407682 A    
C188  H88   1.082887 S    
O21   Zn9   2.012778 S    
C30   C86   1.488899 S    
C32   C72   1.339509 A    
C137  C149  1.393523 A    
C12   N8    1.431174 S    
C181  C189  1.405321 A    
C24   C98   1.418075 A    
C139  C151  1.393075 A    
C184  H84   1.082879 S    
C117  N1    1.370912 A    
C124  O56   1.349654 S    
O35   Zn5   2.019602 S    
C103  C191  1.454199 S    
C119  C125  1.399728 A    
C24   C115  1.465209 S    
C174  C182  1.392537 A    
C40   C48   1.410491 A    
O1    C1    1.274907 A    
C183  H83   1.082869 S    
O14   C6    1.273151 A    
C58   C66   1.408147 A    
C180  H80   1.082906 S    
C185  C191  1.400471 A    
C85   H41   1.110786 S    
C82   H38   1.111623 S    
O1    Zn1   2.017140 S    
C15   C95   1.394227 A    
O7    C7    1.274676 A    
O8    C8    1.274542 A    
C182  H82   1.082883 S    
C145  H65   1.083094 S    
C155  C161  1.408675 A    
O8    Zn2   2.014500 S    
N13   O74   1.301382 A    
C132  C144  1.404595 A    
C92   H48   1.111707 S    
C39   C47   1.407820 A    
O42   C114  1.291223 A    
O19   Zn7   2.011140 S    
C30   C70   1.340170 A    
C91   H55   1.111495 S    
C10   N6    1.430975 S    
C22   C96   1.418076 A    
C152  H72   1.083113 S    
C55   H19   1.083458 S    
C73   C81   1.488908 S    
C99   N15   1.438852 S    
C57   C65   1.408059 A    
C75   C83   1.488905 S    
C124  C130  1.401137 A    
C183  C189  1.405350 A    
O11   Zn3   2.015561 S    
C144  H64   1.083121 S    
N10   O68   1.301391 A    
C65   C73   1.381515 A    
C80   H36   1.111290 S    
O11   C3    1.273781 A    
C1    C38   1.418309 S    
C27   N3    1.431343 S    
C89   H53   1.111499 S    
C83   C91   1.541451 S    
C84   C92   1.541459 S    
C65   C109  1.417389 S    
O2    C2    1.274710 A    
C81   C89   1.541414 S    
N11   O69   1.300062 A    
C150  H70   1.083112 S    
O17   C101  1.290601 A    
Zn12  O48   2.012713 S    
C16   C26   1.395142 A    
C14   C94   1.397674 A    
O27   Zn7   2.017003 S    
C128  C140  1.404587 A    
Zn5   O41   2.011143 S    
O25   C105  1.277533 A    
C90   H54   1.111500 S    
C125  C137  1.404388 A    
C24   C100  1.418116 A    
C169  O61   1.349750 S    
C171  O63   1.349791 S    
C66   C110  1.418264 S    
C46   H10   1.083447 S    
O31   Zn11  2.017003 S    
C122  O54   1.349640 S    
C158  C170  1.401190 A    
C121  N3    1.369182 A    
C33   C73   1.339697 A    
C4    C37   1.416831 S    
O20   Zn8   2.011132 S    
C91   H47   1.111727 S    
C78   H26   1.111491 S    
C185  H85   1.083455 S    
O18   Zn6   2.012711 S    
C126  C134  1.408672 A    
C82   H30   1.111478 S    
C43   C51   1.407773 A    
C140  C152  1.394366 A    
C167  O59   1.349597 S    
C88   H52   1.110036 S    
C51   C59   1.401297 A    
C20   C28   1.395246 A    
O44   C114  1.292148 A    
C131  C135  1.408675 A    
C87   H51   1.111491 S    
C186  C192  1.405333 A    
C22   C94   1.418089 A    
C160  C172  1.401272 A    
C23   C99   1.418147 A    
C54   C62   1.408013 A    
C165  O57   1.349600 S    
C184  C190  1.405341 A    
C20   C100  1.397819 A    
O48   C116  1.287647 A    
N14   O76   1.301401 A    
C156  C168  1.401228 A    
C72   C80   1.487968 S    
C79   C87   1.541451 S    
C80   H28   1.111618 S    
C77   C85   1.541035 S    
C76   C84   1.488879 S    
C61   C105  1.417824 S    
O19   C101  1.290507 A    
C136  C162  1.409692 A    
C17   H5    1.083304 S    
C64   C72   1.380246 A    
O28   Zn8   2.017969 S    
C87   H43   1.111729 S    
N16   O79   1.301049 A    
C45   C53   1.401524 A    
C21   C93   1.422611 A    
C47   H11   1.083483 S    
C146  C154  1.404545 A    
C49   C57   1.401457 A    
O3    Zn1   2.015507 S    
C63   C71   1.381650 A    
C138  C150  1.394304 A    
N12   O72   1.301387 A    
C34   C74   1.340166 A    
C186  H86   1.082888 S    
C44   C52   1.407869 A    
O41   C113  1.287918 A    
Zn11  O47   2.012775 S    
O22   C104  1.290226 A    
O43   C113  1.288104 A    
C42   C50   1.407854 A    
C171  N7    1.371005 A    
O16   Zn4   2.014501 S    
O30   Zn10  2.017969 S    
C141  C145  1.394331 A    
C60   C68   1.408192 A    
C166  N6    1.369096 A    
O45   C115  1.287955 A    
C13   C25   1.394577 A    
C62   C70   1.381512 A    
C68   C112  1.418188 S    
C29   C85   1.488527 S    
C146  H66   1.083126 S    
O23   C103  1.286638 A    
C135  C161  1.409703 A    
N9    O66   1.301227 A    
C128  C134  1.408694 A    
O38   Zn12  2.020637 S    
C122  N4    1.369309 A    
C37   C45   1.407481 A    
C120  N2    1.369207 A    
C23   C97   1.418141 A    
C138  H58   1.083105 S    
C88   H44   1.111506 S    
C30   C38   1.381893 A    
C130  C142  1.404579 A    
C15   H3    1.083565 S    
N11   O70   1.301165 A    
C101  C189  1.469150 S    
C52   C60   1.401759 A    
C17   C97   1.397712 A    
C89   H45   1.111719 S    
O33   Zn7   2.019597 S    
C175  C183  1.392682 A    
C132  C136  1.408629 A    
C83   H39   1.111628 S    
C50   H14   1.083454 S    
O15   C7    1.273487 A    
C157  C163  1.407588 A    
C177  H77   1.082858 S    
O16   C8    1.273278 A    
C158  C164  1.408671 A    
O28   C108  1.274329 A    
O40   C112  1.275032 A    
C174  H74   1.082906 S    
O32   Zn12  2.017969 S    
C56   C64   1.406016 A    
C8    C41   1.417309 S    
C9    C173  1.399406 A    
C19   C27   1.395094 A    
C182  C190  1.405337 A    
C21   C95   1.422161 A    
C92   H56   1.111507 S    
C95   N11   1.434302 S    
C2    C39   1.417259 S    
O24   C104  1.290064 A    
C53   H17   1.083427 S    
C35   C91   1.488768 S    
N15   O78   1.301389 A    
C179  C187  1.390768 A    
C126  C138  1.404568 A    
O31   C111  1.277111 A    
O29   C109  1.277000 A    
C144  C148  1.394348 A    
O35   C107  1.275260 A    
C69   C77   1.488495 S    
C119  O51   1.349709 S    
C178  C186  1.392537 A    
C66   C74   1.381745 A    
O26   Zn6   2.017969 S    
C98   N14   1.438806 S    
N13   O73   1.301027 A    
C81   H37   1.111620 S    
C48   C56   1.401840 A    
C127  C133  1.407585 A    
O9    C1    1.273413 A    
C79   H35   1.111618 S    
O22   Zn10  2.012711 S    
C159  C171  1.399202 A    
C13   H1    1.083371 S    
C77   H33   1.111675 S    
C53   C61   1.408492 A    
C6    C43   1.417216 S    
C56   H20   1.083537 S    
C33   C41   1.381593 A    
O6    Zn2   2.016075 S    
C97   N13   1.438764 S    
C23   C116  1.465296 S    
C160  C164  1.408677 A    
C102  C190  1.469081 S    
Zn7   O43   2.012775 S    
C142  C146  1.394288 A    
O13   Zn4   2.013934 S    
C127  C139  1.404288 A    
O9    Zn3   2.013934 S    
O4    C4    1.274324 A    
C5    C42   1.417945 S    
C34   C90   1.488767 S    
C173  C181  1.392580 A    
C59   C67   1.408022 A    
C178  H78   1.082916 S    
C137  H57   1.083118 S    
C54   H18   1.083450 S    
C36   C44   1.381721 A    
C188  C192  1.405351 A    
C70   C78   1.488703 S    
C31   C71   1.339879 A    
Zn9   O45   2.011143 S    
C121  C131  1.401168 A    
C74   C82   1.488880 S    
C14   H2    1.083306 S    
C129  C141  1.404561 A    
C78   C86   1.541564 S    
C172  O64   1.349607 S    
C58   H22   1.083439 S    
C9    C175  1.399431 A    
C55   C63   1.407970 A    
