data_mof_unit_63094.cif
_audit_creation_date              2013-03-05T15:54:45-0500
_audit_creation_method            fapswitch 2.2
_symmetry_space_group_name_H-M    P1
_symmetry_Int_Tables_number       1
_space_group_crystal_system       triclinic
_cell_length_a                    18.86471
_cell_length_b                    18.898784
_cell_length_c                    18.796882
_cell_angle_alpha                 109.609241
_cell_angle_beta                  109.386403
_cell_angle_gamma                 109.794752
_cell_volume                      5134.61653443

loop_
_atom_site_label
_atom_site_type_symbol
_atom_site_description
_atom_site_fract_x
_atom_site_fract_y
_atom_site_fract_z
_atom_type_partial_charge
O1    O     O_R   0.090150 0.142360 0.552170 -0.544346
O2    O     O_R   0.090180 0.037990 0.447810 -0.570277
C1    C     C_R   0.118087 0.119180 0.499371 0.892733
O3    O     O_R   0.090170 0.052200 0.642360 -0.574311
O4    O     O_R   0.090200 0.947840 0.538010 -0.568573
C2    C     C_R   0.122750 0.004324 0.618913 0.890907
Cu1   Cu    Cu3+1 0.999980 0.061790 0.561790 1.075704
Cu2   Cu    Cu3+1 0.000020 0.938210 0.438210 1.138013
O5    O     O_R   0.909820 0.962010 0.552190 -0.603715
O6    O     O_R   0.909850 0.857640 0.447830 -0.526299
O7    O     O_R   0.909800 0.052160 0.461990 -0.604318
O8    O     O_R   0.909830 0.947800 0.357640 -0.523676
C3    C     C_R   0.882244 0.881181 0.500987 0.888678
C4    C     C_R   0.880023 0.998630 0.380929 0.869884
H1    H     H_    0.134517 0.012959 0.765109 0.169454
C5    C     C_R   0.286354 0.024284 0.614842 0.180648
C6    C     C_R   0.348656 0.008625 0.599122 0.100294
C7    C     C_R   0.388908 0.974250 0.641575 -0.166161
H2    H     H_    0.432338 0.956454 0.624541 0.168539
C8    C     C_R   0.373840 0.961611 0.705097 0.144992
C9    C     C_R   0.318869 0.987027 0.730384 -0.028031
C10   C     C_R   0.265865 0.007102 0.676088 0.032132
C11   C     C_R   0.195245 0.010158 0.686026 -0.054904
C12   C     C_R   0.187795 0.009380 0.757135 -0.189072
C13   C     C_R   0.247735 0.003622 0.818516 0.141100
C14   C     C_R   0.313597 0.992483 0.806195 -0.067240
C15   C     C_R   0.180864 0.177184 0.420249 0.296171
C16   C     C_R   0.246468 0.241712 0.422234 -0.218702
H3    H     H_    0.244050 0.234399 0.361601 0.202600
C17   C     C_R   0.314511 0.316100 0.501315 -0.097338
C18   C     C_R   0.317870 0.328446 0.580397 0.047187
C19   C     C_R   0.252468 0.264329 0.580014 0.261248
C20   C     C_R   0.184695 0.187451 0.499765 -0.291631
C21   C     C_R   0.736155 0.918266 0.243269 0.331340
C22   C     C_R   0.674178 0.921329 0.180085 -0.213953
H4    H     H_    0.615693 0.861223 0.125767 0.195704
C23   C     C_R   0.686237 0.001030 0.186660 -0.056052
C24   C     C_R   0.761310 0.079704 0.257466 0.190742
C25   C     C_R   0.823518 0.076895 0.320764 -0.196330
H5    H     H_    0.881775 0.137050 0.375381 0.165080
C26   C     C_R   0.811783 0.997158 0.313890 -0.145055
C27   C     C_R   0.829643 0.746553 0.510272 0.245578
C28   C     C_R   0.763915 0.680232 0.507660 0.269859
C29   C     C_R   0.686910 0.682241 0.497113 -0.154311
C30   C     C_R   0.676182 0.749436 0.489176 -0.189537
H6    H     H_    0.617727 0.751852 0.481812 0.176825
C31   C     C_R   0.741617 0.815473 0.493156 -0.153747
H7    H     H_    0.732192 0.867000 0.486851 0.180889
C32   C     C_R   0.817718 0.814051 0.502944 -0.158987
O9    O     O_R   0.447850 0.857690 0.909890 -0.563907
O10   O     O_R   0.552230 0.962090 0.909900 -0.581866
C33   C     C_R   0.501800 0.880946 0.883121 0.836070
O11   O     O_R   0.357630 0.947820 0.909860 -0.554038
O12   O     O_R   0.462000 0.052220 0.909860 -0.597196
C34   C     C_R   0.381009 0.997193 0.878281 0.798865
Cu3   Cu    Cu3+1 0.438200 0.938230 0.000040 1.087404
Cu4   Cu    Cu3+1 0.561800 0.061850 0.000040 1.060822
O13   O     O_R   0.447770 0.037990 0.090190 -0.538785
O14   O     O_R   0.552150 0.142390 0.090190 -0.586061
O15   O     O_R   0.538000 0.947860 0.090220 -0.575897
O16   O     O_R   0.642370 0.052260 0.090230 -0.533490
C35   C     C_R   0.501134 0.118831 0.120036 0.876260
C36   C     C_R   0.619062 0.000689 0.119466 0.873496
O17   O     O_R   0.447810 0.590260 0.538090 -0.593809
O18   O     O_R   0.552200 0.590240 0.642450 -0.580432
C37   C     C_R   0.500714 0.619231 0.619118 0.788941
O19   O     O_R   0.357640 0.409920 0.447920 -0.607352
O20   O     O_R   0.462030 0.409900 0.552280 -0.538254
C38   C     C_R   0.381264 0.381701 0.500321 0.879407
Cu5   Cu    Cu3+1 0.438190 0.500100 0.438300 1.054424
Cu6   Cu    Cu3+1 0.561810 0.500080 0.561880 1.118997
O21   O     O_R   0.447800 0.409940 0.357730 -0.563495
O22   O     O_R   0.552190 0.409920 0.462090 -0.531116
O23   O     O_R   0.537970 0.590270 0.447900 -0.565900
O24   O     O_R   0.642360 0.590260 0.552260 -0.560354
C39   C     C_R   0.499855 0.381390 0.381017 0.936487
C40   C     C_R   0.619082 0.617498 0.498774 0.864258
C41   C     C_R   0.582402 0.821093 0.824654 0.293379
C42   C     C_R   0.580772 0.756981 0.758616 -0.218300
H8    H     H_    0.641431 0.762085 0.763655 0.189770
C43   C     C_R   0.501518 0.685886 0.686567 -0.089183
C44   C     C_R   0.422905 0.677083 0.679959 -0.201767
H9    H     H_    0.361582 0.620937 0.624565 0.158179
C45   C     C_R   0.422642 0.739330 0.745542 0.128622
C46   C     C_R   0.502528 0.812926 0.817416 -0.122323
C47   C     C_R   0.505288 0.257516 0.181330 -0.252824
H10   H     H_    0.508674 0.263384 0.126957 0.209356
C48   C     C_R   0.503866 0.322134 0.243285 0.323001
C49   C     C_R   0.499102 0.313748 0.313770 -0.291298
C50   C     C_R   0.495450 0.240637 0.321029 0.217590
C51   C     C_R   0.498019 0.176686 0.258528 0.262012
C52   C     C_R   0.502591 0.185634 0.188507 -0.241299
N1    N     N_R   0.255775 0.277655 0.661194 0.137856
O25   O     O_R   0.248088 0.341146 0.706071 -0.328641
O26   O     O_R   0.266945 0.226906 0.690799 -0.353325
N2    N     N_R   0.719614 0.835446 0.236392 0.140201
O27   O     O_R   0.675300 0.765404 0.159890 -0.292191
O28   O     O_R   0.737522 0.827547 0.305413 -0.366419
N3    N     N_3   0.773094 0.161868 0.265611 -0.527760
H11   H     H_    0.726082 0.170978 0.278521 0.239917
H12   H     H_    0.833787 0.213118 0.319317 0.234713
N4    N     N_R   0.908124 0.745347 0.520543 0.153603
O29   O     O_R   0.904042 0.675566 0.469801 -0.256670
O30   O     O_R   0.983917 0.813399 0.581902 -0.376130
N5    N     N_R   0.776097 0.612005 0.516621 0.160674
O31   O     O_R   0.845548 0.631035 0.582845 -0.278666
O32   O     O_R   0.719430 0.530801 0.457095 -0.299718
N6    N     N_R   0.665116 0.891393 0.899862 0.141452
O33   O     O_R   0.732971 0.921909 0.891387 -0.314951
O34   O     O_R   0.676088 0.915740 0.978027 -0.348621
N7    N     N_3   0.248871 0.063162 0.572578 -0.558231
H13   H     H_    0.220205 0.022871 0.505282 0.260056
H14   H     H_    0.299355 0.122795 0.590688 0.255879
N8    N     N_3   0.340989 0.727851 0.738421 -0.562751
H15   H     H_    0.303132 0.721340 0.678928 0.235345
H16   H     H_    0.308720 0.669450 0.736480 0.245777
N9    N     N_R   0.509344 0.396273 0.234423 0.153332
O35   O     O_R   0.561530 0.474736 0.301590 -0.313325
O36   O     O_R   0.472190 0.386549 0.157122 -0.308957
N10   N     N_R   0.488918 0.231085 0.391667 0.166462
O37   O     O_R   0.424935 0.230806 0.403994 -0.361907
O38   O     O_R   0.545259 0.219792 0.442043 -0.270890
N11   N     N_R   0.496211 0.103165 0.266493 0.164818
O39   O     O_R   0.557013 0.085004 0.267212 -0.369864
O40   O     O_R   0.434920 0.055362 0.275071 -0.265656
N12   N     N_3   0.368879 0.025468 0.537373 -0.560257
H17   H     H_    0.355343 0.967150 0.488758 0.247913
H18   H     H_    0.435760 0.069380 0.569656 0.253493
N13   N     N_3   0.407778 0.913395 0.733810 -0.592428
H19   H     H_    0.473024 0.957208 0.781200 0.252440
H20   H     H_    0.372406 0.881724 0.756751 0.221642
N14   N     N_3   0.241903 0.009751 0.894321 -0.554495
H21   H     H_    0.246677 0.069469 0.927662 0.234257
H22   H     H_    0.180376 0.960174 0.873453 0.251951
N15   N     N_R   0.108917 0.104193 0.336942 0.149791
O41   O     O_R   0.029240 0.080058 0.320352 -0.351682
O42   O     O_R   0.122188 0.071302 0.273092 -0.294847
N16   N     N_3   0.387922 0.406528 0.660667 -0.550094
H23   H     H_    0.362082 0.441426 0.687921 0.259769
H24   H     H_    0.418374 0.389196 0.703874 0.269007

loop_
_geom_bond_atom_site_label_1
_geom_bond_atom_site_label_2
_geom_bond_distance
_ccdc_geom_bond_type
O13   C35   1.292435 A    
C9    C14   1.433040 A    
N1    O25   1.300794 A    
N7    H13   1.045377 S    
C8    N13   1.423850 S    
O21   C39   1.295794 A    
C14   C34   1.469544 S    
N8    H15   1.045782 S    
N11   O39   1.301168 A    
C25   C26   1.400337 A    
C30   H6    1.083643 S    
C15   C20   1.414552 A    
Cu1   O7    1.972016 S    
N5    O32   1.300813 A    
C16   H3    1.084267 S    
N12   H17   1.045674 S    
O15   C36   1.294959 A    
C29   C40   1.458461 S    
C22   C23   1.400033 A    
C21   N2    1.438937 S    
C7    H2    1.084156 S    
N9    O36   1.301430 A    
C17   C18   1.401002 A    
O7    C4    1.293392 A    
C47   C48   1.391620 A    
C6    N12   1.433086 S    
Cu4   O14   1.970445 S    
C1    C20   1.460488 S    
N6    O33   1.301362 A    
C41   N6    1.438473 S    
C21   C22   1.396795 A    
C28   N5    1.436837 S    
O16   C36   1.294177 A    
O5    C3    1.293439 A    
O1    Cu1   1.969633 S    
O20   C38   1.293102 A    
C22   H4    1.083944 S    
Cu3   O13   1.969920 S    
N14   H21   1.045719 S    
O23   C40   1.298320 A    
N2    O28   1.301066 A    
Cu5   O23   1.968553 S    
O9    C33   1.291363 A    
C11   C12   1.393916 A    
Cu5   Cu6   2.690596 S    
O10   Cu4   1.969824 S    
O17   Cu5   1.968245 S    
N15   O41   1.301382 A    
C39   C49   1.457183 S    
C30   C31   1.385466 A    
C19   N1    1.436674 S    
N1    O26   1.300453 A    
C51   N11   1.437035 S    
C9    C10   1.422926 A    
C21   C26   1.412122 A    
O3    Cu1   1.975781 S    
C27   N4    1.437277 S    
C23   C36   1.458637 S    
N10   O38   1.301152 A    
C43   C44   1.392528 A    
O11   C34   1.297822 A    
C24   C25   1.397596 A    
O10   C33   1.298457 A    
C31   H7    1.083844 S    
Cu1   Cu2   2.685421 S    
C12   C13   1.386779 A    
C31   C32   1.396305 A    
C25   H5    1.084233 S    
C42   C43   1.395908 A    
C41   C42   1.396348 A    
C5    C6    1.401329 A    
C13   C14   1.406092 A    
O18   Cu6   1.972112 S    
O9    Cu3   1.970447 S    
Cu3   O15   1.973130 S    
C35   C52   1.453795 S    
O1    C1    1.290899 A    
O17   C37   1.294845 A    
N4    O30   1.301064 A    
C28   C29   1.414996 A    
C23   C24   1.407845 A    
N3    H11   1.045604 S    
Cu2   O8    1.975780 S    
C45   N8    1.433516 S    
N2    O27   1.301419 A    
C8    C9    1.429485 A    
C6    C7    1.383906 A    
N7    H14   1.045615 S    
C45   C46   1.413608 A    
C18   N16   1.435800 S    
N12   H18   1.045638 S    
O24   C40   1.294591 A    
N16   H24   1.045557 S    
C4    C26   1.456420 S    
C3    C32   1.451802 S    
C41   C46   1.416009 A    
O3    C2    1.295945 A    
H1    C12   1.084659 S    
N3    H12   1.045670 S    
O8    C4    1.295246 A    
O18   C37   1.294152 A    
C44   C45   1.392218 A    
O22   C39   1.294946 A    
Cu3   Cu4   2.684272 S    
C51   C52   1.408266 A    
C17   C38   1.448059 S    
N10   O37   1.301077 A    
Cu6   O22   1.968246 S    
N13   H19   1.039644 S    
O11   Cu3   1.974528 S    
N15   O42   1.301383 A    
O12   C34   1.294468 A    
C33   C46   1.461357 S    
O14   C35   1.294233 A    
C5    C10   1.428798 A    
C47   H10   1.084231 S    
C18   C19   1.402231 A    
O2    Cu2   1.968982 S    
C29   C30   1.398960 A    
C24   N3    1.438083 S    
O6    C3    1.292866 A    
O4    Cu2   1.972018 S    
N8    H16   1.045583 S    
Cu4   O16   1.974648 S    
N5    O31   1.301188 A    
O19   Cu5   1.970171 S    
C15   N15   1.438116 S    
C19   C20   1.418236 A    
C16   C17   1.393579 A    
O2    C1    1.298778 A    
C49   C50   1.414491 A    
C47   C52   1.395369 A    
N9    O35   1.300593 A    
C37   C43   1.448026 S    
Cu6   O24   1.970168 S    
C50   C51   1.402748 A    
O4    C2    1.294486 A    
O20   Cu6   1.968650 S    
N14   H22   1.045673 S    
C2    C11   1.460496 S    
N6    O34   1.301198 A    
C7    C8    1.390788 A    
N4    O29   1.301161 A    
N11   O40   1.301199 A    
N16   H23   1.044887 S    
C27   C32   1.410156 A    
C42   H8    1.083923 S    
Cu1   O5    1.968983 S    
C48   C49   1.413821 A    
Cu2   O6    1.969633 S    
C44   H9    1.084302 S    
C27   C28   1.405881 A    
C15   C16   1.391706 A    
C10   C11   1.422378 A    
Cu5   O21   1.972113 S    
O19   C38   1.294359 A    
C48   N9    1.439311 S    
C13   N14   1.434505 S    
C5    N7    1.428892 S    
C50   N10   1.437079 S    
N13   H20   1.040776 S    
O12   Cu4   1.973127 S    
