data_mof_unit_46995.cif
_audit_creation_date              2012-12-11T15:03:13-0500
_audit_creation_method            fapswitch 2.2
_symmetry_space_group_name_H-M    P1
_symmetry_Int_Tables_number       1
_space_group_crystal_system       triclinic
_cell_length_a                    13.276499
_cell_length_b                    13.273006
_cell_length_c                    26.755409
_cell_angle_alpha                 96.512437
_cell_angle_beta                  96.917552
_cell_angle_gamma                 61.590249
_cell_volume                      4108.29786129

loop_
_atom_site_label
_atom_site_type_symbol
_atom_type_description
_atom_site_fract_x
_atom_site_fract_y
_atom_site_fract_z
_atom_type_partial_charge
C1    C     C_R   0.379024 0.724053 0.435266 0.548336
C2    C     C_3   0.827994 0.312986 0.193281 -0.037477
C3    C     C_3   0.864630 0.378581 0.267059 -0.173095
C4    C     C_R   0.394681 0.373249 0.418014 0.541579
C5    C     C_3   0.788092 0.338941 0.288769 0.086688
C6    C     C_3   0.771183 0.430049 0.223287 -0.107241
C7    C     C_3   0.696488 0.388020 0.245092 0.283291
C8    C     C_1   0.855221 0.302756 0.141693 -0.066820
C9    C     C_1   0.773486 0.354961 0.342442 0.007599
C10   C     C_3   0.373464 0.924645 0.274706 -0.098176
C11   C     C_3   0.452271 0.830357 0.237070 0.015731
C12   C     C_1   0.328492 0.337683 0.268626 -0.006959
C13   C     C_1   0.305872 0.891529 0.102589 -0.025270
C14   C     C_1   0.362400 0.779115 0.390146 -0.007436
C15   C     C_3   0.268160 0.945770 0.236676 -0.105118
C16   C     C_R   0.721475 0.400823 0.436106 0.543350
C17   C     C_3   0.347818 0.851011 0.199737 0.041483
C18   C     C_3   0.251810 0.853997 0.260359 -0.106628
C19   C     C_3   0.356057 0.833260 0.297304 0.031753
C20   C     C_3   0.331007 0.760264 0.223205 -0.109890
C21   C     C_3   0.436020 0.738937 0.260945 -0.104346
C22   C     C_1   0.329012 0.867196 0.145798 -0.077670
C23   C     C_1   0.342690 0.346074 0.321534 -0.036329
C24   C     C_1   0.357442 0.811355 0.349438 -0.053186
C25   C     C_3   0.360285 0.234880 0.721772 -0.139897
C26   C     C_3   0.416957 0.283563 0.764948 -0.097542
C27   C     C_1   0.294370 0.308166 0.886734 -0.010258
C28   C     C_R   0.381463 0.724977 0.575330 0.546672
C29   C     C_1   0.358636 0.357715 0.602318 -0.000271
C30   C     C_3   0.248204 0.288222 0.749643 -0.115809
C31   C     C_3   0.304821 0.337953 0.791870 -0.010241
C32   C     C_3   0.202320 0.400119 0.722097 -0.009958
C33   C     C_3   0.313439 0.346612 0.694608 0.057641
C34   C     C_1   0.361655 0.355799 0.366362 -0.001047
C35   C     C_3   0.256974 0.450686 0.765359 -0.106090
C36   C     C_3   0.368306 0.395162 0.737771 0.299663
C37   C     C_1   0.300457 0.326691 0.844757 -0.059817
C38   C     C_1   0.333787 0.350133 0.642795 -0.026778
C39   C     C_1   0.894888 0.291621 0.863739 -0.015652
C40   C     C_R   0.395481 0.375691 0.557966 0.545920
C41   C     C_1   0.872043 0.300674 0.818962 -0.053942
C42   C     C_1   0.853163 0.311980 0.766382 -0.014284
C43   C     C_1   0.836413 0.324891 0.721730 -0.009139
C44   C     C_1   0.809845 0.346020 0.670052 -0.033496
C45   C     C_3   0.843545 0.223864 0.258123 0.283414
C46   C     C_1   0.777797 0.369404 0.626830 -0.003415
C47   C     C_1   0.290562 0.897808 0.862453 -0.015352
C48   C     C_1   0.308430 0.873186 0.818485 -0.053644
C49   C     C_1   0.324826 0.852107 0.766409 -0.009674
C50   C     C_1   0.337259 0.834312 0.721809 -0.011853
C51   C     C_1   0.351929 0.807751 0.669712 -0.044984
C52   C     C_R   0.725183 0.403121 0.577348 0.543980
C53   C     C_1   0.364977 0.776384 0.625801 -0.005408
C54   C     C_R   0.941249 0.278099 0.056061 0.546176
C55   C     C_R   0.287858 0.270784 0.073330 0.539179
C56   C     C_3   0.751078 0.271934 0.214163 -0.088744
C57   C     C_R   0.270450 0.938061 0.054301 0.543663
C58   C     C_R   0.937752 0.278891 0.915668 0.540127
C59   C     C_R   0.281344 0.273969 0.932896 0.542135
C60   C     C_R   0.262095 0.941818 0.913136 0.542119
C61   C     C_1   0.304283 0.300898 0.125416 -0.017973
C62   C     C_1   0.312848 0.317682 0.170397 -0.063203
C63   C     C_1   0.320435 0.330083 0.223332 -0.025371
C64   C     C_3   0.468144 0.490553 0.774226 0.008970
C65   C     C_3   0.545280 0.540214 0.763295 -0.247986
C66   C     C_3   0.591167 0.582209 0.811692 -0.477949
C67   C     C_1   0.887932 0.293737 0.101003 -0.010498
C68   C     C_R   0.078431 0.465057 0.702479 0.033571
C69   C     C_R   0.992483 0.506727 0.736559 -0.092040
C70   C     C_R   0.876799 0.568714 0.719696 -0.109715
C71   C     C_R   0.845891 0.589234 0.668658 -0.091701
C72   C     C_R   0.930627 0.547253 0.634401 -0.101712
C73   C     C_R   0.046514 0.485414 0.651144 -0.089513
C74   C     C_3   0.953262 0.024940 0.255314 0.011452
C75   C     C_3   0.906191 0.988523 0.205258 -0.275803
C76   C     C_3   0.997198 0.875303 0.182506 -0.485483
C77   C     C_3   0.507614 0.446561 0.210960 0.006627
C78   C     C_1   0.757176 0.372705 0.386320 0.006111
C79   C     C_3   0.516943 0.495133 0.163028 -0.291248
C80   C     C_3   0.425819 0.499269 0.121499 -0.474925
C81   C     C_R   0.571001 0.809056 0.228336 0.024911
C82   C     C_R   0.653183 0.786571 0.269622 -0.097606
C83   C     C_R   0.765638 0.761160 0.262522 -0.108392
C84   C     C_R   0.796964 0.758110 0.214177 -0.107557
C85   C     C_R   0.715720 0.781202 0.172932 -0.115727
C86   C     C_R   0.603153 0.806445 0.179861 -0.094978
C87   C     C_3   0.922406 0.261352 0.236471 -0.121011
Cr1   Cr    Cr6+3 0.585520 0.589730 0.508860 1.021824
Cr2   Cr    Cr6+3 0.329140 0.580910 0.495080 1.036421
Cr3   Cr    Cr6+3 0.585350 0.329380 0.496090 1.047680
Cr4   Cr    Cr6+3 0.077110 0.074680 0.982320 1.030135
Cr5   Cr    Cr6+3 0.079190 0.334150 0.996330 1.026088
Cr6   Cr    Cr6+3 0.334370 0.081620 0.994860 1.026058
H1    H     H_    0.708107 0.226167 0.191283 0.088696
H2    H     H_    0.910306 0.422456 0.289356 0.119046
H3    H     H_    0.015663 0.210747 0.231484 0.101731
H4    H     H_    0.390419 0.992167 0.296358 0.115026
H5    H     H_    0.507395 0.657287 0.273648 0.179706
H6    H     H_    0.518280 0.419385 0.799783 0.127574
H7    H     H_    0.392945 0.559404 0.793245 0.133681
H8    H     H_    0.618249 0.473451 0.742827 0.184150
H9    H     H_    0.496539 0.612343 0.738479 0.181760
H10   H     H_    0.519129 0.650341 0.832461 0.154995
H11   H     H_    0.646452 0.618000 0.802215 0.147419
H12   H     H_    0.310182 0.695055 0.202039 0.106679
H13   H     H_    0.643129 0.510062 0.836347 0.154057
H14   H     H_    0.015176 0.491390 0.776249 0.114095
H15   H     H_    0.811106 0.600453 0.746171 0.107343
H16   H     H_    0.756273 0.636881 0.655599 0.127799
H17   H     H_    0.906479 0.562592 0.594805 0.123451
H18   H     H_    0.110098 0.453983 0.623863 0.110909
H19   H     H_    0.984384 0.954015 0.280844 0.157563
H20   H     H_    0.027786 0.037387 0.249617 0.119563
H21   H     H_    0.830139 0.978905 0.211719 0.183218
H22   H     H_    0.880178 0.054257 0.177541 0.158864
H23   H     H_    0.173437 0.857129 0.271993 0.096434
H24   H     H_    0.070837 0.885610 0.172993 0.163237
H25   H     H_    0.959636 0.848776 0.147428 0.151026
H26   H     H_    0.028617 0.806803 0.209390 0.136842
H27   H     H_    0.417824 0.495873 0.221814 0.159682
H28   H     H_    0.523305 0.356428 0.203451 0.141168
H29   H     H_    0.507936 0.582559 0.171966 0.173386
H30   H     H_    0.601987 0.440446 0.147982 0.160674
H31   H     H_    0.440540 0.410901 0.109172 0.153736
H32   H     H_    0.431338 0.539904 0.088580 0.152586
H33   H     H_    0.338329 0.549984 0.134881 0.144976
H34   H     H_    0.199465 0.031225 0.225782 0.098883
H35   H     H_    0.630388 0.787475 0.307267 0.111839
H36   H     H_    0.828653 0.743189 0.294465 0.113292
H37   H     H_    0.884227 0.737456 0.208658 0.110538
H38   H     H_    0.740183 0.778820 0.135488 0.111511
H39   H     H_    0.542672 0.822633 0.147236 0.118772
H40   H     H_    0.505099 0.236846 0.783172 0.108849
H41   H     H_    0.401163 0.146795 0.703440 0.120154
H42   H     H_    0.215646 0.538708 0.783733 0.101975
H43   H     H_    0.198065 0.243836 0.755466 0.127444
H44   H     H_    0.740179 0.515145 0.208026 0.129073
O1    O     O_R   0.700650 0.499560 0.456090 -0.513144
O2    O     O_R   0.362310 0.174000 0.055490 -0.508200
O3    O     O_R   0.326800 0.983030 0.039600 -0.495902
O4    O     O_R   0.479220 0.682850 0.457510 -0.495288
O5    O     O_R   0.165220 0.960770 0.926060 -0.505526
O6    O     O_R   0.978660 0.179890 0.932950 -0.493056
O7    O     O_R   0.960490 0.356500 0.937600 -0.508969
O8    O     O_R   0.182720 0.328380 0.950570 -0.496269
O9    O     O_R   0.356860 0.175610 0.946640 -0.506379
O10   O     O_R   0.321740 0.984530 0.938700 -0.494168
O11   O     O_3   0.163560 0.163490 0.991170 -0.251383
O12   O     O_R   0.338920 0.475010 0.540740 -0.495663
O13   O     O_R   0.304230 0.696360 0.445090 -0.504969
O14   O     O_R   0.337790 0.472640 0.439840 -0.497605
O15   O     O_R   0.493310 0.300190 0.435520 -0.501649
O16   O     O_R   0.681220 0.340950 0.451270 -0.487187
O17   O     O_R   0.701870 0.502110 0.564940 -0.521236
O18   O     O_R   0.480360 0.685220 0.558410 -0.500386
O19   O     O_R   0.305450 0.698920 0.553940 -0.499455
O20   O     O_3   0.431615 0.450406 0.728198 -0.560709
O21   O     O_3   0.868236 0.122182 0.280207 -0.562871
O22   O     O_3   0.578940 0.457584 0.252735 -0.591085
O23   O     O_R   0.494530 0.302750 0.544370 -0.503731
O24   O     O_R   0.682350 0.343320 0.552170 -0.487517
O25   O     O_3   0.500010 0.500010 0.500010 -0.252878
O26   O     O_R   0.170670 0.959150 0.034900 -0.507213
O27   O     O_R   0.983710 0.178390 0.033850 -0.496696
O28   O     O_R   0.965940 0.354890 0.046440 -0.507526
O29   O     O_R   0.187770 0.326880 0.051460 -0.493763

loop_
_geom_bond_atom_site_label_1
_geom_bond_atom_site_label_2
_ccdc_geom_bond_type
C15   C18   S    
C1    O13   A    
Cr5   O11   S    
C41   C42   S    
Cr2   O25   S    
C35   C36   S    
C65   H8    S    
C43   C44   S    
C77   H27   S    
C17   C20   S    
C81   C82   A    
C69   H14   S    
C39   C41   T    
C85   C86   A    
C11   C81   S    
C56   H1    S    
C12   C23   S    
C80   H33   S    
Cr3   O25   S    
C65   H9    S    
C19   C21   S    
C83   H36   S    
C10   C15   S    
C74   H19   S    
C30   C31   S    
C7    O22   S    
C80   H32   S    
C52   O17   A    
C46   C52   S    
C33   C36   S    
C55   O2    A    
Cr6   O11   S    
C18   C19   S    
C14   C24   T    
C26   H40   S    
C60   O5    A    
C47   C60   S    
C58   O6    A    
C64   H6    S    
C11   C17   S    
C83   C84   A    
C45   C56   S    
C68   C69   A    
C64   O20   S    
C40   O12   A    
C28   O18   A    
C70   C71   A    
C60   O10   A    
C16   C78   S    
C81   C86   A    
C52   O24   A    
C32   C68   S    
Cr4   O5    S    
C3    C6    S    
Cr2   O12   S    
C26   C31   S    
C15   H34   S    
Cr4   O26   S    
C2    C6    S    
C7    C56   S    
C66   H13   S    
Cr5   O28   S    
Cr4   O11   S    
C44   C46   T    
C73   H18   S    
Cr4   O6    S    
C77   C79   S    
C4    O15   A    
C79   H29   S    
C72   H17   S    
C76   H26   S    
C74   C75   S    
C74   O21   S    
Cr3   O24   S    
C3    C87   S    
C32   C35   S    
C66   H11   S    
C2    C87   S    
C77   H28   S    
C84   C85   A    
Cr3   O15   S    
C35   H42   S    
C5    C7    S    
C12   C63   T    
Cr2   O19   S    
C54   C67   S    
C25   C26   S    
C74   H20   S    
C5    C45   S    
C11   C21   S    
C76   H25   S    
C31   C37   S    
C57   O3    A    
C51   C53   T    
Cr1   O17   S    
C29   C38   T    
C10   H4    S    
C75   C76   S    
Cr1   O18   S    
C5    C9    S    
C62   C63   S    
Cr6   O2    S    
C58   O7    A    
C47   C48   T    
C57   O26   A    
Cr2   O14   S    
C10   C19   S    
C23   C34   T    
Cr1   O1    S    
C87   H3    S    
C50   C51   S    
Cr6   O9    S    
C75   H21   S    
Cr3   O16   S    
C25   H41   S    
C82   H35   S    
C36   O20   S    
C77   O22   S    
C59   O8    A    
C26   C36   S    
C48   C49   S    
C65   C66   S    
C30   H43   S    
C31   C35   S    
Cr4   O27   S    
C75   H22   S    
C42   C43   T    
C55   C61   S    
C54   O28   A    
C18   H23   S    
Cr1   O4    S    
C20   H12   S    
C80   H31   S    
C25   C30   S    
C15   C17   S    
C4    O14   A    
Cr2   O13   S    
C45   C87   S    
Cr5   O8    S    
C66   H10   S    
C40   O23   A    
C16   O1    A    
C45   O21   S    
C17   C22   S    
C72   C73   A    
C3    C5    S    
C3    H2    S    
C28   C53   S    
C6    C7    S    
C76   H24   S    
C54   O27   A    
C32   C33   S    
C6    H44   S    
C19   C24   S    
C68   C73   A    
C71   C72   A    
Cr6   O3    S    
C27   C59   S    
C64   C65   S    
C30   C32   S    
C21   H5    S    
C39   C58   S    
C86   H39   S    
C79   H30   S    
C27   C37   T    
Cr1   O25   S    
C71   H16   S    
C29   C40   S    
C84   H37   S    
C13   C22   T    
Cr6   O10   S    
C18   C20   S    
C9    C78   T    
C4    C34   S    
Cr3   O23   S    
C61   C62   T    
Cr5   O7    S    
C69   C70   A    
C1    O4    A    
C10   C11   S    
C79   C80   S    
C59   O9    A    
Cr5   O29   S    
C64   H7    S    
C13   C57   S    
C20   C21   S    
C8    C67   T    
C49   C50   T    
C2    C8    S    
C16   O16   A    
C28   O19   A    
C33   C38   S    
C2    C56   S    
C1    C14   S    
C55   O29   A    
C82   C83   A    
C70   H15   S    
C85   H38   S    
C25   C33   S    
