data_mof_unit_66662.cif
_audit_creation_date              2012-10-26T19:55:50-0400
_audit_creation_method            fapswitch 2.2
_symmetry_space_group_name_H-M    P1
_symmetry_Int_Tables_number       1
_space_group_crystal_system       triclinic
_cell_length_a                    11.263626
_cell_length_b                    10.932373
_cell_length_c                    9.925394
_cell_angle_alpha                 87.939481
_cell_angle_beta                  92.512666
_cell_angle_gamma                 88.871415
_cell_volume                      1219.9531745

loop_
_atom_site_label
_atom_site_type_symbol
_atom_type_description
_atom_site_fract_x
_atom_site_fract_y
_atom_site_fract_z
_atom_type_partial_charge
C1    C     C_R   0.510176 0.262441 0.503944 0.597046
C2    C     C_R   0.870148 0.723618 0.909704 0.225007
C3    C     C_R   0.847436 0.634343 0.010582 -0.031573
C4    C     C_R   0.262176 0.502125 0.499599 0.549082
C5    C     C_R   0.827719 0.512275 0.974444 -0.072717
C6    C     C_R   0.853656 0.475035 0.844061 0.299215
C7    C     C_R   0.879050 0.567062 0.746258 0.016676
C8    C     C_R   0.442678 0.090416 0.743287 -0.018609
C9    C     C_R   0.354633 0.033705 0.816770 -0.099934
C10   C     C_R   0.291936 0.936989 0.762309 -0.082760
C11   C     C_R   0.330085 0.885935 0.644529 -0.063687
C12   C     C_R   0.207526 0.302687 0.070856 -0.062727
C13   C     C_R   0.424785 0.937967 0.577477 0.003513
C14   C     C_R   0.459522 0.056618 0.609518 -0.024530
C15   C     C_R   0.525402 0.125413 0.515701 0.018051
C16   C     C_R   0.496095 0.736600 0.496955 0.514373
C17   C     C_R   0.595327 0.058197 0.427453 0.230886
C18   C     C_R   0.579243 0.932037 0.417046 -0.116720
C19   C     C_R   0.493190 0.871387 0.489767 -0.014198
C20   C     C_R   0.582426 0.704884 0.132863 -0.080111
C21   C     C_R   0.601926 0.813109 0.060221 -0.120710
C22   C     C_R   0.608500 0.809966 0.921894 -0.136911
C23   C     C_R   0.929775 0.464505 0.400505 -0.084286
C24   C     C_R   0.593827 0.699039 0.860210 -0.087643
C25   C     C_R   0.539828 0.599960 0.924872 0.120215
C26   C     C_R   0.535653 0.601829 0.071077 0.112756
C27   C     C_R   0.477087 0.398698 0.071733 0.061472
C28   C     C_R   0.736240 0.502177 0.502946 0.585150
C29   C     C_R   0.466613 0.403758 0.927260 0.016693
C30   C     C_R   0.212507 0.428891 0.086401 -0.044117
C31   C     C_R   0.151618 0.483621 0.185555 -0.034117
C32   C     C_R   0.102313 0.409890 0.283716 -0.026116
C33   C     C_R   0.101291 0.282659 0.274950 -0.054829
C34   C     C_R   0.869540 0.503367 0.509714 0.009457
C35   C     C_R   0.152793 0.229306 0.166375 0.230446
C36   C     C_1   0.855381 0.667518 0.150380 0.248710
C37   C     C_1   0.780311 0.426404 0.069156 0.228624
C38   C     C_1   0.541767 0.135714 0.821803 0.207844
C39   C     C_1   0.466085 0.277435 0.129538 0.266827
C40   C     C_R   0.938210 0.536952 0.623744 0.008030
C41   C     C_R   0.065350 0.538441 0.624439 0.279867
C42   C     C_R   0.125892 0.506272 0.505309 -0.000236
C43   C     C_R   0.053019 0.465873 0.397448 -0.067562
C44   C     C_R   0.876178 0.690415 0.776511 -0.147168
Cu1   Cu    Cu3+1 0.499990 0.499990 0.640660 1.050686
Cu2   Cu    Cu3+1 0.500010 0.500010 0.359340 1.015948
H1    H     H_    0.250430 0.261329 0.987959 0.144773
H2    H     H_    0.640831 0.686974 0.770175 0.164102
H3    H     H_    0.431278 0.327306 0.874707 0.132024
H4    H     H_    0.152316 0.582326 0.193154 0.175677
H5    H     H_    0.060525 0.226518 0.351645 0.187078
H6    H     H_    0.880470 0.430459 0.315482 0.188513
H7    H     H_    0.899165 0.757741 0.699773 0.147314
H8    H     H_    0.994106 0.209123 0.694994 0.383143
H9    H     H_    0.842416 0.955690 0.360432 0.373819
H10   H     H_    0.072590 0.114612 0.944075 0.397854
H11   H     H_    0.284273 0.658928 0.871970 0.356426
H12   H     H_    0.342766 0.057025 0.920339 0.190240
H13   H     H_    0.009119 0.934764 0.771080 0.343357
H14   H     H_    0.223418 0.893231 0.818383 0.209642
H15   H     H_    0.289116 0.804659 0.607078 0.182602
H16   H     H_    0.639335 0.879428 0.358477 0.116534
H17   H     H_    0.263924 0.486685 0.022990 0.175414
H18   H     H_    0.626817 0.696568 0.229621 0.180167
H19   H     H_    0.631394 0.893202 0.111813 0.199741
H20   H     H_    0.643798 0.887133 0.866502 0.182227
N1    N     N_R   0.501190 0.501210 0.147910 -0.271428
N2    N     N_R   0.501230 0.501290 0.852040 -0.247034
N3    N     N_1   0.862525 0.697933 0.260827 -0.313042
N4    N     N_1   0.740306 0.356338 0.142984 -0.135141
N5    N     N_1   0.621195 0.168808 0.887559 -0.139078
N6    N     N_1   0.456769 0.177863 0.170750 -0.232783
O1    O     O_R   0.499990 0.319640 0.618810 -0.500483
O2    O     O_2   0.772897 0.280646 0.710528 -0.238716
O3    O     O_3   0.000952 0.290979 0.733901 -0.505176
O4    O     O_2   0.717059 0.111649 0.209046 -0.220646
O5    O     O_2   0.747305 0.244233 0.401927 -0.241210
O6    O     O_3   0.842180 0.027308 0.418728 -0.481160
O7    O     O_2   0.259207 0.010693 0.201353 -0.261284
O8    O     O_2   0.042520 0.020011 0.215827 -0.167478
O9    O     O_3   0.132506 0.052623 0.978793 -0.505080
O10   O     O_2   0.075564 0.575241 0.902343 -0.327575
O11   O     O_2   0.202711 0.423223 0.806593 -0.287152
O12   O     O_R   0.500000 0.319660 0.381240 -0.465026
O13   O     O_3   0.251597 0.654515 0.778075 -0.545019
O14   O     O_2   0.850523 0.927624 0.050852 -0.198238
O15   O     O_2   0.047350 0.839176 0.014554 -0.188340
O16   O     O_3   0.934371 0.959169 0.812709 -0.484789
O17   O     O_R   0.319640 0.500000 0.618780 -0.393247
O18   O     O_R   0.319650 0.500020 0.381210 -0.525703
O19   O     O_R   0.500000 0.680340 0.618760 -0.523166
O20   O     O_R   0.500010 0.680360 0.381190 -0.531627
O21   O     O_R   0.680350 0.499980 0.618790 -0.506509
O22   O     O_R   0.680360 0.500000 0.381220 -0.497231
O23   O     O_2   0.870271 0.234430 0.932057 -0.206724
S1    S     S_3+6 0.871438 0.316080 0.807155 0.070864
S2    S     S_3+6 0.725981 0.115928 0.360221 0.064305
S3    S     S_3+6 0.146403 0.072432 0.145388 0.074097
S4    S     S_3+6 0.146449 0.548142 0.783079 -0.000876
S5    S     S_3+6 0.925876 0.866366 0.950906 0.075735

loop_
_geom_bond_atom_site_label_1
_geom_bond_atom_site_label_2
_ccdc_geom_bond_type
C5    C37   S    
C27   C29   A    
O10   S4    D    
O7    S3    D    
O23   S1    D    
Cu1   O21   S    
H10   O9    S    
C29   H3    S    
Cu1   Cu2   S    
C1    O12   A    
C20   C26   A    
C34   C40   A    
C26   N1    A    
Cu1   O1    S    
O15   S5    D    
C30   C31   A    
Cu2   O20   S    
O9    S3    S    
C23   C43   A    
C28   O22   A    
C9    H12   S    
C41   C42   A    
H13   O16   S    
C22   H20   S    
C44   H7    S    
C2    C44   A    
C8    C9    A    
C39   N6    T    
C41   S4    S    
O5    S2    D    
C1    C15   S    
C35   S3    S    
O14   S5    D    
C9    C10   A    
C21   H19   S    
C28   C34   S    
O11   S4    D    
C13   C14   A    
C25   N2    A    
C8    C38   S    
O6    S2    S    
C12   H1    S    
O3    S1    S    
C4    O18   A    
C13   C19   A    
C24   H2    S    
O2    S1    D    
C24   C25   A    
C27   C39   S    
H9    O6    S    
C18   H16   S    
C3    C5    A    
O4    S2    D    
C12   C30   A    
C28   O21   A    
C20   H18   S    
C10   H14   S    
O13   S4    S    
C29   N2    A    
C31   C32   A    
Cu2   O22   S    
C7    C40   S    
C23   C34   A    
Cu1   N2    S    
C17   C18   A    
C7    C44   A    
C12   C35   A    
O16   S5    S    
Cu2   O12   S    
C40   C41   A    
C16   O20   A    
C6    S1    S    
C22   C24   A    
C42   C43   A    
C31   H4    S    
Cu1   O17   S    
C36   N3    T    
C4    O17   A    
C15   C17   A    
C38   N5    T    
C8    C14   A    
O8    S3    D    
C11   H15   S    
C6    C7    A    
Cu2   O18   S    
C33   H5    S    
C37   N4    T    
C32   C33   A    
C2    C3    A    
C25   C26   A    
C1    O1    A    
Cu2   N1    S    
C11   C13   A    
C23   H6    S    
C5    C6    A    
C4    C42   S    
C3    C36   S    
C16   C19   S    
C30   H17   S    
C33   C35   A    
C32   C43   S    
H11   O13   S    
Cu1   O19   S    
C27   N1    A    
C10   C11   A    
C2    S5    S    
H8    O3    S    
C20   C21   A    
C16   O19   A    
C18   C19   A    
C14   C15   A    
C21   C22   A    
C17   S2    S    
