data_mof_unit_41749.cif
_audit_creation_date              2012-10-26T18:53:55-0400
_audit_creation_method            fapswitch 2.2
_symmetry_space_group_name_H-M    P1
_symmetry_Int_Tables_number       1
_space_group_crystal_system       triclinic
_cell_length_a                    14.684595
_cell_length_b                    14.713304
_cell_length_c                    17.291576
_cell_angle_alpha                 105.501384
_cell_angle_beta                  73.512198
_cell_angle_gamma                 114.800897
_cell_volume                      3204.4877862

loop_
_atom_site_label
_atom_site_type_symbol
_atom_type_description
_atom_site_fract_x
_atom_site_fract_y
_atom_site_fract_z
_atom_type_partial_charge
C1    C     C_R   0.118738 0.687971 0.513169 0.533785
C2    C     C_R   0.709340 0.178554 0.483275 -0.138415
C3    C     C_R   0.361082 0.920005 0.494581 0.031157
C4    C     C_R   0.641929 0.076893 0.470881 0.030517
C5    C     C_R   0.320916 0.995685 0.504250 0.049728
C6    C     C_R   0.682884 0.000039 0.452358 0.050662
C7    C     C_R   0.468932 0.945941 0.477666 0.030485
C8    C     C_R   0.534857 0.049736 0.479043 0.030781
C9    C     C_R   0.491768 0.122574 0.487084 -0.140432
C10   C     C_R   0.513115 0.871460 0.457699 -0.142137
C11   C     C_R   0.386862 0.095608 0.498937 -0.135978
C12   C     C_R   0.881327 0.311977 0.485436 0.545703
C13   C     C_R   0.618119 0.898315 0.444533 -0.135596
C14   C     C_R   0.295533 0.330204 0.362191 -0.164902
C15   C     C_R   0.706490 0.672616 0.635152 -0.160835
C16   C     C_R   0.989506 0.502470 0.652376 0.545076
C17   C     C_R   0.011096 0.498794 0.347790 0.540191
C18   C     C_R   0.211715 0.359394 0.384093 0.031587
C19   C     C_R   0.789387 0.642239 0.614461 0.035672
C20   C     C_R   0.286290 0.490880 0.487619 0.033470
C21   C     C_R   0.714017 0.509324 0.512009 0.035221
C22   C     C_R   0.374379 0.465355 0.468107 0.001086
C23   C     C_R   0.186146 0.795252 0.515096 -0.009295
C24   C     C_R   0.627190 0.536524 0.529879 0.001704
C25   C     C_R   0.376766 0.382400 0.404180 0.038865
C26   C     C_R   0.625397 0.620389 0.593024 0.040238
C27   C     C_R   0.458852 0.517883 0.509770 0.020820
C28   C     C_R   0.543299 0.484682 0.487508 0.021229
C29   C     C_R   0.540997 0.401016 0.423661 -0.151030
C30   C     C_R   0.461956 0.602645 0.572622 -0.144989
C31   C     C_R   0.459654 0.351519 0.382838 -0.135698
C32   C     C_R   0.543398 0.652387 0.613293 -0.130086
C33   C     C_R   0.981042 0.494478 0.736646 0.017279
C34   C     C_R   0.814560 0.204179 0.473699 -0.005109
C35   C     C_R   0.015129 0.503096 0.263485 0.009190
C36   C     C_R   0.999853 0.413557 0.748200 -0.131217
C37   C     C_R   0.920855 0.470788 0.240278 -0.123659
C38   C     C_R   0.995041 0.400085 0.826270 0.028481
C39   C     C_R   0.914782 0.487942 0.166865 0.034351
C40   C     C_R   0.970826 0.469903 0.894176 0.035414
C41   C     C_R   0.006901 0.531908 0.112690 0.027005
C42   C     C_R   0.949903 0.549762 0.882921 -0.114981
C43   C     C_R   0.101440 0.562968 0.134824 -0.115730
C44   C     C_R   0.955649 0.564005 0.804732 0.003345
C45   C     C_R   0.214826 0.970471 0.518763 -0.136972
C46   C     C_R   0.107143 0.550219 0.210387 -0.000513
C47   C     C_2   0.967344 0.461065 0.977461 -0.150808
C48   C     C_2   0.008151 0.543048 0.031039 -0.158180
C49   C     C_3   0.211273 0.591849 0.233056 -0.261322
C50   C     C_3   0.258707 0.511118 0.207390 -0.418293
C51   C     C_3   0.937195 0.654930 0.796929 -0.272928
C52   C     C_3   0.035730 0.735600 0.760784 -0.428005
C53   C     C_3   0.809323 0.461454 0.150630 -0.281223
C54   C     C_3   0.753481 0.525873 0.213080 -0.437530
C55   C     C_3   0.019311 0.313015 0.834533 -0.273688
C56   C     C_R   0.788517 0.025770 0.442327 -0.136446
C57   C     C_3   0.125847 0.350551 0.853645 -0.432166
C58   C     C_R   0.147779 0.870579 0.523425 -0.141407
C59   C     C_R   0.854125 0.127300 0.452359 -0.141432
C60   C     C_R   0.291606 0.820994 0.503365 -0.139299
Cu1   Cu    Cu3+1 0.916740 0.524770 0.521640 0.922793
Cu2   Cu    Cu3+1 0.083260 0.475230 0.478360 0.913716
H1    H     H_    0.018855 0.360424 0.695535 0.122002
H2    H     H_    0.148596 0.318719 0.352183 0.120270
H3    H     H_    0.296551 0.266747 0.313043 0.087508
H4    H     H_    0.706217 0.737190 0.683315 0.086608
H5    H     H_    0.601286 0.371566 0.403346 0.084834
H6    H     H_    0.402579 0.633269 0.591834 0.091606
H7    H     H_    0.050978 0.617015 0.012442 0.121983
H8    H     H_    0.933766 0.386421 0.995000 0.126725
H9    H     H_    0.929592 0.601851 0.935814 0.104310
H10   H     H_    0.171301 0.597295 0.092651 0.105494
H11   H     H_    0.357148 0.153760 0.504596 0.114332
H12   H     H_    0.850603 0.434982 0.281481 0.116330
H13   H     H_    0.648691 0.838839 0.429316 0.110675
H14   H     H_    0.681278 0.239487 0.502835 0.121116
H15   H     H_    0.317583 0.762251 0.502285 0.116602
H16   H     H_    0.935391 0.145521 0.444395 0.125031
H17   H     H_    0.066318 0.852196 0.532625 0.127275
H18   H     H_    0.183803 0.027911 0.525592 0.103726
H19   H     H_    0.820282 0.967248 0.427245 0.104335
H20   H     H_    0.271984 0.488303 0.139756 0.137836
H21   H     H_    0.207937 0.442856 0.235675 0.172625
H22   H     H_    0.333215 0.542362 0.227236 0.136760
H23   H     H_    0.537227 0.201027 0.481960 0.102058
H24   H     H_    0.263554 0.657699 0.201985 0.125546
H25   H     H_    0.206808 0.621876 0.299555 0.171311
H26   H     H_    0.067840 0.705944 0.697719 0.163726
H27   H     H_    0.019450 0.801924 0.758474 0.128259
H28   H     H_    0.093599 0.761475 0.799622 0.146780
H29   H     H_    0.877901 0.630766 0.760008 0.163638
H30   H     H_    0.906335 0.691419 0.857937 0.124056
H31   H     H_    0.738034 0.509739 0.275695 0.151377
H32   H     H_    0.799867 0.607944 0.212609 0.157553
H33   H     H_    0.678994 0.507954 0.197081 0.136374
H34   H     H_    0.469001 0.791023 0.449280 0.104406
H35   H     H_    0.812361 0.473634 0.089368 0.156174
H36   H     H_    0.763382 0.379739 0.153436 0.131080
H37   H     H_    0.142526 0.284654 0.856396 0.132357
H38   H     H_    0.184444 0.391194 0.804904 0.156055
H39   H     H_    0.130996 0.402354 0.913457 0.161009
H40   H     H_    0.960771 0.270924 0.882413 0.131603
H41   H     H_    0.016772 0.256939 0.776691 0.132808
H42   H     H_    0.461473 0.287774 0.334135 0.106590
H43   H     H_    0.542252 0.717071 0.661165 0.107449
H44   H     H_    0.722844 0.447802 0.464265 0.113100
H45   H     H_    0.276709 0.551211 0.536372 0.119214
H46   H     H_    0.852920 0.683647 0.645813 0.117083
N1    N     N_R   0.208390 0.438070 0.445820 -0.232674
N2    N     N_R   0.791610 0.561930 0.554180 -0.230852
O1    O     O_R   0.020090 0.662480 0.528530 -0.505976
O2    O     O_R   0.979910 0.337520 0.471470 -0.505730
O3    O     O_R   0.160710 0.620650 0.491980 -0.515647
O4    O     O_R   0.839290 0.379350 0.508020 -0.511185
O5    O     O_R   0.921540 0.523360 0.633990 -0.502167
O6    O     O_R   0.078460 0.476640 0.366010 -0.507247
O7    O     O_R   0.062170 0.481520 0.597440 -0.508811
O8    O     O_R   0.937830 0.518480 0.402560 -0.506551

loop_
_geom_bond_atom_site_label_1
_geom_bond_atom_site_label_2
_ccdc_geom_bond_type
C25   C31   A    
C40   C47   S    
C30   C32   A    
C37   H12   S    
C26   C32   A    
C43   H10   S    
C23   C58   A    
C49   H25   S    
C52   H28   S    
C18   N1    A    
C48   H7    S    
C4    C8    A    
C21   N2    A    
C50   H22   S    
C7    C8    A    
C39   C41   A    
C53   C54   S    
C15   C19   A    
C55   H40   S    
C1    O3    A    
C28   C29   A    
C35   C37   A    
C24   C26   A    
C5    C11   A    
C3    C7    A    
C51   H30   S    
C57   H37   S    
C55   H41   S    
C33   C36   A    
C7    C10   A    
C14   C18   A    
Cu2   O7    S    
C9    H23   S    
C29   H5    S    
C14   H3    S    
C38   C55   S    
C13   H13   S    
C8    C9    A    
C54   H31   S    
C22   C25   A    
Cu1   O5    S    
C36   H1    S    
C21   H44   S    
C20   H45   S    
C51   H29   S    
C3    C60   A    
C2    C34   A    
C40   C42   A    
C27   C30   A    
C41   C43   A    
C52   H27   S    
C42   C44   A    
Cu1   N2    S    
C59   H16   S    
C50   H21   S    
C12   O4    A    
C23   C60   A    
C60   H15   S    
C45   C58   A    
C51   C52   S    
C52   H26   S    
Cu2   O3    S    
C4    C6    A    
C11   H11   S    
C15   C26   A    
C53   H35   S    
C15   H4    S    
C5    C45   A    
C2    C4    A    
C47   H8    S    
Cu2   O6    S    
C16   C33   S    
C47   C48   D    
C46   C49   S    
C10   H34   S    
C9    C11   A    
C54   H33   S    
C17   O8    A    
C58   H17   S    
C44   C51   S    
C20   C22   A    
C1    C23   S    
C32   H43   S    
C55   C57   S    
C34   C59   A    
C12   C34   S    
Cu1   O1    S    
C16   O5    A    
C12   O2    A    
C2    H14   S    
C50   H20   S    
C19   N2    A    
Cu1   O8    S    
C33   C44   A    
C49   H24   S    
C24   C28   A    
C6    C56   A    
C3    C5    A    
C10   C13   A    
C53   H36   S    
C57   H39   S    
C56   C59   A    
C22   C27   A    
C31   H42   S    
C36   C38   A    
C37   C39   A    
C16   O7    A    
C19   H46   S    
C6    C13   A    
C38   C40   A    
C57   H38   S    
C18   H2    S    
C39   C53   S    
Cu2   N1    S    
C42   H9    S    
C41   C48   S    
C56   H19   S    
C45   H18   S    
C14   C25   A    
Cu1   Cu2   S    
C43   C46   A    
C30   H6    S    
C54   H32   S    
C20   N1    A    
Cu2   O2    S    
C29   C31   A    
C49   C50   S    
C21   C24   A    
Cu1   O4    S    
C17   C35   S    
C35   C46   A    
C1    O1    A    
C17   O6    A    
C27   C28   A    
