data_mof_unit_14251.cif
_audit_creation_date              2012-12-11T16:08:57-0500
_audit_creation_method            fapswitch 2.2
_symmetry_space_group_name_H-M    P1
_symmetry_Int_Tables_number       1
_space_group_crystal_system       triclinic
_cell_length_a                    12.913702
_cell_length_b                    13.295228
_cell_length_c                    27.619557
_cell_angle_alpha                 95.022735
_cell_angle_beta                  90.576983
_cell_angle_gamma                 119.260988
_cell_volume                      4113.430677

loop_
_atom_site_label
_atom_site_type_symbol
_atom_type_description
_atom_site_fract_x
_atom_site_fract_y
_atom_site_fract_z
_atom_type_partial_charge
C1    C     C_R   0.629612 0.893144 0.428308 0.552573
C2    C     C_R   0.164712 0.740501 0.298936 0.036547
C3    C     C_3   0.162784 0.021702 0.128443 -0.365947
C4    C     C_R   0.175161 0.747069 0.197180 0.025694
C5    C     C_R   0.601234 0.222531 0.440774 0.542566
C6    C     C_R   0.172655 0.654507 0.218727 -0.101763
C7    C     C_R   0.162792 0.647311 0.268628 0.002100
C8    C     C_R   0.179079 0.749492 0.146453 -0.016039
C9    C     C_R   0.145170 0.821907 0.124649 0.024599
C10   C     C_R   0.175729 0.930940 0.358812 -0.075925
C11   C     C_R   0.168507 0.928896 0.307361 0.005858
C12   C     C_R   0.167077 0.835065 0.277606 -0.069838
C13   C     C_R   0.606872 0.373027 0.232228 0.364090
C14   C     C_R   0.168142 0.019953 0.284558 0.416767
C15   C     C_R   0.163440 0.016781 0.234181 -0.071624
C16   C     C_R   0.163438 0.925807 0.204308 -0.033833
C17   C     C_R   0.265559 0.874528 0.425983 0.565559
C18   C     C_R   0.167189 0.835341 0.226350 0.017024
C19   C     C_R   0.155648 0.920933 0.152872 -0.023953
C20   C     C_R   0.195851 0.847572 0.378922 0.010184
C21   C     C_R   0.760780 0.928420 0.360269 0.378112
C22   C     C_R   0.765177 0.920350 0.309890 0.024127
C23   C     C_R   0.763502 0.912708 0.208504 -0.039874
C24   C     C_R   0.599600 0.359571 0.281828 0.410047
C25   C     C_R   0.856365 0.005569 0.237072 -0.101511
C26   C     C_R   0.858787 0.008676 0.287364 0.402530
C27   C     C_R   0.766646 0.906435 0.158303 -0.107422
C28   C     C_R   0.685727 0.805059 0.129391 -0.022102
C29   C     C_R   0.628552 0.898304 0.564341 0.542643
C30   C     C_R   0.574120 0.745089 0.354855 -0.067619
C31   C     C_R   0.577106 0.735566 0.303518 -0.039024
C32   C     C_R   0.670599 0.826004 0.281287 -0.080923
C33   C     C_R   0.487094 0.640445 0.273627 -0.030833
C34   C     C_R   0.488991 0.635087 0.223024 0.417655
C35   C     C_R   0.672334 0.324987 0.305002 -0.059014
C36   C     C_R   0.581060 0.724791 0.200980 0.036612
C37   C     C_R   0.671088 0.821421 0.230278 -0.010859
C38   C     C_R   0.589351 0.716881 0.150397 -0.101122
C39   C     C_R   0.658161 0.850226 0.382010 0.004634
C40   C     C_R   0.754911 0.321169 0.648685 0.302285
C41   C     C_R   0.605621 0.230762 0.577663 0.594615
C42   C     C_R   0.781709 0.372359 0.696790 -0.039790
C43   C     C_R   0.808464 0.436970 0.797427 0.040928
C44   C     C_R   0.889087 0.408963 0.774671 0.348085
C45   C     C_R   0.873989 0.374406 0.724854 -0.052542
C46   C     C_R   0.686731 0.351822 0.205215 -0.016939
C47   C     C_R   0.813640 0.457997 0.847996 -0.102564
C48   C     C_R   0.721354 0.465698 0.871300 -0.032032
C49   C     C_R   0.599252 0.372521 0.640762 0.310608
C50   C     C_R   0.621680 0.420874 0.689684 -0.019296
C51   C     C_R   0.709067 0.413778 0.718357 -0.085009
C52   C     C_R   0.555821 0.470410 0.711780 0.034216
C53   C     C_R   0.271502 0.879394 0.563265 0.545678
C54   C     C_R   0.561595 0.489575 0.762711 0.353407
C55   C     C_R   0.635020 0.464512 0.791732 0.053943
C56   C     C_R   0.719246 0.441090 0.769138 -0.017364
C57   C     C_1   0.696416 0.371290 0.154584 0.082195
C58   C     C_R   0.625549 0.460147 0.842536 -0.013881
C59   C     C_R   0.656683 0.312041 0.622211 0.027738
C60   C     C_1   0.220234 0.861545 0.609621 -0.002400
C61   C     C_R   0.141665 0.732409 0.720963 0.009030
C62   C     C_R   0.130776 0.727056 0.771328 -0.044439
C63   C     C_R   0.164661 0.923912 0.781958 -0.064557
C64   C     C_R   0.175847 0.930359 0.731900 -0.097311
C65   C     C_1   0.634137 0.271755 0.395566 0.035126
C66   C     C_R   0.164678 0.835352 0.701231 0.047859
C67   C     C_R   0.143197 0.822669 0.801769 0.063858
C68   C     C_1   0.654596 0.300937 0.355108 0.030638
C69   C     C_1   0.125015 0.812619 0.852782 -0.008797
C70   C     C_1   0.189642 0.848913 0.650727 -0.054322
C71   C     C_1   0.100808 0.796621 0.894417 0.016072
C72   C     C_1   0.649328 0.861125 0.608541 0.016743
C73   C     C_R   0.758711 0.790930 0.712609 -0.101677
C74   C     C_R   0.771920 0.775937 0.761199 0.323832
C75   C     C_R   0.601903 0.801082 0.779845 0.408931
C76   C     C_R   0.587550 0.815771 0.730938 0.011565
C77   C     C_R   0.753995 0.304280 0.278178 -0.075038
C78   C     C_R   0.667878 0.811856 0.697434 -0.071685
C79   C     C_1   0.704874 0.396318 0.113380 0.039526
C80   C     C_R   0.694363 0.782267 0.794880 0.091466
C81   C     C_1   0.709688 0.770014 0.845107 0.107648
C82   C     C_1   0.660663 0.835593 0.648135 -0.034889
C83   C     C_1   0.724664 0.761613 0.887224 0.027478
C84   C     C_R   0.069885 0.775455 0.078320 0.544370
C85   C     C_R   0.717118 0.441073 0.067205 0.557851
C86   C     C_R   0.720547 0.782853 0.081132 0.562105
C87   C     C_R   0.056483 0.766017 0.941298 0.529373
C88   C     C_R   0.731027 0.487767 0.925188 0.536922
C89   C     C_R   0.761075 0.318720 0.228129 0.330167
C90   C     C_R   0.171903 0.745683 0.349908 0.351314
C91   C     C_R   0.748481 0.754250 0.936949 0.534024
C92   C     C_3   0.831316 0.265304 0.302605 -0.298675
C93   C     C_3   0.155143 0.015353 0.392169 -0.262988
C94   C     C_3   0.484516 0.644086 0.380208 -0.349181
C95   C     C_3   0.507506 0.432065 0.864037 -0.295417
C96   C     C_3   0.477137 0.500892 0.682536 -0.288323
C97   C     C_3   0.129588 0.628991 0.688999 -0.378625
C98   C     C_3   0.488009 0.836337 0.714689 -0.338324
C99   C     C_3   0.220369 0.676757 0.115911 -0.363435
C100  C     C_3   0.152290 0.539573 0.287575 -0.292681
Cr1   Cr    Cr6+3 0.416430 0.829200 0.492370 1.062680
Cr2   Cr    Cr6+3 0.674630 0.087020 0.504170 1.137553
Cr3   Cr    Cr6+3 0.408920 0.083740 0.503490 1.073640
Cr4   Cr    Cr6+3 0.914010 0.832750 0.013970 1.028079
Cr5   Cr    Cr6+3 0.922310 0.578600 0.003000 1.046843
Cr6   Cr    Cr6+3 0.656280 0.574630 0.003870 1.041561
F1    F     F_    0.177821 0.116280 0.310167 -0.572543
F2    F     F_    0.535811 0.406788 0.210441 -0.560393
F3    F     F_    0.860613 0.755963 0.775443 -0.651103
F4    F     F_    0.526732 0.805628 0.812973 -0.612344
F5    F     F_    0.520024 0.378477 0.307176 -0.575866
F6    F     F_    0.163670 0.655161 0.372172 -0.644201
F7    F     F_    0.852186 0.018377 0.388000 -0.563804
F8    F     F_    0.951177 0.100387 0.313658 -0.546885
F9    F     F_    0.400760 0.541726 0.195692 -0.607824
F10   F     F_    0.839491 0.300262 0.201623 -0.639111
F11   F     F_    0.817876 0.271592 0.629421 -0.620488
F12   F     F_    0.977396 0.407100 0.801019 -0.639058
F13   F     F_    0.498906 0.537478 0.783758 -0.659926
F14   F     F_    0.515339 0.375291 0.611775 -0.636908
H1    H     H_    0.160074 0.087520 0.219059 0.163157
H2    H     H_    0.194966 0.010169 0.717159 0.125231
H3    H     H_    0.820218 0.787680 0.686951 0.157407
H4    H     H_    0.173520 0.583937 0.196362 0.158430
H5    H     H_    0.893555 0.256400 0.277495 0.227035
H6    H     H_    0.884863 0.329413 0.333847 0.157026
H7    H     H_    0.774431 0.179973 0.316200 0.159462
H8    H     H_    0.134158 0.987215 0.429167 0.122976
H9    H     H_    0.234720 0.103054 0.395005 0.215174
H10   H     H_    0.075656 0.018218 0.378404 0.249180
H11   H     H_    0.510292 0.653020 0.419431 0.155384
H12   H     H_    0.840345 0.976030 0.142285 0.146956
H13   H     H_    0.395200 0.636163 0.375974 0.176184
H14   H     H_    0.480937 0.562430 0.364738 0.188672
H15   H     H_    0.477810 0.357100 0.885606 0.143720
H16   H     H_    0.514901 0.508883 0.886541 0.188638
H17   H     H_    0.432794 0.399820 0.836314 0.191695
H18   H     H_    0.445429 0.552803 0.704834 0.178746
H19   H     H_    0.527688 0.554216 0.653431 0.168654
H20   H     H_    0.397110 0.420657 0.666555 0.196084
H21   H     H_    0.116158 0.557392 0.710601 0.156089
H22   H     H_    0.052222 0.596554 0.662384 0.160203
H23   H     H_    0.928708 0.074943 0.220415 0.153228
H24   H     H_    0.211338 0.653799 0.669010 0.138110
H25   H     H_    0.430524 0.834196 0.744636 0.202132
H26   H     H_    0.525669 0.922435 0.700702 0.135103
H27   H     H_    0.431154 0.768158 0.685204 0.118310
H28   H     H_    0.245282 0.707831 0.079527 0.151838
H29   H     H_    0.301810 0.684374 0.133712 0.144636
H30   H     H_    0.149603 0.584364 0.111352 0.168431
H31   H     H_    0.069148 0.495798 0.306866 0.193753
H32   H     H_    0.148385 0.475528 0.257899 0.158784
H33   H     H_    0.230545 0.562466 0.312248 0.177908
H34   H     H_    0.526223 0.639036 0.127880 0.191054
H35   H     H_    0.239677 0.104217 0.144796 0.156109
H36   H     H_    0.179652 0.016148 0.089272 0.152165
H37   H     H_    0.079392 0.025693 0.132670 0.142545
H38   H     H_    0.413582 0.569745 0.288866 0.160667
H39   H     H_    0.886364 0.461647 0.869434 0.202073
H40   H     H_    0.932488 0.345815 0.708635 0.198779
H41   H     H_    0.112330 0.648341 0.786926 0.166264
H42   H     H_    0.172717 0.997733 0.805168 0.124559
O1    O     O_R   0.296680 0.802170 0.437540 -0.426931
O2    O     O_R   0.637200 0.461990 0.052510 -0.487636
O3    O     O_R   0.664790 0.681920 0.057970 -0.490156
O4    O     O_R   0.525380 0.838530 0.443500 -0.518161
O5    O     O_R   0.815840 0.852920 0.961840 -0.483376
O6    O     O_R   0.012100 0.822630 0.963670 -0.515531
O7    O     O_R   0.037010 0.668460 0.953040 -0.506944
O8    O     O_R   0.813390 0.478970 0.949660 -0.488376
O9    O     O_R   0.632250 0.456930 0.945520 -0.522757
O10   O     O_R   0.660200 0.677230 0.958780 -0.505352
O11   O     O_3   0.830870 0.661990 0.006950 -0.290644
O12   O     O_R   0.662610 0.183990 0.557860 -0.442538
O13   O     O_R   0.702130 0.995190 0.446810 -0.429423
O14   O     O_R   0.661770 0.181390 0.458760 -0.492754
O15   O     O_R   0.499820 0.198480 0.455280 -0.493287
O16   O     O_R   0.311660 0.976250 0.449080 -0.522982
O17   O     O_R   0.297580 0.804960 0.544440 -0.500957
O18   O     O_R   0.526220 0.841130 0.542590 -0.507284
O19   O     O_R   0.703030 0.997990 0.553710 -0.465570
O20   O     O_R   0.500730 0.201280 0.562180 -0.444259
O21   O     O_R   0.312500 0.978850 0.548170 -0.493426
O22   O     O_3   0.499990 0.999990 0.500010 -0.283598
O23   O     O_R   0.820790 0.857990 0.068830 -0.509785
O24   O     O_R   0.016700 0.827330 0.062850 -0.499214
O25   O     O_R   0.041970 0.673520 0.060040 -0.508893
O26   O     O_R   0.817980 0.483660 0.048840 -0.480736

loop_
_geom_bond_atom_site_label_1
_geom_bond_atom_site_label_2
_ccdc_geom_bond_type
C100  H33   S    
C17   O16   A    
C63   H42   S    
C41   O12   A    
C77   C92   S    
Cr3   O20   S    
C73   C74   A    
C57   C79   T    
C84   O24   A    
C2    C7    A    
C6    H4    S    
C99   H28   S    
C2    C12   A    
C92   H5    S    
C17   C20   S    
C74   F3    S    
C46   C89   A    
C47   H39   S    
C100  H32   S    
Cr4   O23   S    
C99   H29   S    
C77   C89   A    
Cr5   O7    S    
C91   O10   A    
Cr3   O21   S    
C35   C68   S    
Cr5   O26   S    
C91   O5    A    
C36   C37   A    
C34   F9    S    
C8    C99   S    
C76   C78   A    
C53   O21   A    
C96   H18   S    
C30   C31   A    
C11   C14   A    
C62   H41   S    
C98   H27   S    
Cr2   O14   S    
C15   C16   A    
C87   O7    A    
C24   F5    S    
C33   H38   S    
C94   H13   S    
C2    C90   A    
C51   C56   A    
Cr6   O9    S    
C69   C71   T    
Cr6   O2    S    
C86   O3    A    
C3    H36   S    
C75   C76   A    
C17   O1    A    
C61   C66   A    
C9    C19   A    
C87   O6    A    
C10   C20   A    
C8    C9    A    
C73   H3    S    
C29   O18   A    
Cr1   O4    S    
C50   C52   A    
C73   C78   A    
C31   C33   A    
C3    C19   S    
C60   C70   T    
C75   C80   A    
C22   C32   A    
C4    C8    A    
C42   C51   A    
C29   C72   S    
C4    C18   A    
C85   O26   A    
C40   C42   A    
C40   F11   S    
C89   F10   S    
C88   O9    A    
C74   C80   A    
C54   F13   S    
C27   H12   S    
C25   H23   S    
C45   H40   S    
C96   H19   S    
C13   F2    S    
C93   H9    S    
C53   O17   A    
C95   H15   S    
C81   C83   T    
C53   C60   S    
C52   C54   A    
C50   C51   A    
C48   C88   S    
C100  H31   S    
C99   H30   S    
C63   C67   A    
C95   H17   S    
C24   C35   A    
C88   O8    A    
Cr5   O8    S    
Cr3   O22   S    
Cr6   O3    S    
Cr1   O1    S    
C41   C59   S    
C21   F7    S    
C7    C100  S    
C90   F6    S    
C98   H26   S    
C10   C93   S    
C25   C26   A    
C23   C37   A    
C20   C90   A    
C35   C77   A    
C13   C24   A    
C67   C69   S    
C42   C45   A    
C64   C66   A    
C58   C95   S    
C26   F8    S    
C97   H24   S    
Cr1   O17   S    
Cr4   O6    S    
C78   C82   S    
C47   C48   A    
C21   C39   A    
C28   C38   A    
C65   C68   T    
C97   H21   S    
C55   C56   A    
C3    H35   S    
C33   C34   A    
C16   C18   A    
C32   C37   A    
C5    O15   A    
Cr4   O11   S    
Cr1   O22   S    
C29   O19   A    
C71   C87   S    
C62   C67   A    
C5    C65   S    
C14   F1    S    
C23   C27   A    
C43   C44   A    
C28   C86   S    
C5    O14   A    
C41   O20   A    
C4    C6    A    
C44   F12   S    
C38   H34   S    
C93   H10   S    
C92   H7    S    
C79   C85   S    
Cr4   O24   S    
C44   C45   A    
C3    H37   S    
C54   C55   A    
C1    O13   A    
C75   F4    S    
C15   H1    S    
C14   C15   A    
Cr2   O19   S    
Cr6   O10   S    
C31   C32   A    
C61   C97   S    
C80   C81   S    
C92   H6    S    
C96   H20   S    
C11   C12   A    
C48   C58   A    
C6    C7    A    
C98   H25   S    
Cr2   O12   S    
C83   C91   S    
C94   H11   S    
C49   C59   A    
Cr3   O16   S    
Cr2   O22   S    
Cr5   O25   S    
C36   C38   A    
Cr2   O13   S    
C93   H8    S    
C46   C57   S    
Cr1   O18   S    
Cr4   O5    S    
C66   C70   S    
C43   C47   A    
C1    O4    A    
C16   C19   A    
C64   H2    S    
C95   H16   S    
C94   H14   S    
Cr6   O11   S    
C30   C39   A    
C52   C96   S    
C34   C36   A    
C23   C25   A    
C61   C62   A    
C97   H22   S    
C10   C11   A    
C1    C39   S    
C9    C84   S    
C63   C64   A    
C49   F14   S    
C43   C56   A    
C86   O23   A    
C30   C94   S    
C49   C50   A    
C22   C26   A    
C55   C58   A    
C12   C18   A    
C27   C28   A    
C40   C59   A    
C85   O2    A    
C13   C46   A    
C84   O25   A    
Cr5   O11   S    
Cr3   O15   S    
C21   C22   A    
C76   C98   S    
C72   C82   T    
