data_mof_unit_52515.cif
_audit_creation_date              2012-12-10T19:14:55-0500
_audit_creation_method            fapswitch 2.2
_symmetry_space_group_name_H-M    P1
_symmetry_Int_Tables_number       1
_space_group_crystal_system       triclinic
_cell_length_a                    15.975516
_cell_length_b                    14.776886
_cell_length_c                    10.806592
_cell_angle_alpha                 89.962727
_cell_angle_beta                  90.10606
_cell_angle_gamma                 90.108754
_cell_volume                      2551.08515265

loop_
_atom_site_label
_atom_site_type_symbol
_atom_type_description
_atom_site_fract_x
_atom_site_fract_y
_atom_site_fract_z
_atom_type_partial_charge
C1    C     C_1   0.251820 0.499200 0.504043 -0.087234
C2    C     C_1   0.748180 0.500799 0.495954 -0.087124
C3    C     C_R   0.500033 0.499900 0.871141 -0.160393
C4    C     C_R   0.499968 0.500100 0.128859 -0.160395
C5    C     C_R   0.500022 0.902858 0.500015 0.036356
C6    C     C_R   0.499977 0.097142 0.499985 0.036354
C7    C     C_R   0.465810 0.952002 0.599421 -0.122656
C8    C     C_R   0.534190 0.047998 0.400579 -0.122655
C9    C     C_R   0.534214 0.952238 0.400594 -0.130505
C10   C     C_R   0.465786 0.047762 0.599406 -0.130497
C11   C     C_R   0.956272 0.576882 0.544981 0.274671
C12   C     C_R   0.043728 0.423118 0.455005 0.274673
C13   C     C_R   0.043464 0.568819 0.565939 0.283255
C14   C     C_R   0.956535 0.431180 0.434049 0.283254
C15   C     C_R   0.340864 0.499878 0.500287 0.774247
C16   C     C_R   0.659135 0.500122 0.499713 0.774257
C17   C     C_R   0.499968 0.500029 0.262364 0.786771
C18   C     C_R   0.500032 0.499971 0.737636 0.786761
C19   C     C_R   0.913226 0.504880 0.486843 -0.228116
C20   C     C_R   0.086774 0.495118 0.513147 -0.228092
C21   C     C_1   0.500016 0.802697 0.500009 0.159214
C22   C     C_1   0.499984 0.197303 0.499991 0.159216
C23   C     C_1   0.823239 0.502581 0.491431 0.255708
C24   C     C_1   0.176761 0.497417 0.508562 0.255664
C25   C     C_R   0.348402 0.466074 0.128433 -0.143555
C26   C     C_R   0.651598 0.533928 0.871567 -0.143541
C27   C     C_R   0.348534 0.465531 0.870715 -0.140673
C28   C     C_R   0.651467 0.534470 0.129284 -0.140628
C29   C     C_R   0.274432 0.449590 0.063652 -0.099839
C30   C     C_R   0.725568 0.550413 0.936348 -0.099858
C31   C     C_R   0.274526 0.449143 0.935069 -0.079165
C32   C     C_R   0.725474 0.550858 0.064931 -0.079251
C33   C     C_R   0.424528 0.482349 0.934622 0.057245
C34   C     C_R   0.575473 0.517651 0.065378 0.057240
C35   C     C_R   0.424483 0.482512 0.064954 0.066772
C36   C     C_R   0.575517 0.517489 0.935045 0.066768
Cu1   Cu    Cu3+1 0.500000 0.589220 0.500000 1.008861
Cu2   Cu    Cu3+1 0.500000 0.410780 0.500000 1.008869
H1    H     H_    0.783013 0.563646 0.115080 0.193874
H2    H     H_    0.216987 0.436356 0.884920 0.193885
H3    H     H_    0.783214 0.562615 0.886561 0.191759
H4    H     H_    0.216786 0.437390 0.113438 0.191764
H5    H     H_    0.438948 0.083311 0.677407 0.146670
H6    H     H_    0.561052 0.916689 0.322593 0.146667
H7    H     H_    0.561015 0.083732 0.322569 0.147542
H8    H     H_    0.438984 0.916268 0.677431 0.147538
H9    H     H_    0.345130 0.466153 0.228376 0.130145
H10   H     H_    0.654870 0.533850 0.771624 0.130145
H11   H     H_    0.345360 0.465181 0.770761 0.141631
H12   H     H_    0.654641 0.534819 0.229239 0.141647
N1    N     N_1   0.500000 0.276710 0.500000 -0.143115
N2    N     N_1   0.500000 0.723290 0.500000 -0.143114
O1    O     O_R   0.380310 0.575320 0.500020 -0.556850
O2    O     O_R   0.619690 0.424680 0.499980 -0.556828
O3    O     O_R   0.619690 0.575320 0.499980 -0.565152
O4    O     O_R   0.380310 0.424680 0.500020 -0.565164
O5    O     O_R   0.499990 0.575350 0.319650 -0.570361
O6    O     O_R   0.500010 0.424650 0.680350 -0.570361
O7    O     O_R   0.500010 0.575350 0.680350 -0.569051
O8    O     O_R   0.499990 0.424650 0.319650 -0.569043
S1    S     S_3+6 0.099022 0.645524 0.664784 0.078489
O9    O     O_2   0.131760 0.722722 0.588123 -0.235576
O10   O     O_2   0.043230 0.681654 0.764973 -0.178242
O11   O     O_3   0.180151 0.593306 0.733818 -0.574782
H13   H     H_    0.212169 0.642204 0.775123 0.376115
S2    S     S_3+6 0.900980 0.354476 0.335200 0.078468
O12   O     O_2   0.956772 0.318369 0.234997 -0.178363
O13   O     O_2   0.868259 0.277263 0.411849 -0.235467
O14   O     O_3   0.819836 0.406683 0.266187 -0.574810
H14   H     H_    0.787925 0.357807 0.224656 0.376145
S3    S     S_3+6 0.900405 0.678340 0.581604 0.078364
O15   O     O_2   0.867354 0.671008 0.711356 -0.282545
O16   O     O_2   0.955998 0.760128 0.571505 -0.157996
O17   O     O_3   0.819537 0.693263 0.483710 -0.539959
H15   H     H_    0.784945 0.741240 0.521920 0.378024
S4    S     S_3+6 0.099597 0.321664 0.418366 0.078382
O18   O     O_2   0.044006 0.239872 0.428462 -0.157942
O19   O     O_2   0.132638 0.329004 0.288610 -0.282584
O20   O     O_3   0.180471 0.306735 0.516247 -0.539931
H16   H     H_    0.215108 0.258829 0.477962 0.378005

loop_
_geom_bond_atom_site_label_1
_geom_bond_atom_site_label_2
_ccdc_geom_bond_type
C7    C10   A    
S2    O13   D    
C29   H4    S    
S4    O20   S    
C27   C33   A    
C11   C19   A    
C15   O1    A    
S4    O19   D    
C11   S3    S    
S2    O14   S    
C3    C33   A    
C6    C22   S    
C31   H2    S    
C3    C18   S    
C32   H1    S    
S1    O10   D    
C8    H7    S    
Cu2   O6    S    
C28   H12   S    
C18   O6    A    
C20   C24   S    
C8    C9    A    
C30   H3    S    
C1    C15   S    
C2    C16   S    
C25   H9    S    
C26   H10   S    
Cu1   O1    S    
S2    O12   D    
C4    C35   A    
C28   C34   A    
O14   H14   S    
C25   C29   A    
C4    C34   A    
O17   H15   S    
C27   C31   A    
C7    H8    S    
C28   C32   A    
S4    O18   D    
C5    C7    A    
Cu1   N2    S    
C6    C8    A    
Cu2   N1    S    
C5    C21   S    
S1    O11   S    
C19   C23   S    
C5    C9    A    
Cu1   Cu2   S    
Cu2   O2    S    
C12   C20   A    
C14   S2    S    
C13   S1    S    
Cu1   O7    S    
C25   C35   A    
Cu2   O8    S    
C4    C17   S    
C26   C36   A    
C12   C14   A    
C26   C30   A    
C12   S4    S    
S3    O16   D    
C9    H6    S    
C13   C20   A    
C10   H5    S    
C14   C19   A    
C6    C10   A    
S3    O17   S    
O11   H13   S    
C16   O3    A    
S3    O15   D    
C29   C31   A    
C15   O4    A    
C30   C32   A    
C11   C13   A    
C3    C36   A    
C33   C35   A    
C34   C36   A    
S1    O9    D    
C16   O2    A    
C17   O8    A    
O20   H16   S    
Cu1   O3    S    
C18   O7    A    
Cu2   O4    S    
C1    C24   T    
C2    C23   T    
C21   N2    T    
Cu1   O5    S    
C27   H11   S    
C17   O5    A    
C22   N1    T    
