data_mof_unit_6710.cif
_audit_creation_date              2012-12-10T20:31:57-0500
_audit_creation_method            fapswitch 2.2
_symmetry_space_group_name_H-M    P1
_symmetry_Int_Tables_number       1
_space_group_crystal_system       triclinic
_cell_length_a                    9.884214
_cell_length_b                    10.614079
_cell_length_c                    15.513551
_cell_angle_alpha                 91.125418
_cell_angle_beta                  68.767559
_cell_angle_gamma                 89.835921
_cell_volume                      1516.69520738

loop_
_atom_site_label
_atom_site_type_symbol
_atom_type_description
_atom_site_fract_x
_atom_site_fract_y
_atom_site_fract_z
_atom_type_partial_charge
C1    C     C_R   0.502937 0.739821 0.494281 0.879473
C2    C     C_R   0.402385 0.545092 0.918022 0.095306
C3    C     C_R   0.254720 0.524173 0.970745 0.147841
C4    C     C_R   0.500484 0.575872 0.962495 0.043014
C5    C     C_R   0.454648 0.565511 0.059637 0.027916
C6    C     C_R   0.301850 0.560411 0.112850 0.076623
C7    C     C_R   0.205717 0.535041 0.066828 -0.289142
C8    C     C_R   0.642432 0.619463 0.913133 -0.228825
C9    C     C_R   0.739474 0.645070 0.956916 -0.244990
C10   C     C_R   0.703530 0.614473 0.048944 0.179469
C11   C     C_R   0.564558 0.565037 0.098265 0.084511
C12   C     C_R   0.409350 0.499541 0.675940 0.867541
C13   C     C_R   0.806014 0.627647 0.091679 -0.233162
C14   C     C_R   0.773115 0.586509 0.181648 -0.211099
C15   C     C_R   0.544523 0.506463 0.181057 -0.247804
C16   C     C_R   0.388092 0.935609 0.477957 0.148711
C17   C     C_R   0.512626 0.869947 0.472851 -0.107839
C18   C     C_R   0.645988 0.932416 0.444832 -0.221016
C19   C     C_R   0.645807 0.063378 0.446494 -0.232490
C20   C     C_R   0.512307 0.128181 0.474407 -0.111740
C21   C     C_R   0.387756 0.063892 0.478366 0.129807
C22   C     C_3   0.236026 0.072698 0.547433 -0.475518
C23   C     C_R   0.502889 0.259762 0.494911 0.883004
C24   C     C_3   0.237122 0.929943 0.546842 -0.524828
C25   C     C_R   0.905290 0.597487 0.541116 0.203740
C26   C     C_R   0.955787 0.410788 0.451817 -0.146167
C27   C     C_R   0.099643 0.410882 0.451707 -0.140535
C28   C     C_R   0.047831 0.596739 0.541618 0.172374
C29   C     C_3   0.999422 0.634429 0.641225 -0.520714
C30   C     C_3   0.845322 0.633990 0.641660 -0.154405
C31   C     C_R   0.590015 0.501232 0.324554 0.862386
C32   C     C_R   0.352417 0.505253 0.777364 -0.063503
C33   C     C_R   0.641850 0.524985 0.226137 -0.053534
C34   C     C_R   0.156811 0.496477 0.926220 -0.204272
C35   C     C_R   0.205008 0.489179 0.829815 -0.200266
C36   C     C_R   0.449100 0.529722 0.822018 -0.264496
H1    H     H_    0.090696 0.526490 0.106066 0.145986
H2    H     H_    0.746958 0.112467 0.433618 0.164131
H3    H     H_    0.159192 0.112977 0.517508 0.202860
H4    H     H_    0.231798 0.890000 0.613715 0.201186
H5    H     H_    0.163038 0.887301 0.515436 0.204520
H6    H     H_    0.923182 0.337240 0.414370 0.141541
H7    H     H_    0.175338 0.337475 0.414079 0.142753
H8    H     H_    0.019584 0.558972 0.683925 0.194286
H9    H     H_    0.041309 0.727493 0.652347 0.194270
H10   H     H_    0.782752 0.555489 0.683020 0.157715
H11   H     H_    0.848514 0.604002 0.216572 0.150416
H12   H     H_    0.845816 0.681420 0.917199 0.148577
H13   H     H_    0.043189 0.480672 0.965804 0.148330
H14   H     H_    0.127867 0.469158 0.796651 0.150065
H15   H     H_    0.561947 0.532977 0.780598 0.146231
H16   H     H_    0.679947 0.638847 0.841040 0.139767
N1    N     N_R   0.856900 0.500860 0.500610 -0.115649
N2    N     N_R   0.142540 0.500820 0.500610 -0.101476
O1    O     O_R   0.385310 0.683210 0.499990 -0.614004
O2    O     O_R   0.614650 0.683240 0.500000 -0.623983
O3    O     O_R   0.319830 0.499970 0.632240 -0.611213
O4    O     O_R   0.549170 0.500000 0.632250 -0.620659
O5    O     O_R   0.385350 0.316760 0.500000 -0.616511
O6    O     O_R   0.614690 0.316790 0.500010 -0.618047
O7    O     O_R   0.450830 0.500000 0.367750 -0.619887
O8    O     O_R   0.680170 0.500030 0.367760 -0.620922
Zn1   Zn    Zn3+2 0.346870 0.499980 0.499990 0.929432
Zn2   Zn    Zn3+2 0.653130 0.500020 0.500010 0.928522
H17   H     H_    0.909983 0.670980 0.056110 0.142762
H18   H     H_    0.747247 0.881607 0.429869 0.166623
H19   H     H_    0.229952 0.115797 0.614690 0.206342
H20   H     H_    0.454162 0.444328 0.210738 0.146017
C37   C     C_3   0.760676 0.760884 0.665338 -0.361710
C38   C     C_3   0.836225 0.874089 0.608057 -0.342637
C39   C     C_3   0.738040 0.990894 0.634672 -0.870621
H21   H     H_    0.632501 0.971889 0.627096 0.272119
H22   H     H_    0.717321 0.019642 0.707622 0.257823
H23   H     H_    0.791815 0.069884 0.589459 0.252688
H24   H     H_    0.935017 0.897113 0.622451 0.225002
H25   H     H_    0.866924 0.852612 0.533113 0.216731
H26   H     H_    0.654232 0.746467 0.657742 0.223197
H27   H     H_    0.738354 0.785939 0.738872 0.194134
C40   C     C_3   0.232758 0.602915 0.214323 -0.405948
C41   C     C_3   0.272848 0.739105 0.229348 -0.309840
C42   C     C_3   0.200383 0.781680 0.330297 -0.901956
H28   H     H_    0.080464 0.774276 0.352939 0.246978
H29   H     H_    0.239714 0.722803 0.374947 0.288296
H30   H     H_    0.228189 0.881396 0.338362 0.248134
H31   H     H_    0.392036 0.747953 0.209726 0.232863
H32   H     H_    0.237387 0.802800 0.185336 0.219172
H33   H     H_    0.112358 0.599902 0.237069 0.192083
H34   H     H_    0.257136 0.539103 0.262096 0.208139

loop_
_geom_bond_atom_site_label_1
_geom_bond_atom_site_label_2
_ccdc_geom_bond_type
C8    C9    A    
C16   C21   A    
C31   O7    A    
C37   H26   S    
C19   C20   A    
C4    C8    A    
C42   H30   S    
C14   C33   A    
C40   H33   S    
C42   H28   S    
C27   N2    A    
C13   H17   S    
C25   C28   A    
C23   O5    A    
C26   C27   A    
C29   C30   S    
C32   C36   A    
C28   C29   S    
C1    O2    A    
C25   N1    A    
C5    C11   A    
C3    C7    A    
C5    C6    A    
N1    Zn2   S    
N2    Zn1   S    
C22   H3    S    
C34   C35   A    
O7    Zn1   S    
O8    Zn2   S    
C11   C15   A    
C16   C17   A    
O1    Zn1   S    
C41   H32   S    
O2    Zn2   S    
C38   C39   S    
C9    C10   A    
C8    H16   S    
C12   O4    A    
C16   C24   S    
C21   C22   S    
C12   C32   S    
C24   H5    S    
C31   O8    A    
C37   H27   S    
C40   H34   S    
C42   H29   S    
O3    Zn1   S    
O4    Zn2   S    
C23   O6    A    
C32   C35   A    
C39   H22   S    
C28   N2    A    
C18   C19   A    
C3    C34   A    
C29   H9    S    
C2    C4    A    
C41   H31   S    
C19   H2    S    
C20   C23   S    
C35   H14   S    
C31   C33   S    
C17   C18   A    
C7    H1    S    
C14   H11   S    
C36   H15   S    
C12   O3    A    
C29   H8    S    
C38   H25   S    
C22   C24   S    
C26   N1    A    
C30   C37   S    
C26   H6    S    
C2    C36   A    
C25   C30   S    
C34   H13   S    
C1    C17   S    
C30   H10   S    
C41   C42   S    
C10   C13   A    
C39   H23   S    
C6    C7    A    
C18   H18   S    
O5    Zn1   S    
O6    Zn2   S    
C2    C3    A    
C1    O1    A    
C39   H21   S    
C6    C40   S    
C15   H20   S    
C24   H4    S    
C37   C38   S    
C22   H19   S    
C10   C11   A    
C40   C41   S    
C27   H7    S    
C4    C5    A    
C20   C21   A    
C9    H12   S    
C38   H24   S    
C13   C14   A    
C15   C33   A    
