data_mof_unit_57256.cif
_audit_creation_date              2013-03-05T16:09:45-0500
_audit_creation_method            fapswitch 2.2
_symmetry_space_group_name_H-M    P1
_symmetry_Int_Tables_number       1
_space_group_crystal_system       triclinic
_cell_length_a                    12.785091
_cell_length_b                    10.611942
_cell_length_c                    9.939955
_cell_angle_alpha                 91.969387
_cell_angle_beta                  98.927579
_cell_angle_gamma                 91.334582
_cell_volume                      1330.91533384

loop_
_atom_site_label
_atom_site_type_symbol
_atom_site_description
_atom_site_fract_x
_atom_site_fract_y
_atom_site_fract_z
_atom_type_partial_charge
O1    O     O_R   0.499990 0.316750 0.614620 -0.612730
O2    O     O_R   0.500010 0.683250 0.385380 -0.618930
O3    O     O_R   0.499990 0.316780 0.385290 -0.560393
O4    O     O_R   0.500010 0.683220 0.614710 -0.544455
C1    C     C_R   0.498962 0.260321 0.498059 0.897239
C2    C     C_R   0.500977 0.739678 0.501896 0.910808
O5    O     O_R   0.346360 0.499970 0.595710 -0.622928
O6    O     O_R   0.653640 0.500030 0.404290 -0.634910
O7    O     O_R   0.346360 0.499990 0.366380 -0.549388
O8    O     O_R   0.653640 0.500010 0.633620 -0.568377
C3    C     C_R   0.297897 0.504356 0.471558 0.921242
C4    C     C_R   0.702067 0.497255 0.528742 0.958146
Zn1   Zn    Zn3+2 0.500000 0.499980 0.653120 1.057868
Zn2   Zn    Zn3+2 0.500000 0.500020 0.346880 1.061173
C5    C     C_R   0.816019 0.499109 0.550947 -0.142385
C6    C     C_R   0.184864 0.520775 0.454538 -0.161894
C7    C     C_R   0.021679 0.618645 0.356795 0.398759
C8    C     C_R   0.986487 0.451811 0.677198 0.301658
C9    C     C_R   0.129884 0.596568 0.354473 -0.175782
C10   C     C_R   0.875773 0.438455 0.660419 -0.173600
C11   C     C_R   0.135210 0.469890 0.555380 -0.159370
C12   C     C_R   0.864549 0.566843 0.459159 -0.172001
C13   C     C_R   0.032583 0.497480 0.566915 0.015580
C14   C     C_R   0.972810 0.563342 0.461033 -0.000094
H1    H     H_    0.814830 0.614614 0.380316 0.230324
H2    H     H_    0.177666 0.404594 0.623710 0.217767
C15   C     C_R   0.565317 0.063730 0.421965 -0.043287
C16   C     C_R   0.434210 0.936239 0.577451 -0.049974
H3    H     H_    0.617356 0.113593 0.364234 0.183777
H4    H     H_    0.382062 0.886360 0.635021 0.177326
C17   C     C_R   0.567385 0.934684 0.425811 -0.130634
C18   C     C_R   0.432239 0.065299 0.573736 -0.161694
H5    H     H_    0.619857 0.883601 0.369026 0.176495
H6    H     H_    0.379800 0.116392 0.630546 0.167796
C19   C     C_R   0.502164 0.872284 0.504067 -0.003531
C20   C     C_R   0.497563 0.127707 0.495640 -0.029259
C21   C     C_R   0.551478 0.592735 0.088229 -0.166302
C22   C     C_R   0.448599 0.407208 0.911823 -0.148072
H7    H     H_    0.590932 0.666538 0.156568 0.213623
H8    H     H_    0.409239 0.333301 0.843548 0.205873
C23   C     C_R   0.552561 0.594599 0.946019 0.410285
C24   C     C_R   0.447261 0.405548 0.054013 0.472554
N1    N     N_R   0.499970 0.499970 0.857200 -0.170089
N2    N     N_R   0.500030 0.500030 0.142800 -0.172316
C25   C     C_2   0.825038 0.349923 0.745992 0.507230
H9    H     H_    0.856127 0.339809 0.852427 0.161761
O9    O     O_2   0.750100 0.281282 0.695767 -0.557312
C26   C     C_2   0.185103 0.651524 0.249232 0.631858
H10   H     H_    0.158218 0.627195 0.142383 0.138954
O10   O     O_2   0.259646 0.726183 0.281268 -0.553339
S1    S     S_3+6 0.948104 0.717735 0.235310 0.020372
O11   O     O_2   0.868706 0.636125 0.141444 -0.317098
O12   O     O_2   0.890013 0.812222 0.309939 -0.270768
O13   O     O_3   0.023241 0.798335 0.140993 -0.548977
H11   H     H_    0.972151 0.838727 0.071413 0.410886
S2    S     S_3+6 0.065482 0.415646 0.835501 0.022664
O14   O     O_2   0.077983 0.275320 0.840089 -0.214378
O15   O     O_2   0.173259 0.479553 0.852959 -0.299179
O16   O     O_3   0.006162 0.464390 0.966946 -0.540700
H12   H     H_    0.994147 0.555200 0.952774 0.368365
S3    S     S_3+6 0.616724 0.731589 0.894840 0.088893
O17   O     O_2   0.533648 0.823258 0.843127 -0.253456
O18   O     O_2   0.686002 0.794817 0.015642 -0.256472
O19   O     O_3   0.693581 0.702820 0.775855 -0.519816
H13   H     H_    0.757951 0.665044 0.825257 0.360415
S4    S     S_3+6 0.382469 0.269022 0.105184 0.095507
O20   O     O_2   0.310872 0.208842 0.984598 -0.239547
O21   O     O_2   0.465272 0.175962 0.154098 -0.303402
O22   O     O_3   0.307405 0.298322 0.225978 -0.516131
H14   H     H_    0.286811 0.214226 0.255301 0.377772

loop_
_geom_bond_atom_site_label_1
_geom_bond_atom_site_label_2
_geom_bond_distance
_ccdc_geom_bond_type
S3    O19   1.675531 S    
S4    O21   1.501442 D    
C13   C14   1.416332 A    
C17   H5    1.084414 S    
C22   C24   1.416823 A    
C6    C11   1.384939 A    
C23   S3    1.780411 S    
C15   C20   1.392027 A    
C15   H3    1.083928 S    
C23   N1    1.401184 A    
C3    C6    1.444050 S    
C10   C25   1.491540 S    
S2    O16   1.682023 S    
C8    S2    1.791531 S    
Zn1   N1    2.028609 S    
C11   H2    1.082368 S    
S1    O13   1.682161 S    
O19   H13   0.991264 S    
C7    S1    1.797098 S    
C21   N2    1.346108 A    
C16   H4    1.083939 S    
S4    O20   1.504015 D    
O16   H12   0.990760 S    
C21   H7    1.080715 S    
C25   H9    1.080765 S    
S2    O14   1.502877 D    
C22   H8    1.080727 S    
O7    C3    1.295422 A    
O2    C2    1.283598 A    
O3    Zn2   1.994493 S    
C24   N2    1.400785 A    
C6    C9    1.412315 A    
O1    C1    1.283889 A    
O8    C4    1.292299 A    
C17   C19   1.396369 A    
C26   O10   1.220939 D    
C26   H10   1.084676 S    
C7    C9    1.412057 A    
S2    O15   1.504311 D    
O5    C3    1.294976 A    
C4    C5    1.438816 S    
C8    C10   1.402597 A    
O22   H14   0.990681 S    
C25   O9    1.221395 D    
C11   C13   1.372128 A    
C21   C23   1.416587 A    
C5    C10   1.412453 A    
O2    Zn2   1.968775 S    
C12   C14   1.382738 A    
S4    O22   1.674882 S    
O1    Zn1   1.968774 S    
S3    O17   1.500570 D    
C15   C17   1.372038 A    
C8    C13   1.416894 A    
C7    C14   1.426177 A    
C1    C20   1.406316 S    
C18   C20   1.396241 A    
C16   C18   1.372055 A    
S1    O11   1.503516 D    
C2    C19   1.406322 S    
Zn2   N2    2.028609 S    
O4    C2    1.291008 A    
C5    C12   1.390698 A    
O4    Zn1   1.994493 S    
C24   S4    1.780294 S    
O7    Zn2   2.003546 S    
C9    C26   1.478097 S    
O6    Zn2   1.958623 S    
O5    Zn1   1.958624 S    
O3    C1    1.290719 A    
O13   H11   0.990931 S    
C12   H1    1.078397 S    
S3    O18   1.504461 D    
C22   N1    1.346281 A    
O6    C4    1.296199 A    
C16   C19   1.391990 A    
S1    O12   1.503936 D    
O8    Zn1   2.003545 S    
C18   H6    1.084319 S    
