data_mof_unit_56472.cif
_audit_creation_date              2012-12-11T14:15:26-0500
_audit_creation_method            fapswitch 2.2
_symmetry_space_group_name_H-M    P1
_symmetry_Int_Tables_number       1
_space_group_crystal_system       triclinic
_cell_length_a                    11.096771
_cell_length_b                    12.750185
_cell_length_c                    23.508342
_cell_angle_alpha                 89.787416
_cell_angle_beta                  96.415666
_cell_angle_gamma                 69.029524
_cell_volume                      3082.91930148

loop_
_atom_site_label
_atom_site_type_symbol
_atom_type_description
_atom_site_fract_x
_atom_site_fract_y
_atom_site_fract_z
_atom_type_partial_charge
C1    C     C_R   0.149202 0.616909 0.428793 0.548324
C2    C     C_R   0.639267 0.567921 0.309770 0.017992
C3    C     C_R   0.713761 0.726352 0.316372 -0.150100
C4    C     C_R   0.705335 0.734644 0.256853 -0.010230
C5    C     C_R   0.684484 0.648558 0.224253 -0.005620
C6    C     C_R   0.704046 0.646647 0.166031 0.069708
C7    C     C_R   0.695496 0.838848 0.169223 -0.149794
C8    C     C_R   0.717904 0.827113 0.228995 -0.132144
C9    C     C_1   0.234816 0.162000 0.122593 0.022565
C10   C     C_2   0.178843 0.229427 0.226367 -0.098679
C11   C     C_2   0.155508 0.161335 0.264283 0.004752
C12   C     C_R   0.749127 0.604097 0.403518 0.560402
C13   C     C_1   0.132690 0.197289 0.321593 -0.030676
C14   C     C_1   0.208949 0.195882 0.169263 -0.011532
C15   C     C_1   0.116368 0.231644 0.368987 0.016481
C16   C     C_1   0.165164 0.748372 0.123001 0.039624
C17   C     C_2   0.139971 0.685133 0.227058 -0.108230
C18   C     C_2   0.232426 0.677730 0.270441 -0.078823
C19   C     C_1   0.214576 0.653863 0.328273 0.007577
C20   C     C_1   0.151975 0.718158 0.169843 0.003393
C21   C     C_1   0.192071 0.635700 0.375607 0.048713
C22   C     C_1   0.622670 0.762363 0.864163 0.019557
C23   C     C_R   0.101150 0.282416 0.423464 0.550764
C24   C     C_2   0.664434 0.743066 0.755635 -0.028598
C25   C     C_2   0.654976 0.653841 0.727280 -0.023172
C26   C     C_1   0.673862 0.642525 0.667671 -0.041953
C27   C     C_1   0.647320 0.753213 0.815497 -0.036416
C28   C     C_1   0.700195 0.628435 0.619410 0.011177
C29   C     C_R   0.262648 0.068480 0.839766 -0.014318
C30   C     C_R   0.107403 0.213807 0.637228 -0.000070
C31   C     C_R   0.005839 0.201532 0.721712 -0.093366
C32   C     C_R   0.996399 0.242220 0.666082 -0.146150
C33   C     C_R   0.227230 0.137937 0.662878 -0.003646
C34   C     C_R   0.150526 0.615135 0.590754 0.545313
C35   C     C_R   0.239473 0.107080 0.721052 0.042200
C36   C     C_R   0.127473 0.137196 0.750124 0.057064
C37   C     C_R   0.139545 0.109527 0.808248 -0.129096
C38   C     C_R   0.374962 0.047782 0.811294 -0.037698
C39   C     C_R   0.362312 0.058810 0.752177 -0.131155
C40   C     C_R   0.129434 0.758043 0.849001 -0.029274
C41   C     C_R   0.196491 0.630730 0.649214 -0.015838
C42   C     C_R   0.283336 0.543210 0.743688 -0.017948
C43   C     C_R   0.278372 0.538915 0.684383 -0.129210
C44   C     C_R   0.131474 0.731267 0.672717 -0.097262
C45   C     C_R   0.749480 0.601214 0.565744 0.552088
C46   C     C_R   0.133570 0.740484 0.731448 -0.000184
C47   C     C_R   0.206599 0.643748 0.768608 -0.000869
C48   C     C_R   0.199100 0.653173 0.828295 -0.032451
C49   C     C_R   0.049516 0.847042 0.811327 -0.135305
C50   C     C_R   0.054187 0.841952 0.753047 0.040151
C51   C     C_R   0.265395 0.110194 0.069251 0.562428
C52   C     C_R   0.602569 0.773948 0.080679 0.584491
C53   C     C_R   0.188998 0.787488 0.069552 0.553717
C54   C     C_R   0.273908 0.053690 0.902045 0.555601
C55   C     C_R   0.575035 0.776853 0.918664 0.544088
C56   C     C_R   0.099227 0.277778 0.584745 0.542103
C57   C     C_R   0.163658 0.787967 0.906845 0.533751
C58   C     C_R   0.680829 0.750253 0.137337 -0.003212
C59   C     C_R   0.692021 0.637577 0.343325 -0.029286
C60   C     C_R   0.636038 0.573075 0.249505 0.041962
Cr1   Cr    Cr6+3 0.189770 0.415650 0.511620 1.063378
Cr2   Cr    Cr6+3 0.930400 0.667320 0.496770 1.048950
Cr3   Cr    Cr6+3 0.879870 0.417010 0.491650 1.067314
Cr4   Cr    Cr6+3 0.149500 0.973980 0.985330 1.054912
Cr5   Cr    Cr6+3 0.457000 0.976510 0.994660 1.068035
Cr6   Cr    Cr6+3 0.411170 0.724270 0.995270 1.093337
H1    H     H_    0.052290 0.670571 0.234692 0.132368
H2    H     H_    0.052933 0.129559 0.829676 0.144418
H3    H     H_    0.919588 0.226289 0.743589 0.156699
H4    H     H_    0.449324 0.041802 0.731450 0.150918
H5    H     H_    0.902884 0.299969 0.646550 0.148676
H6    H     H_    0.683368 0.918425 0.148325 0.155232
H7    H     H_    0.992911 0.926823 0.827631 0.179686
H8    H     H_    0.330232 0.460267 0.665630 0.149250
H9    H     H_    0.066000 0.798218 0.644056 0.199867
H10   H     H_    0.731670 0.894910 0.253236 0.138620
H11   H     H_    0.744220 0.785419 0.341670 0.144049
H12   H     H_    0.178136 0.311672 0.238733 0.137164
H13   H     H_    0.319401 0.693657 0.263026 0.165040
O1    O     O_R   0.196340 0.303200 0.448500 -0.501039
O2    O     O_R   0.811960 0.658090 0.547150 -0.485017
O3    O     O_R   0.757930 0.506140 0.547110 -0.508123
O4    O     O_R   0.988670 0.321620 0.556040 -0.508641
O5    O     O_3   0.000020 0.499990 0.500010 -0.267526
O6    O     O_R   0.113660 0.883270 0.047820 -0.499025
O7    O     O_R   0.186930 0.068530 0.043990 -0.483070
O8    O     O_R   0.377770 0.089040 0.054220 -0.495143
O9    O     O_R   0.562800 0.872960 0.056970 -0.511208
O10   O     O_R   0.555390 0.700940 0.062700 -0.443811
O11   O     O_R   0.295020 0.731920 0.049950 -0.478301
O12   O     O_R   0.199310 0.519670 0.454880 -0.482359
O13   O     O_R   0.094290 0.884230 0.921550 -0.526594
O14   O     O_R   0.168980 0.069410 0.926940 -0.497910
O15   O     O_R   0.358400 0.089990 0.927950 -0.479451
O16   O     O_R   0.544850 0.873850 0.939920 -0.509706
O17   O     O_R   0.536020 0.701900 0.936430 -0.485671
O18   O     O_R   0.277070 0.732810 0.932890 -0.490721
O19   O     O_3   0.339220 0.891590 0.991750 -0.299106
O20   O     O_R   0.045660 0.691380 0.441680 -0.511844
O21   O     O_R   0.811930 0.659460 0.430950 -0.507573
O22   O     O_R   0.757900 0.507620 0.421760 -0.471466
O23   O     O_R   0.988630 0.322990 0.439840 -0.485039
O24   O     O_R   0.196380 0.301720 0.573850 -0.500000
O25   O     O_R   0.199350 0.518300 0.571080 -0.501680
O26   O     O_R   0.045700 0.689900 0.567030 -0.511932
C61   C     C_2   0.765664 0.538556 0.137673 0.599091
O27   O     O_2   0.802878 0.448705 0.165133 -0.492148
O28   O     O_R   0.791875 0.539905 0.080875 -0.680567
H14   H     H_    0.836866 0.461762 0.067164 0.346219
C62   C     C_1   0.639502 0.560375 0.756611 0.208326
N1    N     N_1   0.628099 0.485342 0.780231 -0.265290
C63   C     C_1   0.679729 0.836042 0.725886 0.209760
N2    N     N_1   0.690888 0.910263 0.701443 -0.222206
C64   C     C_1   0.503105 0.029514 0.840474 0.258862
N3    N     N_1   0.605861 0.017011 0.863011 -0.242463
C65   C     C_1   0.337320 0.095821 0.630215 0.219911
N4    N     N_1   0.424958 0.062128 0.604214 -0.254773
C66   C     C_1   0.256381 0.558072 0.869272 0.237389
N5    N     N_1   0.301167 0.483016 0.902513 -0.242368
C67   C     C_1   0.363966 0.440201 0.775640 0.229010
N6    N     N_1   0.428775 0.356942 0.800499 -0.225708
C68   C     C_2   0.979516 0.947180 0.717205 0.562353
O29   O     O_2   0.876372 0.011528 0.730763 -0.496382
O30   O     O_R   0.029272 0.976294 0.669991 -0.718623
H15   H     H_    0.963426 0.042624 0.646143 0.346683
C69   C     C_2   0.562726 0.516191 0.212121 0.598855
O31   O     O_2   0.581299 0.416716 0.220543 -0.432843
O32   O     O_R   0.474382 0.577083 0.165908 -0.705151
H16   H     H_    0.431362 0.529879 0.143131 0.345028
C70   C     C_2   0.584517 0.493357 0.337869 0.612896
O33   O     O_2   0.500631 0.533245 0.369407 -0.532776
O34   O     O_R   0.635309 0.377214 0.331775 -0.625444
H17   H     H_    0.591717 0.335670 0.354094 0.340294
C71   C     C_1   0.156257 0.050926 0.249950 0.239792
N7    N     N_1   0.156891 0.962581 0.238442 -0.297364

loop_
_geom_bond_atom_site_label_1
_geom_bond_atom_site_label_2
_ccdc_geom_bond_type
C1    C21   S    
C69   O31   D    
C57   O13   A    
C6    C58   A    
C70   O34   S    
C35   C36   A    
C24   C63   S    
C24   C27   S    
Cr3   O22   S    
O32   H16   S    
C1    O20   A    
C64   N3    T    
C10   H12   S    
C7    C8    A    
Cr6   O11   S    
Cr2   O26   S    
O28   H14   S    
Cr5   O9    S    
Cr6   O18   S    
C36   C37   A    
Cr1   O24   S    
Cr5   O19   S    
C5    C6    A    
C38   C64   S    
C2    C60   A    
C23   O23   A    
C61   O27   D    
Cr1   O1    S    
C40   C49   A    
C37   H2    S    
C8    H10   S    
C17   C20   S    
C65   N4    T    
C18   C19   S    
C66   N5    T    
C54   O14   A    
C2    C70   S    
C16   C53   S    
C12   C59   S    
C45   O3    A    
C18   H13   S    
C9    C51   S    
C29   C38   A    
C23   O1    A    
Cr6   O10   S    
C7    C58   A    
C5    C60   A    
C4    C8    A    
C43   H8    S    
C15   C23   S    
C1    O12   A    
C41   C43   A    
C52   O10   A    
C34   C41   S    
Cr3   O23   S    
C51   O7    A    
Cr4   O7    S    
C63   N2    T    
C44   C46   A    
Cr5   O8    S    
C32   H5    S    
C28   C45   S    
C17   H1    S    
C54   O15   A    
Cr3   O3    S    
C47   C48   A    
C52   O9    A    
Cr1   O25   S    
C24   C25   D    
C55   O16   A    
C10   C14   S    
C11   C71   S    
C51   O8    A    
C7    H6    S    
C2    C59   A    
C55   O17   A    
C48   C66   S    
C25   C26   S    
C30   C56   S    
C34   O25   A    
C62   N1    T    
Cr3   O4    S    
C44   H9    S    
C35   C39   A    
C9    C14   T    
C31   C32   A    
Cr5   O16   S    
C16   C20   T    
C57   O18   A    
C17   C18   D    
C6    C61   S    
C22   C55   S    
C52   C58   S    
C25   C62   S    
Cr2   O21   S    
Cr5   O15   S    
Cr2   O2    S    
C22   C27   T    
C13   C15   T    
C41   C44   A    
C49   H7    S    
C42   C43   A    
Cr4   O13   S    
C68   O30   S    
C3    C4    A    
C3    H11   S    
Cr4   O6    S    
C67   N6    T    
C56   O4    A    
Cr6   O17   S    
C40   C48   A    
Cr2   O5    S    
C46   C47   A    
C33   C65   S    
C69   O32   S    
C40   C57   S    
C30   C33   A    
C19   C21   T    
C34   O26   A    
C45   O2    A    
C56   O24   A    
C4    C5    A    
Cr1   O5    S    
Cr4   O14   S    
C71   N7    T    
C46   C50   A    
C26   C28   T    
Cr3   O5    S    
Cr6   O19   S    
C60   C69   S    
C70   O33   D    
C12   O22   A    
C30   C32   A    
C11   C13   S    
C42   C67   S    
C38   C39   A    
C61   O28   S    
Cr4   O19   S    
C33   C35   A    
C39   H4    S    
O34   H17   S    
C42   C47   A    
C12   O21   A    
C10   C11   D    
Cr2   O20   S    
C31   H3    S    
C50   C68   S    
C49   C50   A    
C29   C54   S    
C29   C37   A    
C53   O11   A    
C31   C36   A    
C53   O6    A    
C68   O29   D    
Cr1   O12   S    
O30   H15   S    
C3    C59   A    
