data_mof_unit_7362.cif
_audit_creation_date              2012-10-26T18:27:31-0400
_audit_creation_method            fapswitch 2.2
_symmetry_space_group_name_H-M    P1
_symmetry_Int_Tables_number       1
_space_group_crystal_system       triclinic
_cell_length_a                    10.784458
_cell_length_b                    10.843909
_cell_length_c                    9.82838
_cell_angle_alpha                 108.253885
_cell_angle_beta                  100.143291
_cell_angle_gamma                 90.944414
_cell_volume                      1071.3263902

loop_
_atom_site_label
_atom_site_type_symbol
_atom_type_description
_atom_site_fract_x
_atom_site_fract_y
_atom_site_fract_z
_atom_type_partial_charge
C1    C     C_R   0.488030 0.254257 0.444636 0.620967
C2    C     C_2   0.411034 0.927308 0.485641 0.284046
C3    C     C_2   0.495578 0.522306 0.079420 0.148776
C4    C     C_R   0.261902 0.506298 0.500485 0.568162
C5    C     C_2   0.487085 0.489218 0.917719 0.011595
C6    C     C_R   0.503521 0.745938 0.555424 0.564738
C7    C     C_R   0.736295 0.482437 0.498584 0.592564
C8    C     C_R   0.153083 0.635860 0.761645 -0.108456
C9    C     C_R   0.117648 0.652164 0.895073 -0.143511
C10   C     C_R   0.011914 0.579800 0.902548 0.069878
C11   C     C_R   0.933768 0.501454 0.771573 0.259835
C12   C     C_R   0.080316 0.550305 0.631696 -0.011413
C13   C     C_R   0.959173 0.503487 0.634960 0.000136
C14   C     C_2   0.549616 0.653912 0.168473 0.659430
C15   C     C_2   0.986071 0.586901 0.047809 0.640677
C16   C     C_2   0.835693 0.324362 0.231104 0.610270
C17   C     C_R   0.126079 0.505309 0.499917 0.017664
C18   C     C_R   0.043949 0.434026 0.370625 -0.103399
C19   C     C_R   0.916024 0.410343 0.368606 0.008372
C20   C     C_R   0.870856 0.457364 0.500783 0.009243
C21   C     C_2   0.480533 0.115353 0.423619 0.236422
C22   C     C_2   0.413212 0.065575 0.500523 0.213874
C23   C     C_2   0.494823 0.885006 0.576663 -0.072785
Cl1   Cl    Cl    0.573202 0.020285 0.306027 -0.515610
Cl2   Cl    Cl    0.832305 0.373269 0.777132 -0.451679
Cl3   Cl    Cl    0.287600 0.824889 0.354520 -0.449538
Cl4   Cl    Cl    0.313338 0.159156 0.610891 -0.573230
Cu1   Cu    Cu3+1 0.521920 0.521810 0.644910 1.075218
Cu2   Cu    Cu3+1 0.478080 0.478190 0.355090 1.116185
H1    H     H_    0.080566 0.392552 0.271452 0.195660
H2    H     H_    0.685789 0.193085 0.136054 0.368818
H3    H     H_    0.419748 0.411132 0.844688 0.182914
H4    H     H_    0.621291 0.626473 0.931482 0.263886
H5    H     H_    0.405859 0.356017 0.066769 0.222038
H6    H     H_    0.237595 0.690864 0.761400 0.175264
H7    H     H_    0.176666 0.716733 0.993417 0.208779
H8    H     H_    0.559433 0.954343 0.666551 0.108572
H9    H     H_    0.693942 0.768858 0.314466 0.364111
H10   H     H_    0.858398 0.578720 0.171219 0.370299
N1    N     N_2   0.445130 0.445430 0.137370 -0.357200
N2    N     N_2   0.554930 0.554500 0.862630 -0.318617
O1    O     O_R   0.511700 0.332330 0.577400 -0.465812
O2    O     O_R   0.666630 0.673307 0.262294 -0.677596
O3    O     O_2   0.073337 0.608523 0.152192 -0.467073
O4    O     O_R   0.862169 0.571844 0.066918 -0.626506
O5    O     O_2   0.863133 0.315744 0.113071 -0.448657
O6    O     O_R   0.732326 0.247773 0.236570 -0.621632
O7    O     O_R   0.474680 0.295500 0.332650 -0.469843
O8    O     O_R   0.338160 0.518420 0.622400 -0.514765
O9    O     O_R   0.301140 0.481590 0.377650 -0.475551
O10   O     O_R   0.525320 0.704500 0.667350 -0.500869
O11   O     O_R   0.488300 0.667670 0.422600 -0.436601
O12   O     O_R   0.698860 0.518410 0.622350 -0.468670
O13   O     O_R   0.661840 0.481580 0.377600 -0.450172
O14   O     O_2   0.493756 0.746745 0.152250 -0.439210

loop_
_geom_bond_atom_site_label_1
_geom_bond_atom_site_label_2
_ccdc_geom_bond_type
C12   C17   A    
C2    C22   S    
C9    H7    S    
Cu1   O12   S    
C1    O7    A    
C1    C21   S    
C18   H1    S    
C6    O10   A    
C9    C10   A    
Cu1   N2    S    
C19   C20   A    
C7    O13   A    
C8    C12   A    
C4    O8    A    
H10   O4    S    
C5    H3    S    
H4    N2    S    
C17   C18   A    
C8    C9    A    
H9    O2    S    
C2    Cl3   S    
H2    O6    S    
C21   C22   D    
C11   C13   A    
C3    C14   S    
C16   C19   S    
H5    N1    S    
C6    C23   S    
Cu2   N1    S    
Cu1   O1    S    
Cu1   Cu2   S    
Cu1   O8    S    
C3    N1    D    
C14   O14   D    
Cu2   O9    S    
C22   Cl4   S    
Cu2   O11   S    
Cu1   O10   S    
Cu2   O13   S    
C7    O12   A    
Cu2   O7    S    
C11   Cl2   S    
C1    O1    A    
C12   C13   A    
C16   O6    S    
C7    C20   S    
C10   C11   A    
C21   Cl1   S    
C16   O5    D    
C2    C23   D    
C15   O3    D    
C18   C19   A    
C5    N2    D    
C13   C20   A    
C6    O11   A    
C10   C15   S    
C23   H8    S    
C8    H6    S    
C4    O9    A    
C14   O2    S    
C3    C5    S    
C15   O4    S    
C4    C17   S    
