data_mof_unit_65255.cif
_audit_creation_date              2012-12-10T18:14:41-0500
_audit_creation_method            fapswitch 2.2
_symmetry_space_group_name_H-M    P1
_symmetry_Int_Tables_number       1
_space_group_crystal_system       triclinic
_cell_length_a                    18.373052
_cell_length_b                    18.372862
_cell_length_c                    36.242188
_cell_angle_alpha                 90.000313
_cell_angle_beta                  89.999815
_cell_angle_gamma                 89.999547
_cell_volume                      12234.1140855

loop_
_atom_site_label
_atom_site_type_symbol
_atom_type_description
_atom_site_fract_x
_atom_site_fract_y
_atom_site_fract_z
_atom_type_partial_charge
C1    C     C_R   0.565922 0.992054 0.480710 0.037752
C2    C     C_R   0.933585 0.503950 0.019332 0.096748
C3    C     C_R   0.803691 0.696309 0.750000 0.006129
C4    C     C_R   0.696310 0.196309 0.250000 0.006565
C5    C     C_R   0.303690 0.803691 0.750000 0.006217
C6    C     C_R   0.803690 0.696308 0.250001 0.006339
C7    C     C_R   0.196309 0.303691 0.750000 0.006000
C8    C     C_R   0.303691 0.196309 0.750000 0.006029
C9    C     C_R   0.696308 0.803690 0.250000 0.006352
C10   C     C_R   0.196308 0.696310 0.750000 0.006213
C11   C     C_R   0.803691 0.303690 0.249999 0.006549
C12   C     C_R   0.696309 0.803691 0.750000 0.006102
C13   C     C_R   0.493377 0.065823 0.980495 0.097643
C14   C     C_R   0.303691 0.196309 0.250000 0.006476
C15   C     C_R   0.803692 0.303690 0.750001 0.006010
C16   C     C_R   0.196309 0.696310 0.249999 0.006280
C17   C     C_R   0.506690 0.933657 0.019359 0.098808
C18   C     C_R   0.933585 0.503950 0.980668 0.096724
C19   C     C_R   0.066415 0.496045 0.019332 0.096772
C20   C     C_R   0.506698 0.933579 0.980693 0.069904
C21   C     C_R   0.493353 0.066067 0.019290 0.037861
C22   C     C_1   0.499960 0.000012 0.421537 -0.071481
C23   C     C_1   0.499918 0.000018 0.578459 -0.018604
C24   C     C_1   0.999978 0.500039 0.421537 -0.071372
C25   C     C_R   0.433724 0.008010 0.519307 0.069814
C26   C     C_1   0.999968 0.500080 0.578459 -0.018520
C27   C     C_1   1.000000 0.499998 0.921533 -0.072919
C28   C     C_1   0.000000 0.499998 0.078467 -0.072987
C29   C     C_1   0.500014 0.999919 0.921541 -0.018558
C30   C     C_1   0.500009 0.999960 0.078463 -0.071387
C31   C     C_1   0.000000 0.499999 0.111639 -0.146644
C32   C     C_1   1.000000 0.499999 0.888361 -0.146365
C33   C     C_1   0.500004 0.999991 0.111636 -0.148581
C34   C     C_1   0.500004 0.999989 0.888367 -0.141081
C35   C     C_1   0.499989 0.000006 0.611633 -0.141287
C36   C     C_R   0.985430 0.565071 0.480641 0.098811
C37   C     C_1   0.499991 0.000005 0.388364 -0.148967
C38   C     C_1   0.999989 0.500011 0.611633 -0.141353
C39   C     C_1   0.999990 0.500009 0.388364 -0.148959
C40   C     C_R   0.000000 0.500001 0.348944 0.822548
C41   C     C_R   0.000001 0.500000 0.651055 0.819156
C42   C     C_R   0.499999 1.000000 0.348944 0.822634
C43   C     C_R   0.500000 0.999999 0.651056 0.819061
C44   C     C_R   0.499999 1.000000 0.848944 0.819059
C45   C     C_R   0.500000 0.999999 0.151056 0.822766
C46   C     C_R   1.000000 0.500000 0.848943 0.822361
C47   C     C_R   0.014420 0.435436 0.519505 0.097556
C48   C     C_R   0.000000 0.500000 0.151057 0.822421
C49   C     C_R   0.140204 0.359796 0.250000 0.787933
C50   C     C_R   0.859796 0.640204 0.750000 0.788185
C51   C     C_R   0.640204 0.140204 0.250000 0.788044
C52   C     C_R   0.359796 0.859796 0.750000 0.788548
C53   C     C_R   0.859796 0.640204 0.250000 0.787999
C54   C     C_R   0.140204 0.359796 0.750000 0.788218
C55   C     C_R   0.359796 0.859796 0.250000 0.788159
C56   C     C_R   0.640204 0.140204 0.750000 0.787722
C57   C     C_R   0.140204 0.640204 0.750000 0.788461
C58   C     C_R   0.433802 0.008000 0.480641 0.098711
C59   C     C_R   0.859796 0.359796 0.250000 0.788022
C60   C     C_R   0.640204 0.859796 0.750000 0.788106
C61   C     C_R   0.359796 0.140204 0.250000 0.787929
C62   C     C_R   0.859796 0.359795 0.750000 0.788009
C63   C     C_R   0.140204 0.640204 0.250000 0.788201
C64   C     C_R   0.359796 0.140204 0.750000 0.788149
C65   C     C_R   0.640204 0.859796 0.250000 0.788032
C66   C     C_R   0.256682 0.689921 0.226563 -0.189489
C67   C     C_R   0.743311 0.310086 0.773432 -0.189338
C68   C     C_R   0.310060 0.256663 0.226550 -0.189850
C69   C     C_R   0.565679 0.992084 0.519505 0.097557
C70   C     C_R   0.689936 0.743333 0.773447 -0.189404
C71   C     C_R   0.743319 0.310077 0.226562 -0.189707
C72   C     C_R   0.256683 0.689920 0.773435 -0.189245
C73   C     C_R   0.689940 0.743336 0.226550 -0.189522
C74   C     C_R   0.310068 0.256672 0.773444 -0.188372
C75   C     C_R   0.256671 0.310069 0.773444 -0.189387
C76   C     C_R   0.743336 0.689939 0.226550 -0.189497
C77   C     C_R   0.310080 0.743316 0.773435 -0.189260
C78   C     C_R   0.689923 0.256681 0.226563 -0.189751
C79   C     C_R   0.743333 0.689936 0.773447 -0.189263
C80   C     C_R   0.014474 0.435198 0.480710 0.037810
C81   C     C_R   0.256663 0.310060 0.226550 -0.189752
C82   C     C_R   0.689915 0.256689 0.773432 -0.188542
C83   C     C_R   0.310078 0.743318 0.226563 -0.189469
C84   C     C_R   0.756691 0.189912 0.726570 -0.188676
C85   C     C_R   0.243317 0.810080 0.273436 -0.189591
C86   C     C_R   0.810064 0.756667 0.726553 -0.189612
C87   C     C_R   0.189941 0.243338 0.273451 -0.189982
C88   C     C_R   0.243315 0.810082 0.726566 -0.189353
C89   C     C_R   0.756682 0.189921 0.273436 -0.189990
C90   C     C_R   0.189933 0.243329 0.726555 -0.188417
C91   C     C_R   0.985412 0.565147 0.519307 0.069914
C92   C     C_R   0.810059 0.756663 0.273451 -0.189849
C93   C     C_R   0.756662 0.810060 0.273451 -0.189874
C94   C     C_R   0.243330 0.189932 0.726555 -0.189567
C95   C     C_R   0.810078 0.243318 0.273436 -0.189948
C96   C     C_R   0.189919 0.756685 0.726566 -0.189322
C97   C     C_R   0.243338 0.189941 0.273451 -0.189872
C98   C     C_R   0.756668 0.810064 0.726553 -0.188434
C99   C     C_R   0.189920 0.756684 0.273435 -0.189540
C100  C     C_R   0.810087 0.243309 0.726570 -0.188738
C101  C     C_R   0.499899 0.000022 0.461287 -0.000912
C102  C     C_R   0.066414 0.496045 0.980667 0.096744
C103  C     C_R   0.499734 0.000043 0.538717 0.010220
C104  C     C_R   0.999961 0.500098 0.461287 -0.000884
C105  C     C_R   0.999923 0.500260 0.538718 0.010257
C106  C     C_R   1.000000 0.499997 0.961281 -0.030821
C107  C     C_R   0.000000 0.499997 0.038719 -0.030829
C108  C     C_R   0.500034 0.999734 0.961282 0.010104
C109  C     C_R   0.500017 0.999899 0.038713 -0.001065
C110  C     C_R   0.303690 0.803691 0.249999 0.006277
C111  C     C_R   0.696310 0.196308 0.750001 0.006012
C112  C     C_R   0.196310 0.303692 0.250000 0.006478
H1    H     H_    0.262727 0.643748 0.208236 0.162141
H2    H     H_    0.737307 0.643781 0.208212 0.162173
H3    H     H_    0.356254 0.737269 0.791761 0.162180
H4    H     H_    0.643751 0.262725 0.208235 0.161952
H5    H     H_    0.737299 0.643775 0.791783 0.162260
H6    H     H_    0.262693 0.356217 0.208212 0.162036
H7    H     H_    0.643736 0.262741 0.791754 0.162968
H8    H     H_    0.356251 0.737272 0.208237 0.162172
H9    H     H_    0.762743 0.143733 0.708248 0.162937
H10   H     H_    0.237271 0.856253 0.291762 0.162011
H11   H     H_    0.856225 0.762700 0.708218 0.162173
H12   H     H_    0.737260 0.356265 0.791754 0.162348
H13   H     H_    0.143784 0.237309 0.291789 0.161831
H14   H     H_    0.237268 0.856256 0.708240 0.162053
H15   H     H_    0.762726 0.143749 0.291764 0.161724
H16   H     H_    0.143769 0.237292 0.708222 0.162926
H17   H     H_    0.856216 0.762693 0.291789 0.161947
H18   H     H_    0.762692 0.856217 0.291789 0.161853
H19   H     H_    0.237294 0.143768 0.708222 0.162194
H20   H     H_    0.856250 0.237273 0.291763 0.161737
H21   H     H_    0.143744 0.762732 0.708241 0.162069
H22   H     H_    0.237308 0.143784 0.291789 0.161931
H23   H     H_    0.356217 0.262692 0.208212 0.161955
H24   H     H_    0.762701 0.856225 0.708218 0.162924
H25   H     H_    0.143747 0.762729 0.291762 0.162027
H26   H     H_    0.856266 0.237257 0.708248 0.162884
H27   H     H_    0.133987 0.445807 0.055374 0.191438
H28   H     H_    0.139468 0.537910 0.055375 0.192435
H29   H     H_    0.860533 0.462084 0.944625 0.192106
H30   H     H_    0.866012 0.554187 0.944626 0.192093
H31   H     H_    0.532201 0.140770 0.055346 0.199014
H32   H     H_    0.440384 0.131524 0.055345 0.198238
H33   H     H_    0.559657 0.868090 0.944670 0.189454
H34   H     H_    0.643775 0.737300 0.791782 0.162232
H35   H     H_    0.467864 0.858846 0.944669 0.190240
H36   H     H_    0.860533 0.462083 0.055376 0.191945
H37   H     H_    0.866013 0.554187 0.055375 0.192079
H38   H     H_    0.133987 0.445807 0.944625 0.191600
H39   H     H_    0.139467 0.537910 0.944624 0.192459
H40   H     H_    0.559643 0.868263 0.055435 0.190821
H41   H     H_    0.467842 0.859018 0.055436 0.191584
H42   H     H_    0.437800 0.157675 0.968052 0.201361
H43   H     H_    0.529517 0.166915 0.968052 0.201702
H44   H     H_    0.656416 0.934706 0.531948 0.201367
H45   H     H_    0.737275 0.356249 0.208235 0.162035
H46   H     H_    0.667461 0.026223 0.531948 0.201029
H47   H     H_    0.369468 0.062233 0.444564 0.190116
H48   H     H_    0.358415 0.970632 0.444563 0.191489
H49   H     H_    0.925013 0.623857 0.555328 0.188471
H50   H     H_    0.015048 0.643987 0.555331 0.190486
H51   H     H_    0.984821 0.356386 0.444654 0.198843
H52   H     H_    0.074879 0.376522 0.444658 0.197676
H53   H     H_    0.369295 0.062251 0.555330 0.188903
H54   H     H_    0.358242 0.970657 0.555332 0.190173
H55   H     H_    0.641375 0.029422 0.444654 0.198531
H56   H     H_    0.262730 0.643745 0.791761 0.162209
H57   H     H_    0.630320 0.937804 0.444655 0.198234
H58   H     H_    0.080564 0.350870 0.531949 0.201033
H59   H     H_    0.990608 0.330749 0.531948 0.201246
H60   H     H_    0.925049 0.623686 0.444566 0.189660
H61   H     H_    0.015091 0.643818 0.444564 0.191796
H62   H     H_    0.643782 0.737305 0.208212 0.162192
H63   H     H_    0.356232 0.262709 0.791777 0.163003
H64   H     H_    0.262707 0.356233 0.791777 0.162337
N1    N     N_3   0.134607 0.491985 0.038516 -0.423681
N2    N     N_3   0.366018 0.016181 0.461423 -0.423242
N3    N     N_3   0.970499 0.631835 0.538469 -0.424220
N4    N     N_3   0.029381 0.368539 0.461507 -0.469065
N5    N     N_3   0.365885 0.016198 0.538470 -0.424167
N6    N     N_3   0.633733 0.983869 0.461506 -0.468989
N7    N     N_3   0.029096 0.369822 0.539644 -0.440462
N8    N     N_3   0.970530 0.631704 0.461424 -0.423312
N9    N     N_3   0.865393 0.508008 0.961484 -0.423336
N10   N     N_3   0.486507 0.134027 0.038495 -0.468499
N11   N     N_3   0.513546 0.865590 0.961530 -0.423058
N12   N     N_3   0.865393 0.508008 0.038517 -0.423389
N13   N     N_3   0.134607 0.491986 0.961483 -0.423627
N14   N     N_3   0.513532 0.865723 0.038576 -0.422085
N15   N     N_3   0.486638 0.132718 0.960356 -0.440036
N16   N     N_3   0.632427 0.984027 0.539644 -0.440266
O1    O     O_3   0.000000 0.500000 0.250000 -0.475223
O2    O     O_R   0.000000 0.560700 0.668450 -0.641677
O3    O     O_R   0.560700 0.000000 0.331550 -0.638706
O4    O     O_R   0.439300 0.000000 0.668450 -0.641846
O5    O     O_R   0.500000 0.060700 0.831550 -0.631251
O6    O     O_R   0.500000 0.939300 0.168450 -0.638693
O7    O     O_R   0.939300 0.500000 0.831550 -0.638669
O8    O     O_R   0.060700 0.500000 0.168450 -0.638687
O9    O     O_R   0.500000 0.939300 0.831550 -0.641791
O10   O     O_R   0.500000 0.060700 0.168450 -0.638617
O11   O     O_R   0.060700 0.500000 0.831550 -0.638715
O12   O     O_3   1.000000 0.500000 0.750000 -0.476010
O13   O     O_R   0.939300 0.500000 0.168450 -0.638654
O14   O     O_R   0.085400 0.353840 0.271430 -0.648518
O15   O     O_R   0.914600 0.646160 0.728570 -0.648413
O16   O     O_R   0.646160 0.085400 0.271430 -0.648452
O17   O     O_R   0.353840 0.914600 0.728570 -0.648227
O18   O     O_R   0.914600 0.646160 0.271430 -0.648457
O19   O     O_R   0.085400 0.353840 0.728570 -0.647597
O20   O     O_R   0.353840 0.914600 0.271430 -0.648335
O21   O     O_R   0.646160 0.085400 0.728570 -0.648018
O22   O     O_R   0.085400 0.646160 0.728570 -0.648179
O23   O     O_3   0.500000 0.000000 0.250000 -0.475207
O24   O     O_R   0.914600 0.353840 0.271430 -0.648433
O25   O     O_R   0.646160 0.914600 0.728570 -0.647636
O26   O     O_R   0.353840 0.085400 0.271430 -0.648422
O27   O     O_R   0.914600 0.353840 0.728570 -0.647880
O28   O     O_R   0.085400 0.646160 0.271430 -0.648293
O29   O     O_R   0.353840 0.085400 0.728570 -0.648584
O30   O     O_R   0.646160 0.914600 0.271430 -0.648485
O31   O     O_R   0.585400 0.853840 0.771430 -0.648525
O32   O     O_R   0.414600 0.146160 0.228570 -0.648438
O33   O     O_R   0.146160 0.585400 0.771430 -0.648271
O34   O     O_3   0.500000 1.000000 0.750000 -0.476607
O35   O     O_R   0.853840 0.414600 0.228570 -0.648338
O36   O     O_R   0.414600 0.146160 0.771430 -0.647611
O37   O     O_R   0.585400 0.853840 0.228570 -0.648306
O38   O     O_R   0.853840 0.414600 0.771430 -0.648473
O39   O     O_R   0.146160 0.585400 0.228570 -0.648309
O40   O     O_R   0.585400 0.146160 0.228570 -0.648373
O41   O     O_R   0.414600 0.853840 0.771430 -0.648185
O42   O     O_R   0.146160 0.414600 0.228570 -0.648354
O43   O     O_R   0.853840 0.585400 0.771430 -0.648291
O44   O     O_R   0.414600 0.853840 0.228570 -0.648282
O45   O     O_R   0.000000 0.560700 0.331550 -0.638778
O46   O     O_R   0.585400 0.146160 0.771430 -0.647969
O47   O     O_R   0.853840 0.585400 0.228570 -0.648309
O48   O     O_R   0.146160 0.414600 0.771430 -0.648522
O49   O     O_R   0.000000 0.439300 0.668450 -0.631366
O50   O     O_R   0.439300 0.000000 0.331550 -0.638830
O51   O     O_R   0.560700 0.000000 0.668450 -0.631292
O52   O     O_R   0.000000 0.439300 0.331550 -0.638683
Zn1   Zn    Zn3+2 0.086700 0.500000 0.219560 0.968058
Zn2   Zn    Zn3+2 0.413300 1.000000 0.280440 0.967795
Zn3   Zn    Zn3+2 0.000000 0.586700 0.719560 0.967602
Zn4   Zn    Zn3+2 1.000000 0.413300 0.280440 0.967563
Zn5   Zn    Zn3+2 0.413300 0.000000 0.719560 0.967464
Zn6   Zn    Zn3+2 0.586700 1.000000 0.280440 0.967600
Zn7   Zn    Zn3+2 0.000000 0.413300 0.719560 0.973052
Zn8   Zn    Zn3+2 1.000000 0.586700 0.280440 0.967857
Zn9   Zn    Zn3+2 0.913300 0.500000 0.780440 0.968076
Zn10  Zn    Zn3+2 0.500000 0.086700 0.219560 0.967819
Zn11  Zn    Zn3+2 0.500000 0.913300 0.780440 0.967614
Zn12  Zn    Zn3+2 0.913300 0.500000 0.219560 0.968058
Zn13  Zn    Zn3+2 0.086700 0.500000 0.780440 0.968277
Zn14  Zn    Zn3+2 0.500000 0.913300 0.219560 0.968142
Zn15  Zn    Zn3+2 0.500000 0.086700 0.780440 0.973017
Zn16  Zn    Zn3+2 0.586700 0.000000 0.719560 0.972920

loop_
_geom_bond_atom_site_label_1
_geom_bond_atom_site_label_2
_ccdc_geom_bond_type
C63   O28   A    
O34   Zn5   S    
H42   N15   S    
C88   C96   A    
C89   C95   A    
C66   H1    S    
C1    C101  A    
H58   N7    S    
C2    C18   A    
C87   H13   S    
C33   C45   S    
C91   C105  A    
O49   Zn7   S    
O6    Zn14  S    
C15   C100  A    
O5    Zn15  S    
O38   Zn9   S    
C3    C79   A    
C67   H12   S    
C102  N13   S    
C72   H56   S    
O36   Zn15  S    
O32   Zn10  S    
C21   N10   S    
H32   N10   S    
H44   N16   S    
C49   O42   A    
C22   C101  S    
C47   C80   A    
H33   N11   S    
C85   C99   A    
C68   C81   A    
C80   N4    S    
O23   Zn14  S    
C56   O46   A    
C46   O7    A    
O42   Zn1   S    
C19   C102  A    
C11   C71   A    
H55   N6    S    
C28   C107  S    
O3    Zn6   S    
C98   H24   S    
C2    C107  A    
C37   C42   S    
C24   C39   T    
C51   O16   A    
C69   N16   S    
O1    Zn8   S    
C73   H62   S    
C88   H14   S    
C55   O20   A    
O12   Zn7   S    
O1    Zn4   S    
C23   C103  S    
H61   N8    S    
C45   O10   A    
C62   O38   A    
C91   N3    S    
C48   O13   A    
O23   Zn6   S    
H40   N14   S    
C81   C112  A    
C29   C108  S    
O22   Zn3   S    
C36   N8    S    
C16   C63   S    
O48   Zn13  S    
H49   N3    S    
C59   O35   A    
C87   C97   A    
C55   O44   A    
C56   C111  S    
C12   C98   A    
H52   N4    S    
C82   C111  A    
O51   Zn16  S    
C57   O33   A    
C50   O15   A    
C22   C37   T    
C70   C79   A    
C44   O5    A    
C30   C33   T    
O27   Zn7   S    
C3    C86   A    
C5    C88   A    
C53   O47   A    
O39   Zn1   S    
H54   N5    S    
C9    C73   A    
C82   H7    S    
C13   C108  A    
C11   C59   S    
H43   N15   S    
C26   C105  S    
O18   Zn8   S    
C65   O30   A    
C3    C50   S    
C25   N5    S    
C52   O41   A    
C90   C94   A    
C2    N12   S    
H41   N14   S    
C69   C103  A    
C19   C107  A    
C67   C82   A    
C71   H45   S    
C78   H4    S    
C84   C111  A    
C74   C75   A    
C4    C51   S    
C13   C21   A    
C84   C100  A    
O1    Zn12  S    
C85   H10   S    
C10   C57   S    
O40   Zn10  S    
C61   O26   A    
O43   Zn9   S    
C38   C41   S    
C58   N2    S    
C85   C110  A    
C53   O18   A    
O34   Zn16  S    
C39   C40   S    
O41   Zn11  S    
C59   O24   A    
C26   C38   T    
C7    C75   A    
C87   C112  A    
O47   Zn12  S    
C27   C106  S    
C43   O51   A    
C84   H9    S    
O9    Zn11  S    
C14   C61   S    
C29   C34   T    
C42   O50   A    
O23   Zn10  S    
C1    C69   A    
O52   Zn4   S    
C20   N11   S    
C43   O4    A    
C24   C104  S    
C83   H8    S    
O4    Zn5   S    
O14   Zn4   S    
C18   C106  A    
C4    C78   A    
C72   C77   A    
H27   N1    S    
H46   N16   S    
O12   Zn13  S    
H60   N8    S    
C76   H2    S    
C90   H16   S    
C41   O2    A    
C10   C96   A    
H37   N12   S    
C15   C67   A    
C8    C74   A    
H28   N1    S    
H50   N3    S    
C83   C110  A    
C34   C44   S    
O46   Zn15  S    
O45   Zn8   S    
C58   C101  A    
O50   Zn2   S    
C57   O22   A    
C95   H20   S    
O25   Zn16  S    
C47   N7    S    
H48   N2    S    
C56   O21   A    
C40   O52   A    
O13   Zn12  S    
C100  H26   S    
C8    C64   S    
C49   C112  S    
C70   H34   S    
O30   Zn6   S    
C36   C91   A    
O20   Zn2   S    
C54   O19   A    
C86   H11   S    
C80   C104  A    
C23   C35   T    
O2    Zn3   S    
O28   Zn8   S    
O21   Zn16  S    
C52   O17   A    
H31   N10   S    
C16   C66   A    
C25   C58   A    
C6    C53   S    
C97   H22   S    
C93   H18   S    
C60   O31   A    
C9    C93   A    
C64   O36   A    
C35   C43   S    
C8    C94   A    
C54   O48   A    
C14   C97   A    
C63   O39   A    
C4    C89   A    
C89   H15   S    
C11   C95   A    
H30   N9    S    
C19   N1    S    
C30   C109  S    
O34   Zn11  S    
O1    Zn1   S    
C5    C52   S    
C51   O40   A    
H59   N7    S    
C32   C46   S    
C17   C20   A    
C28   C31   T    
C25   C103  A    
O29   Zn5   S    
O15   Zn3   S    
O8    Zn1   S    
C21   C109  A    
C1    N6    S    
C16   C99   A    
C6    C76   A    
C96   H21   S    
C66   C83   A    
C17   N14   S    
O24   Zn4   S    
O35   Zn12  S    
C18   N9    S    
O44   Zn14  S    
C94   H19   S    
C13   N15   S    
C65   O37   A    
C31   C48   S    
H35   N11   S    
C62   O27   A    
O26   Zn2   S    
C92   H17   S    
C45   O6    A    
C61   O32   A    
H53   N5    S    
C74   H63   S    
C55   C110  S    
C77   H3    S    
C60   O25   A    
O37   Zn14  S    
H38   N13   S    
O12   Zn9   S    
C7    C90   A    
C40   O45   A    
C36   C104  A    
O10   Zn10  S    
C17   C109  A    
C68   H23   S    
C6    C92   A    
C46   O11   A    
C79   H5    S    
C92   C93   A    
C73   C76   A    
C15   C62   S    
C64   O29   A    
C102  C106  A    
C12   C70   A    
C81   H6    S    
O34   Zn15  S    
C50   O43   A    
C86   C98   A    
C9    C65   S    
H57   N6    S    
O12   Zn3   S    
C27   C32   T    
O33   Zn13  S    
C12   C60   S    
O16   Zn6   S    
O31   Zn11  S    
H36   N12   S    
H39   N13   S    
H29   N9    S    
C49   O14   A    
C48   O8    A    
O23   Zn2   S    
C41   O49   A    
H51   N4    S    
C47   C105  A    
C14   C68   A    
C99   H25   S    
O7    Zn9   S    
H47   N2    S    
C7    C54   S    
O19   Zn7   S    
C44   O9    A    
C75   H64   S    
C5    C77   A    
C71   C78   A    
O11   Zn13  S    
O17   Zn5   S    
C42   O3    A    
C20   C108  A    
C10   C72   A    
