data_mof_unit_41643.cif
_audit_creation_date              2012-12-11T14:52:25-0500
_audit_creation_method            fapswitch 2.2
_symmetry_space_group_name_H-M    P1
_symmetry_Int_Tables_number       1
_space_group_crystal_system       triclinic
_cell_length_a                    19.206943
_cell_length_b                    11.142533
_cell_length_c                    18.832404
_cell_angle_alpha                 90.105043
_cell_angle_beta                  90.968583
_cell_angle_gamma                 90.613372
_cell_volume                      4029.58305852

loop_
_atom_site_label
_atom_site_type_symbol
_atom_type_description
_atom_site_fract_x
_atom_site_fract_y
_atom_site_fract_z
_atom_type_partial_charge
C1    C     C_R   0.272095 0.042681 0.853446 0.562937
C2    C     C_R   0.727305 0.043107 0.146071 0.567858
C3    C     C_R   0.772089 0.542647 0.853531 0.557234
C4    C     C_R   0.227340 0.542883 0.146026 0.568892
C5    C     C_3   0.557214 0.794876 0.965093 -0.026759
C6    C     C_3   0.516711 0.715350 0.016533 0.006619
C7    C     C_3   0.057220 0.297653 0.966242 -0.032921
C8    C     C_3   0.017683 0.216003 0.017307 0.004588
C9    C     C_R   0.305583 0.545538 0.963407 -0.103048
C10   C     C_R   0.699815 0.536542 0.038364 -0.108673
C11   C     C_R   0.804926 0.044823 0.963501 -0.097049
C12   C     C_R   0.200175 0.037152 0.038158 -0.113697
C13   C     C_R   0.303684 0.544467 0.037961 -0.054573
C14   C     C_R   0.701840 0.520776 0.965198 -0.092685
C15   C     C_R   0.803427 0.045900 0.038074 -0.053655
C16   C     C_R   0.202064 0.021236 0.965057 -0.099215
C17   C     C_R   0.243403 0.583172 0.072435 0.053361
C18   C     C_R   0.752369 0.584086 0.925190 0.038623
C19   C     C_R   0.743024 0.083976 0.072485 0.052112
C20   C     C_R   0.252336 0.084520 0.924902 0.037016
C21   C     C_R   0.189126 0.635125 0.030508 -0.037882
C22   C     C_R   0.796859 0.667952 0.960466 0.025248
C23   C     C_R   0.688315 0.135043 0.030515 -0.033351
C24   C     C_R   0.296577 0.169135 0.959668 0.063469
C25   C     C_R   0.186977 0.613610 0.956885 -0.037594
C26   C     C_R   0.804660 0.658697 0.034616 -0.045040
C27   C     C_R   0.686360 0.113679 0.956829 -0.039155
C28   C     C_R   0.304599 0.160948 0.033922 -0.026732
C29   C     C_R   0.248709 0.584805 0.922682 0.037281
C30   C     C_R   0.750827 0.602756 0.073760 -0.015030
C31   C     C_R   0.748192 0.084371 0.922683 0.036843
C32   C     C_R   0.250912 0.104293 0.073346 -0.015702
C33   C     C_R   0.552027 0.788801 0.551042 0.047412
C34   C     C_R   0.568383 0.799860 0.478867 -0.023374
C35   C     C_R   0.052027 0.288800 0.551041 0.047123
C36   C     C_R   0.068383 0.299862 0.478866 -0.023223
C37   C     C_R   0.516719 0.833926 0.428758 0.018637
C38   C     C_R   0.491517 0.843475 0.573725 0.026406
C39   C     C_R   0.016719 0.333925 0.428757 0.018851
C40   C     C_R   0.991516 0.343472 0.573724 0.025556
C41   C     C_R   0.457991 0.892901 0.452707 -0.003961
C42   C     C_R   0.453956 0.916991 0.525531 -0.090425
C43   C     C_R   0.957988 0.392892 0.452707 -0.003773
C44   C     C_R   0.953953 0.416984 0.525530 -0.090217
C45   C     C_R   0.468757 0.822598 0.855596 0.545022
C46   C     C_R   0.531620 0.819856 0.144065 0.604915
C47   C     C_R   0.968788 0.322325 0.855676 0.533048
C48   C     C_R   0.030669 0.320049 0.144532 0.600547
C49   C     C_R   0.188923 0.570852 0.546584 -0.037524
C50   C     C_R   0.796387 0.680746 0.473873 -0.003162
C51   C     C_R   0.688922 0.070851 0.546585 -0.037518
C52   C     C_R   0.296387 0.180748 0.473873 -0.003227
C53   C     C_R   0.178923 0.586010 0.474350 -0.077376
C54   C     C_R   0.784491 0.677805 0.546384 -0.052906
C55   C     C_R   0.678922 0.086010 0.474350 -0.077248
C56   C     C_R   0.284491 0.177805 0.546385 -0.052959
C57   C     C_R   0.237316 0.580272 0.428375 -0.018018
C58   C     C_R   0.748323 0.580553 0.574769 -0.036443
C59   C     C_R   0.737316 0.080271 0.428376 -0.018043
C60   C     C_R   0.248323 0.080552 0.574769 -0.035557
C61   C     C_R   0.305502 0.587435 0.455080 -0.061985
C62   C     C_R   0.709887 0.499075 0.529811 -0.067446
C63   C     C_R   0.805501 0.087433 0.455080 -0.062069
C64   C     C_R   0.209889 0.999073 0.529810 -0.067067
C65   C     C_R   0.315965 0.580528 0.529008 -0.042894
C66   C     C_R   0.720324 0.502858 0.456396 -0.055114
C67   C     C_R   0.815964 0.080526 0.529008 -0.042716
C68   C     C_R   0.220326 0.002859 0.456396 -0.055432
C69   C     C_R   0.256196 0.582854 0.573893 -0.031071
C70   C     C_R   0.758563 0.598388 0.428072 -0.041082
C71   C     C_R   0.756196 0.082853 0.573893 -0.031119
C72   C     C_R   0.258563 0.098390 0.428072 -0.041160
C73   C     C_R   0.260238 0.634899 0.850996 0.560526
C74   C     C_R   0.739451 0.638635 0.147781 0.575958
C75   C     C_R   0.760147 0.134778 0.851003 0.557005
C76   C     C_R   0.239418 0.139190 0.147567 0.577985
C77   C     C_R   0.270923 0.043469 0.645603 0.540808
C78   C     C_R   0.725524 0.042173 0.355595 0.514888
C79   C     C_R   0.770923 0.543469 0.645603 0.546147
C80   C     C_R   0.225525 0.542173 0.355595 0.514500
C81   C     C_R   0.465771 0.825033 0.645337 0.548655
C82   C     C_R   0.531509 0.823343 0.353280 0.577023
C83   C     C_R   0.965772 0.325033 0.645337 0.553323
C84   C     C_R   0.031508 0.323343 0.353280 0.575890
C85   C     C_R   0.261932 0.638234 0.643390 0.594242
C86   C     C_R   0.741998 0.636711 0.355581 0.543738
C87   C     C_R   0.761932 0.138234 0.643390 0.594347
C88   C     C_R   0.241998 0.136712 0.355581 0.544261
C89   C     C_3   0.443199 0.861233 0.034096 -0.027772
C90   C     C_3   0.483699 0.939763 0.981952 -0.030391
C91   C     C_3   0.940903 0.356984 0.033653 -0.022574
C92   C     C_3   0.980499 0.437636 0.981984 -0.021906
C93   C     C_3   0.447662 0.755041 0.981900 -0.181198
C94   C     C_3   0.553114 0.901470 0.017486 -0.148628
C95   C     C_3   0.948224 0.251328 0.981799 -0.187510
C96   C     C_3   0.050438 0.404615 0.018277 -0.092311
C97   C     C_3   0.489376 0.833829 0.930247 0.015213
C98   C     C_3   0.511262 0.821694 0.069030 0.055849
C99   C     C_3   0.988909 0.332172 0.930657 -0.031692
C100  C     C_3   0.009650 0.322198 0.069572 0.060279
Cr1   Cr    Cr6+3 0.229630 0.835900 0.747350 1.043778
Cr2   Cr    Cr6+3 0.770370 0.835900 0.252650 1.075834
Cr3   Cr    Cr6+3 0.729630 0.335900 0.747350 1.043578
Cr4   Cr    Cr6+3 0.270370 0.335900 0.252650 1.072287
Cr5   Cr    Cr6+3 0.387410 0.989850 0.750850 1.116016
Cr6   Cr    Cr6+3 0.612590 0.989850 0.249150 1.110827
Cr7   Cr    Cr6+3 0.887410 0.489850 0.750850 1.066612
Cr8   Cr    Cr6+3 0.112590 0.489850 0.249150 1.119968
Cr9   Cr    Cr6+3 0.385800 0.677120 0.749340 1.044041
Cr10  Cr    Cr6+3 0.614200 0.677120 0.250660 1.139048
Cr11  Cr    Cr6+3 0.885800 0.177120 0.749340 1.045389
Cr12  Cr    Cr6+3 0.114200 0.177120 0.250660 1.139928
H1    H     H_    0.403188 0.699054 0.965004 0.115371
H2    H     H_    0.596828 0.960068 0.034852 0.129336
H3    H     H_    0.905504 0.192428 0.963900 0.117983
H4    H     H_    0.092286 0.466965 0.035917 0.144874
H5    H     H_    0.353383 0.523180 0.937001 0.132038
H6    H     H_    0.660101 0.492760 0.068799 0.230981
H7    H     H_    0.852499 0.021212 0.937066 0.137085
H8    H     H_    0.160835 0.992613 0.068715 0.230044
O1    O     O_R   0.214270 0.709000 0.827470 -0.496953
O2    O     O_R   0.785730 0.709000 0.172530 -0.513298
O3    O     O_R   0.714270 0.209000 0.827470 -0.505697
O4    O     O_R   0.285730 0.209000 0.172530 -0.514992
O5    O     O_R   0.445950 0.919440 0.676520 -0.535563
O6    O     O_R   0.554050 0.919440 0.323480 -0.491015
O7    O     O_R   0.945950 0.419440 0.676520 -0.531586
O8    O     O_R   0.054050 0.419440 0.323480 -0.491771
O9    O     O_R   0.456730 0.717630 0.669840 -0.506975
O10   O     O_R   0.543270 0.717630 0.330160 -0.490909
O11   O     O_R   0.956730 0.217630 0.669840 -0.505645
O12   O     O_R   0.043270 0.217630 0.330160 -0.491001
O13   O     O_R   0.320620 0.625640 0.672920 -0.536056
O14   O     O_R   0.679380 0.625640 0.327080 -0.480354
O15   O     O_R   0.820620 0.125640 0.672920 -0.535971
O16   O     O_R   0.179380 0.125640 0.327080 -0.479998
O17   O     O_3   0.334280 0.834290 0.749180 -0.294058
O18   O     O_3   0.665720 0.834290 0.250820 -0.323399
O19   O     O_3   0.834280 0.334290 0.749180 -0.285507
O20   O     O_3   0.165720 0.334290 0.250820 -0.324364
O21   O     O_R   0.236160 0.958490 0.823130 -0.533438
O22   O     O_R   0.763840 0.958490 0.176870 -0.518371
O23   O     O_R   0.736160 0.458490 0.823130 -0.524183
O24   O     O_R   0.263840 0.458490 0.176870 -0.521485
O25   O     O_R   0.332080 0.075470 0.831280 -0.435857
O26   O     O_R   0.667920 0.075470 0.168720 -0.468188
O27   O     O_R   0.832080 0.575470 0.831280 -0.505058
O28   O     O_R   0.167920 0.575470 0.168720 -0.461151
O29   O     O_R   0.446300 0.918110 0.826620 -0.442380
O30   O     O_R   0.553700 0.918110 0.173380 -0.501124
O31   O     O_R   0.946300 0.418110 0.826620 -0.512530
O32   O     O_R   0.053700 0.418110 0.173380 -0.494437
O33   O     O_R   0.457110 0.716200 0.831760 -0.542647
O34   O     O_R   0.542890 0.716200 0.168240 -0.454869
O35   O     O_R   0.957110 0.216200 0.831760 -0.527051
O36   O     O_R   0.042890 0.216200 0.168240 -0.456816
O37   O     O_R   0.320980 0.624310 0.823030 -0.493884
O38   O     O_R   0.679020 0.624310 0.176970 -0.468123
O39   O     O_R   0.820980 0.124310 0.823030 -0.491929
O40   O     O_R   0.179020 0.124310 0.176970 -0.466574
O41   O     O_R   0.213890 0.710430 0.665540 -0.483659
O42   O     O_R   0.786110 0.710430 0.334460 -0.467446
O43   O     O_R   0.713890 0.210430 0.665540 -0.483710
O44   O     O_R   0.286110 0.210430 0.334460 -0.467425
O45   O     O_R   0.235810 0.959820 0.673020 -0.523510
O46   O     O_R   0.764190 0.959820 0.326980 -0.515368
O47   O     O_R   0.735810 0.459820 0.673020 -0.521151
O48   O     O_R   0.264190 0.459820 0.326980 -0.515543
O49   O     O_R   0.331700 0.076900 0.669350 -0.501270
O50   O     O_R   0.668300 0.076900 0.330650 -0.511216
O51   O     O_R   0.831700 0.576900 0.669350 -0.497950
O52   O     O_R   0.168300 0.576900 0.330650 -0.511241
C101  C     C_2   0.128811 0.545625 0.594228 0.238952
H9    H     H_    0.076258 0.567511 0.578257 0.152272
O53   O     O_2   0.137585 0.497048 0.651744 -0.514205
C102  C     C_2   0.844866 0.777247 0.448732 0.386403
H10   H     H_    0.841338 0.865968 0.470417 0.099611
O54   O     O_2   0.891374 0.756692 0.407053 -0.369307
C103  C     C_2   0.628810 0.045626 0.594229 0.239074
H11   H     H_    0.576258 0.067514 0.578259 0.152419
O55   O     O_2   0.637585 0.997049 0.651745 -0.514830
C104  C     C_2   0.344864 0.277251 0.448733 0.386386
H12   H     H_    0.341336 0.365972 0.470418 0.099646
O56   O     O_2   0.391372 0.256698 0.407054 -0.369766
C105  C     C_2   0.107369 0.614672 0.449495 0.279561
H13   H     H_    0.077663 0.552907 0.417324 0.175146
O57   O     O_2   0.080441 0.708375 0.467199 -0.427418
C106  C     C_2   0.811584 0.774366 0.594582 0.200453
H14   H     H_    0.776604 0.819178 0.630391 0.126452
O58   O     O_2   0.873859 0.796645 0.598389 -0.498339
C107  C     C_2   0.607369 0.114672 0.449496 0.279486
H15   H     H_    0.577663 0.052909 0.417323 0.175231
O59   O     O_2   0.580441 0.208376 0.467200 -0.427456
C108  C     C_2   0.311583 0.274367 0.594584 0.200420
H16   H     H_    0.276603 0.319175 0.630395 0.126298
O60   O     O_2   0.373858 0.296647 0.598391 -0.497533
C109  C     C_3   0.365839 0.603790 0.404529 -0.304349
H17   H     H_    0.398036 0.681416 0.421483 0.164902
H18   H     H_    0.398215 0.522016 0.403017 0.207141
H19   H     H_    0.349067 0.626043 0.349549 0.139325
C110  C     C_3   0.654421 0.413377 0.556878 -0.299441
H20   H     H_    0.606493 0.420831 0.523658 0.224168
H21   H     H_    0.673574 0.320346 0.554338 0.178320
H22   H     H_    0.635637 0.434203 0.610591 0.151263
C111  C     C_3   0.865838 0.103786 0.404529 -0.304287
H23   H     H_    0.898038 0.181409 0.421483 0.164918
H24   H     H_    0.898213 0.022010 0.403016 0.207245
H25   H     H_    0.849067 0.126042 0.349549 0.139370
C112  C     C_3   0.154423 0.913375 0.556877 -0.299426
H26   H     H_    0.106496 0.920827 0.523657 0.224049
H27   H     H_    0.173576 0.820343 0.554338 0.178267
H28   H     H_    0.135638 0.934202 0.610590 0.151220
C113  C     C_2   0.387759 0.558615 0.558822 0.289148
H29   H     H_    0.394772 0.511716 0.608521 0.199233
O61   O     O_2   0.440522 0.588970 0.528282 -0.520222
C114  C     C_2   0.689592 0.410815 0.407859 0.272170
H30   H     H_    0.723319 0.347514 0.381829 0.109838
O62   O     O_2   0.627338 0.409948 0.393751 -0.412773
C115  C     C_2   0.887759 0.058612 0.558822 0.288958
H31   H     H_    0.894771 0.011715 0.608521 0.198822
O63   O     O_2   0.940521 0.088964 0.528281 -0.520369
C116  C     C_2   0.189595 0.910815 0.407858 0.272342
H32   H     H_    0.223323 0.847520 0.381825 0.109938
O64   O     O_2   0.127341 0.909942 0.393751 -0.412256
C117  C     C_2   0.376441 0.888469 0.069956 0.187986
H33   H     H_    0.329688 0.901102 0.038036 0.113362
O65   O     O_2   0.373833 0.893453 0.134572 -0.483901
C118  C     C_2   0.471514 0.068213 0.967505 0.236644
H34   H     H_    0.486029 0.131802 0.008068 0.152119
O66   O     O_2   0.450345 0.102913 0.909997 -0.445299
C119  C     C_2   0.873400 0.381573 0.068813 0.187496
H35   H     H_    0.826824 0.393188 0.036441 0.105506
O67   O     O_2   0.870076 0.385919 0.133398 -0.483084
C120  C     C_2   0.960153 0.559489 0.960139 0.228055
H36   H     H_    0.919964 0.571411 0.920877 0.142622
O68   O     O_2   0.988399 0.646369 0.987122 -0.486054
C121  C     C_2   0.620028 0.766466 0.923310 0.220479
H37   H     H_    0.618133 0.694316 0.884693 0.111455
O69   O     O_2   0.672884 0.826784 0.931026 -0.497427
C122  C     C_2   0.528714 0.584099 0.024278 0.192633
H38   H     H_    0.524119 0.528685 0.977183 0.100039
O70   O     O_2   0.538076 0.537519 0.082082 -0.468307
C123  C     C_2   0.121100 0.270692 0.925887 0.214038
H39   H     H_    0.120267 0.199789 0.886434 0.115750
O71   O     O_2   0.173851 0.330229 0.936157 -0.510646
C124  C     C_2   0.030483 0.084943 0.024926 0.196678
H40   H     H_    0.026443 0.030001 0.977639 0.102819
O72   O     O_2   0.039159 0.037848 0.082684 -0.464842
C125  C     C_3   0.369959 0.522696 0.079015 -0.321037
H41   H     H_    0.386353 0.605662 0.107761 0.163955
H42   H     H_    0.365747 0.448289 0.117141 0.225946
H43   H     H_    0.410976 0.497031 0.042201 0.183269
C126  C     C_3   0.650446 0.434391 0.932646 -0.336546
H44   H     H_    0.621898 0.475833 0.887383 0.146608
H45   H     H_    0.679049 0.354573 0.915862 0.214591
H46   H     H_    0.611826 0.402763 0.971341 0.165783
C127  C     C_3   0.870301 0.028498 0.079030 -0.320520
H47   H     H_    0.886288 0.113865 0.105364 0.163312
H48   H     H_    0.867186 0.957653 0.119520 0.225249
H49   H     H_    0.911232 0.000904 0.042512 0.182493
C128  C     C_3   0.150994 0.934460 0.932529 -0.337000
H50   H     H_    0.122648 0.975510 0.886984 0.149791
H51   H     H_    0.180084 0.854817 0.916355 0.215085
H52   H     H_    0.112126 0.902944 0.970847 0.158702
C129  C     C_2   0.139149 0.720692 0.061552 0.252743
H53   H     H_    0.088607 0.734164 0.037953 0.214076
O73   O     O_2   0.156053 0.783084 0.112494 -0.473500
C130  C     C_2   0.833662 0.764037 0.919922 0.297508
H54   H     H_    0.883576 0.800200 0.936834 0.169044
O74   O     O_2   0.807278 0.805489 0.865948 -0.463037
C131  C     C_2   0.636215 0.216458 0.062059 0.250713
H55   H     H_    0.583896 0.221832 0.041045 0.150034
O75   O     O_2   0.652709 0.282923 0.111288 -0.469836
C132  C     C_2   0.330968 0.267060 0.918375 0.350820
H56   H     H_    0.379744 0.307831 0.934868 0.171655
O76   O     O_2   0.303592 0.305284 0.864045 -0.473324
C133  C     C_2   0.121164 0.612496 0.914448 0.270079
H57   H     H_    0.105083 0.530642 0.887315 0.156420
O77   O     O_2   0.088129 0.703535 0.903725 -0.504122
C134  C     C_2   0.871604 0.690552 0.071236 0.278428
H58   H     H_    0.891311 0.632787 0.113168 0.185988
O78   O     O_2   0.904452 0.781038 0.057535 -0.518548
C135  C     C_2   0.620906 0.116540 0.913799 0.237865
H59   H     H_    0.608921 0.042568 0.877904 0.175058
O79   O     O_2   0.583243 0.203717 0.913086 -0.533675
C136  C     C_2   0.371859 0.193375 0.070102 0.207875
H60   H     H_    0.389784 0.140519 0.115034 0.183966
O80   O     O_2   0.408201 0.277073 0.051484 -0.585996
C137  C     C_3   0.600759 0.727152 0.603116 -0.328725
H61   H     H_    0.585021 0.734024 0.659204 0.164510
H62   H     H_    0.602565 0.631193 0.589233 0.145947
H63   H     H_    0.653504 0.767499 0.601737 0.126737
C138  C     C_3   0.640570 0.777729 0.456584 -0.379689
H64   H     H_    0.644183 0.680432 0.458556 0.183436
H65   H     H_    0.652427 0.811969 0.403031 0.141416
H66   H     H_    0.678592 0.823016 0.492683 0.092430
C139  C     C_3   0.100760 0.227150 0.603111 -0.329084
H67   H     H_    0.085009 0.233966 0.659195 0.164534
H68   H     H_    0.102590 0.131206 0.589207 0.145853
H69   H     H_    0.153496 0.267530 0.601752 0.126781
C140  C     C_3   0.140570 0.277728 0.456582 -0.379629
H70   H     H_    0.144179 0.180430 0.458544 0.183409
H71   H     H_    0.152428 0.311983 0.403033 0.141261
H72   H     H_    0.178592 0.323000 0.492687 0.092446
C141  C     C_2   0.400682 0.931066 0.404643 0.278645
H73   H     H_    0.349032 0.933825 0.425598 0.084212
O81   O     O_2   0.409881 0.957299 0.342593 -0.441840
C142  C     C_2   0.439791 0.042717 0.545571 0.210945
H74   H     H_    0.428806 0.069809 0.598510 0.207434
O82   O     O_2   0.449419 0.122837 0.503082 -0.407224
C143  C     C_2   0.900676 0.431049 0.404643 0.278622
H75   H     H_    0.849028 0.433818 0.425602 0.084316
O83   O     O_2   0.909870 0.457260 0.342589 -0.442729
C144  C     C_2   0.939789 0.542710 0.545568 0.211126
H76   H     H_    0.928801 0.569804 0.598506 0.207872
O84   O     O_2   0.949420 0.622830 0.503079 -0.407223

loop_
_geom_bond_atom_site_label_1
_geom_bond_atom_site_label_2
_ccdc_geom_bond_type
C108  O60   D    
C55   C59   A    
C110  H21   S    
Cr3   O3    S    
C26   C134  S    
Cr11  O19   S    
Cr7   O51   S    
C140  H70   S    
C7    C99   S    
C90   C118  S    
C52   C104  S    
C67   C115  S    
C5    C6    S    
C95   C99   S    
C131  H55   S    
C4    O28   A    
C132  H56   S    
C139  H68   S    
C109  H18   S    
C9    C13   A    
C104  H12   S    
C11   C15   A    
C86   O14   A    
C12   C16   A    
C91   C100  S    
C15   C127  S    
C111  H24   S    
C46   C98   S    
C49   C69   A    
C40   C83   S    
C120  O68   D    
C49   C101  S    
C118  H34   S    
C63   C67   A    
C113  O61   D    
C25   C29   A    
C48   C100  S    
Cr9   O13   S    
C107  H15   S    
C28   C32   A    
C3    O23   A    
C61   C109  S    
Cr1   O17   S    
C144  H76   S    
C17   C21   A    
Cr4   O20   S    
C55   C107  S    
C15   C19   A    
C43   C44   A    
C62   C110  S    
C83   O11   A    
C52   C72   A    
C10   C30   A    
C81   O9    A    
C16   C20   A    
Cr5   O49   S    
C58   C79   S    
C130  O74   D    
C73   O1    A    
C38   C81   S    
C80   O52   A    
C126  H45   S    
C140  H72   S    
C1    C20   S    
Cr12  O40   S    
C2    C19   S    
C68   C116  S    
Cr3   O23   S    
C4    O24   A    
C51   C71   A    
C57   C61   A    
C13   C125  S    
C59   C63   A    
C33   C38   A    
Cr5   O5    S    
C60   C64   A    
C35   C40   A    
C50   C70   A    
Cr7   O7    S    
C136  O80   D    
C66   C70   A    
C66   C114  S    
C49   C53   A    
C51   C55   A    
C22   C26   A    
C61   C65   A    
C96   H4    S    
C79   O47   A    
Cr11  O35   S    
C80   O48   A    
Cr8   O28   S    
C84   O8    A    
C3    O27   A    
Cr6   O30   S    
Cr12  O20   S    
C1    O25   A    
Cr9   O37   S    
C112  H28   S    
C7    C8    S    
C24   C132  S    
C125  H41   S    
Cr10  O34   S    
C64   C68   A    
C114  O62   D    
C39   C84   S    
C128  H50   S    
C30   C74   S    
C105  O57   D    
C115  O63   D    
C77   O45   A    
C73   O37   A    
C78   O50   A    
C47   C99   S    
C106  O58   D    
C127  H47   S    
C141  O81   D    
Cr7   O31   S    
C28   C136  S    
Cr2   O46   S    
C121  H37   S    
Cr6   O50   S    
C57   C80   S    
C8    C95   S    
Cr12  O16   S    
C51   C103  S    
C59   C78   S    
C142  O82   D    
C33   C34   A    
C101  O53   D    
C62   C66   A    
C76   O4    A    
C134  H58   S    
C10   C14   A    
C91   C92   S    
C88   O44   A    
C84   O12   A    
C91   C119  S    
C138  H64   S    
C112  H26   S    
Cr8   O8    S    
C116  O64   D    
C129  O73   D    
C56   C108  S    
C16   C128  S    
Cr11  O11   S    
C5    C97   S    
C26   C30   A    
C143  O83   D    
Cr9   O9    S    
C2    O22   A    
Cr10  O14   S    
C93   C97   S    
C69   C85   S    
C21   C25   A    
C124  H40   S    
C125  H43   S    
C81   O5    A    
C18   C22   A    
C36   C39   A    
C24   C28   A    
C83   O7    A    
C32   C76   S    
C128  H52   S    
Cr4   O4    S    
C13   C17   A    
C89   C98   S    
C127  H49   S    
C133  O77   D    
C8    C100  S    
Cr8   O52   S    
C96   C100  S    
C122  H38   S    
C139  H69   S    
C132  O76   D    
C37   C41   A    
C109  H17   S    
C104  O56   D    
Cr5   O17   S    
C40   C44   A    
Cr12  O36   S    
C135  H59   S    
Cr2   O22   S    
Cr7   O19   S    
C92   C99   S    
C58   C62   A    
C34   C37   A    
C85   O41   A    
C41   C42   A    
C35   C36   A    
C118  O66   D    
C5    C94   S    
C113  H29   S    
Cr3   O47   S    
C7    C96   S    
C23   C131  S    
C50   C54   A    
C5    C121  S    
C6    C98   S    
C138  H66   S    
C94   C98   S    
C144  O84   D    
C123  H39   S    
C137  H63   S    
C110  H20   S    
C79   O51   A    
Cr11  O39   S    
C82   O6    A    
Cr8   O32   S    
Cr9   O33   S    
C90   C97   S    
Cr10  O38   S    
C108  H16   S    
C48   O36   A    
C8    C124  S    
C54   C106  S    
C90   C94   S    
C140  H71   S    
C46   O34   A    
C78   O46   A    
C74   O38   A    
C87   O15   A    
C36   C140  S    
C88   O16   A    
C115  H31   S    
C53   C57   A    
C101  H9    S    
C27   C31   A    
Cr1   O1    S    
C56   C60   A    
C42   C142  S    
C68   C72   A    
C109  H19   S    
C107  O59   D    
C126  H46   S    
Cr7   O27   S    
Cr8   O20   S    
C31   C75   S    
Cr10  O18   S    
Cr2   O42   S    
C6    C93   S    
Cr5   O25   S    
C119  O67   D    
C93   H1    S    
Cr12  O12   S    
Cr1   O45   S    
C71   C87   S    
C4    C17   S    
C74   O2    A    
C47   O31   A    
C48   O32   A    
C64   C112  S    
C45   O33   A    
C120  H36   S    
C89   C117  S    
C33   C137  S    
Cr6   O6    S    
Cr11  O15   S    
C105  H13   S    
C126  H44   S    
C65   C69   A    
C41   C141  S    
Cr10  O10   S    
C67   C71   A    
C1    O21   A    
C103  H11   S    
C130  H54   S    
C141  H73   S    
C63   C111  S    
C137  H62   S    
C89   C90   S    
Cr2   O2    S    
C85   O13   A    
C87   O43   A    
C143  H75   S    
C135  O79   D    
C9    H5    S    
C139  H67   S    
C14   C18   A    
C19   C23   A    
C92   C96   S    
C11   H7    S    
C94   H2    S    
C111  H23   S    
C65   C113  S    
C75   O3    A    
C43   C143  S    
C134  O78   D    
C38   C42   A    
C27   C135  S    
C136  H60   S    
Cr6   O18   S    
C29   C73   S    
C3    C18   S    
C50   C102  S    
Cr2   O18   S    
C92   C120  S    
C53   C105  S    
C117  O65   D    
C12   H8    S    
Cr1   O21   S    
C20   C24   A    
C95   H3    S    
C123  O71   D    
Cr4   O24   S    
C86   O42   A    
C23   C27   A    
C82   O10   A    
C129  H53   S    
C21   C129  S    
C11   C31   A    
C12   C32   A    
C89   C93   S    
C72   C88   S    
C35   C139  S    
C124  O72   D    
C60   C77   S    
C125  H42   S    
C114  H30   S    
C25   C133  S    
C128  H51   S    
C39   C43   A    
C6    C122  S    
C106  H14   S    
C127  H48   S    
C10   H6    S    
Cr3   O19   S    
Cr4   O48   S    
C34   C138  S    
C122  O70   D    
C117  H33   S    
C102  H10   S    
C46   O30   A    
C121  O69   D    
C110  H22   S    
C70   C86   S    
C142  H74   S    
C137  H61   S    
C54   C58   A    
C111  H25   S    
C75   O39   A    
C131  O75   D    
C76   O40   A    
C44   C144  S    
C9    C29   A    
C2    O26   A    
Cr5   O29   S    
Cr3   O43   S    
Cr6   O26   S    
Cr9   O17   S    
Cr1   O41   S    
C138  H65   S    
C45   C97   S    
Cr4   O44   S    
C14   C126  S    
C47   O35   A    
C102  O54   D    
C112  H27   S    
C45   O29   A    
C116  H32   S    
C37   C82   S    
C22   C130  S    
C91   C95   S    
C77   O49   A    
C7    C123  S    
C119  H35   S    
C133  H57   S    
C52   C56   A    
C103  O55   D    
