data_mof_unit_6921.cif
_audit_creation_date              2012-12-10T18:19:51-0500
_audit_creation_method            fapswitch 2.2
_symmetry_space_group_name_H-M    P1
_symmetry_Int_Tables_number       1
_space_group_crystal_system       triclinic
_cell_length_a                    14.917996
_cell_length_b                    14.009948
_cell_length_c                    14.150974
_cell_angle_alpha                 90.106933
_cell_angle_beta                  90.356638
_cell_angle_gamma                 90.930164
_cell_volume                      2957.10574892

loop_
_atom_site_label
_atom_site_type_symbol
_atom_type_description
_atom_site_fract_x
_atom_site_fract_y
_atom_site_fract_z
_atom_type_partial_charge
C1    C     C_R   0.326930 0.499295 0.499159 0.873343
C2    C     C_R   0.953188 0.602285 0.358799 0.443200
C3    C     C_R   0.557430 0.798887 0.442488 -0.012173
C4    C     C_R   0.442507 0.201217 0.557640 -0.003826
C5    C     C_R   0.442597 0.797011 0.557559 -0.001641
C6    C     C_R   0.557139 0.202933 0.442338 -0.003427
C7    C     C_R   0.441291 0.897789 0.559585 -0.108958
C8    C     C_R   0.559463 0.102242 0.441577 -0.101024
C9    C     C_R   0.558315 0.899720 0.440070 -0.094704
C10   C     C_R   0.440107 0.100330 0.558689 -0.099153
C11   C     C_R   0.499807 0.949446 0.499920 -0.055059
C12   C     C_R   0.673233 0.500658 0.499878 0.876310
C13   C     C_R   0.499712 0.050592 0.499994 -0.060219
C14   C     C_R   0.383238 0.947595 0.619979 0.336367
C15   C     C_R   0.620145 0.052612 0.384218 0.363784
C16   C     C_R   0.615716 0.951487 0.379208 0.352752
C17   C     C_R   0.379708 0.048529 0.616459 0.373335
C18   C     C_R   0.499910 0.499984 0.328992 0.894659
C19   C     C_R   0.499645 0.500116 0.671001 0.892159
C20   C     C_1   0.499235 0.500203 0.227585 -0.204444
C21   C     C_1   0.498596 0.500539 0.772389 -0.212691
C22   C     C_1   0.498527 0.500812 0.142380 -0.004374
C23   C     C_R   0.953789 0.504942 0.503225 -0.001911
C24   C     C_1   0.497867 0.501088 0.857582 -0.010901
C25   C     C_1   0.497802 0.501410 0.042576 0.008690
C26   C     C_1   0.497553 0.501503 0.957377 0.008199
C27   C     C_R   0.814047 0.554561 0.433072 -0.218408
C28   C     C_R   0.186524 0.450460 0.569046 -0.244524
C29   C     C_R   0.768663 0.502203 0.501059 -0.059248
C30   C     C_R   0.231796 0.498084 0.498036 -0.053866
C31   C     C_R   0.813349 0.451131 0.570209 -0.228032
C32   C     C_R   0.187442 0.547642 0.427818 -0.212703
C33   C     C_R   0.906736 0.454371 0.575058 -0.012695
C34   C     C_R   0.047106 0.504091 0.501645 -0.010378
C35   C     C_R   0.094169 0.551229 0.427594 -0.005021
C36   C     C_2   0.906278 0.353793 0.724306 0.410063
C37   C     C_2   0.094671 0.644102 0.273661 0.425631
C38   C     C_3   0.099410 0.429179 0.801589 0.145343
C39   C     C_3   0.189339 0.483507 0.806917 -0.426638
C40   C     C_3   0.199877 0.538173 0.899789 -0.897961
C41   C     C_3   0.904097 0.746667 0.307335 0.088452
C42   C     C_3   0.878289 0.799246 0.216926 -0.254085
C43   C     C_3   0.888380 0.907025 0.229138 -0.978397
C44   C     C_3   0.370605 0.883831 0.766882 0.088427
C45   C     C_R   0.907030 0.554534 0.431534 0.004906
C46   C     C_3   0.314896 0.814613 0.826871 -0.320408
C47   C     C_3   0.360827 0.794431 0.921274 -0.966837
C48   C     C_3   0.767353 0.100048 0.367863 0.099877
C49   C     C_3   0.785647 0.186856 0.431695 -0.381132
C50   C     C_3   0.882757 0.189869 0.466302 -0.918109
C51   C     C_3   0.636269 0.907892 0.224466 0.116427
C52   C     C_3   0.586316 0.814751 0.199383 -0.390495
C53   C     C_3   0.558825 0.812029 0.095360 -0.942102
C54   C     C_3   0.232639 0.088360 0.641101 0.129582
C55   C     C_3   0.207465 0.178328 0.586458 -0.386650
C56   C     C_R   0.093870 0.454681 0.573385 0.006679
C57   C     C_3   0.108653 0.176595 0.557807 -0.876892
C58   C     C_R   0.953891 0.406875 0.647985 -0.161003
C59   C     C_R   0.047182 0.598523 0.354674 -0.135925
C60   C     C_R   0.048158 0.410939 0.648667 0.458037
H1    H     H_    0.776035 0.592485 0.379858 0.172283
H2    H     H_    0.157952 0.681827 0.284015 0.035685
H3    H     H_    0.093170 0.382989 0.865018 0.192964
H4    H     H_    0.043160 0.480727 0.805067 0.107871
H5    H     H_    0.245165 0.432319 0.800547 0.238239
H6    H     H_    0.193804 0.535322 0.747771 0.217994
H7    H     H_    0.145949 0.591425 0.906846 0.271574
H8    H     H_    0.265719 0.576312 0.901049 0.265362
H9    H     H_    0.197181 0.488211 0.960600 0.273421
H10   H     H_    0.970560 0.775141 0.331972 0.121603
H11   H     H_    0.853468 0.761135 0.362799 0.140742
H12   H     H_    0.224636 0.412497 0.621967 0.166155
H13   H     H_    0.922136 0.776306 0.158145 0.255366
H14   H     H_    0.807746 0.780785 0.197811 0.217963
H15   H     H_    0.848004 0.930943 0.289878 0.283110
H16   H     H_    0.864796 0.943570 0.164258 0.265450
H17   H     H_    0.959781 0.927176 0.241769 0.263059
H18   H     H_    0.377945 0.953097 0.805199 0.176158
H19   H     H_    0.438300 0.852684 0.756754 0.128402
H20   H     H_    0.247972 0.845573 0.840190 0.233862
H21   H     H_    0.305055 0.746206 0.787832 0.224750
H22   H     H_    0.426718 0.760565 0.909570 0.269386
H23   H     H_    0.773704 0.410281 0.619955 0.130544
H24   H     H_    0.318194 0.745003 0.963525 0.273496
H25   H     H_    0.371056 0.861762 0.961849 0.268271
H26   H     H_    0.815706 0.102505 0.308513 0.177789
H27   H     H_    0.780754 0.033056 0.407758 0.140532
H28   H     H_    0.771801 0.253475 0.392016 0.241561
H29   H     H_    0.740918 0.183524 0.494095 0.221176
H30   H     H_    0.898059 0.124303 0.506950 0.265623
H31   H     H_    0.893612 0.252630 0.513131 0.283799
H32   H     H_    0.929286 0.196033 0.405563 0.263683
H33   H     H_    0.693878 0.916948 0.175857 0.176993
H34   H     H_    0.227331 0.581434 0.373454 0.122704
H35   H     H_    0.591732 0.969900 0.211350 0.148027
H36   H     H_    0.630062 0.753071 0.214569 0.232584
H37   H     H_    0.525052 0.807922 0.243223 0.222417
H38   H     H_    0.514241 0.872545 0.078703 0.264840
H39   H     H_    0.522077 0.744128 0.079973 0.275600
H40   H     H_    0.619026 0.816124 0.049650 0.264504
H41   H     H_    0.187998 0.081390 0.703348 0.187241
H42   H     H_    0.219431 0.023980 0.596170 0.144016
H43   H     H_    0.221201 0.241923 0.631476 0.257341
H44   H     H_    0.248984 0.184144 0.521759 0.213236
H45   H     H_    0.602494 0.758651 0.398676 0.163774
H46   H     H_    0.093226 0.113311 0.512822 0.245614
H47   H     H_    0.093254 0.241961 0.516949 0.271425
H48   H     H_    0.065478 0.174511 0.621466 0.301787
H49   H     H_    0.398505 0.241566 0.602555 0.165116
H50   H     H_    0.398061 0.755340 0.601963 0.166526
H51   H     H_    0.600846 0.244578 0.397101 0.170967
H52   H     H_    0.843131 0.378746 0.751640 0.049780
N1    N     N_R   0.500000 0.750030 0.500000 -0.116493
N2    N     N_R   0.500000 0.249970 0.500000 -0.118127
O1    O     O_R   0.367850 0.580280 0.500020 -0.617008
O2    O     O_2   0.063012 0.640177 0.193939 -0.532666
O3    O     O_3   0.096408 0.368585 0.721108 -0.621541
O4    O     O_3   0.905675 0.647696 0.287955 -0.610308
O5    O     O_3   0.326254 0.897744 0.679613 -0.653522
O6    O     O_3   0.680002 0.103188 0.328071 -0.650996
O7    O     O_3   0.671007 0.903209 0.317815 -0.669401
O8    O     O_3   0.321949 0.096862 0.675312 -0.650852
O9    O     O_R   0.632150 0.419720 0.499980 -0.620278
O10   O     O_R   0.632150 0.580280 0.499980 -0.617057
O11   O     O_R   0.367850 0.419720 0.500020 -0.620050
O12   O     O_R   0.500000 0.580290 0.373720 -0.608885
O13   O     O_R   0.500000 0.419710 0.626280 -0.599939
O14   O     O_R   0.500000 0.580290 0.626280 -0.601782
O15   O     O_R   0.500000 0.419710 0.373720 -0.595077
O16   O     O_2   0.937500 0.281157 0.757770 -0.537389
Zn1   Zn    Zn3+2 0.500000 0.607200 0.500000 0.931564
Zn2   Zn    Zn3+2 0.500000 0.392800 0.500000 0.937231

loop_
_geom_bond_atom_site_label_1
_geom_bond_atom_site_label_2
_ccdc_geom_bond_type
C32   H34   S    
C4    H49   S    
C34   C56   A    
C33   C58   A    
C23   C45   A    
O9    Zn2   S    
C27   C29   A    
C6    H51   S    
C19   O14   A    
C54   H41   S    
C49   H28   S    
C37   H2    S    
C28   C56   A    
C48   O6    S    
C37   O2    D    
O1    Zn1   S    
C53   H39   S    
C7    C11   A    
C8    C13   A    
C47   H25   S    
C4    N2    A    
C19   C21   S    
C9    C16   A    
C1    O11   A    
C36   C58   S    
C38   C39   S    
C12   C29   S    
C5    H50   S    
C10   C17   A    
C58   C60   A    
C15   C16   A    
C55   H43   S    
C52   H37   S    
C31   H23   S    
C15   O6    S    
C35   C59   A    
C34   C35   A    
C41   C42   S    
C47   H22   S    
C19   O13   A    
O13   Zn2   S    
C6    N2    A    
C27   H1    S    
C46   C47   S    
C38   O3    S    
C50   H30   S    
C7    C14   A    
C23   C33   A    
C22   C25   S    
C36   H52   S    
C31   C33   A    
C41   O4    S    
C41   H11   S    
O15   Zn2   S    
C27   C45   A    
C57   H46   S    
C54   O8    S    
C53   H40   S    
C43   H15   S    
C39   H5    S    
C14   C17   A    
C28   H12   S    
C44   C46   S    
C38   H4    S    
C2    C45   A    
C2    O4    S    
C42   H14   S    
C40   H9    S    
C51   C52   S    
C32   C35   A    
C3    N1    A    
C49   H29   S    
C39   C40   S    
C5    C7    A    
C2    C59   A    
C6    C8    A    
C44   O5    S    
C25   C26   T    
C55   H44   S    
C40   H7    S    
C3    H45   S    
C56   C60   A    
O10   Zn1   S    
C16   O7    S    
C3    C9    A    
C36   O16   D    
C46   H21   S    
C50   H31   S    
C12   O10   A    
C23   C34   A    
C48   H27   S    
C60   O3    S    
C47   H24   S    
C9    C11   A    
C37   C59   S    
C51   H33   S    
C50   H32   S    
C48   C49   S    
C57   H47   S    
C20   C22   T    
C14   O5    S    
C8    C15   A    
C55   C57   S    
C51   O7    S    
C39   H6    S    
C48   H26   S    
C42   C43   S    
C4    C10   A    
O14   Zn1   S    
C52   C53   S    
C38   H3    S    
C43   H16   S    
C54   C55   S    
C42   H13   S    
N1    Zn1   S    
C5    N1    A    
N2    Zn2   S    
C54   H42   S    
C44   H19   S    
C24   C26   S    
C10   C13   A    
C53   H38   S    
C43   H17   S    
C1    O1    A    
C44   H18   S    
C29   C31   A    
C18   O12   A    
C30   C32   A    
C11   C13   A    
O11   Zn2   S    
C12   O9    A    
O12   Zn1   S    
C28   C30   A    
C1    C30   S    
C52   H36   S    
C18   C20   S    
C17   O8    S    
C57   H48   S    
C49   C50   S    
C40   H8    S    
C21   C24   T    
C18   O15   A    
C46   H20   S    
C51   H35   S    
C41   H10   S    
