data_mof_unit_64802.cif
_audit_creation_date              2013-03-05T15:45:01-0500
_audit_creation_method            fapswitch 2.2
_symmetry_space_group_name_H-M    P1
_symmetry_Int_Tables_number       1
_space_group_crystal_system       triclinic
_cell_length_a                    21.831101
_cell_length_b                    21.815435
_cell_length_c                    21.935357
_cell_angle_alpha                 63.091434
_cell_angle_beta                  120.286582
_cell_angle_gamma                 88.668755
_cell_volume                      7603.19906486

loop_
_atom_site_label
_atom_site_type_symbol
_atom_site_description
_atom_site_fract_x
_atom_site_fract_y
_atom_site_fract_z
_atom_type_partial_charge
O1    O     O_R   0.590210 0.447820 0.500000 -0.515004
O2    O     O_R   0.590150 0.552170 0.500020 -0.602035
C1    C     C_R   0.620474 0.497894 0.503137 0.778151
O3    O     O_R   0.439580 0.508290 0.379070 -0.558242
O4    O     O_R   0.439510 0.612640 0.379090 -0.564062
C2    C     C_R   0.422442 0.578687 0.340078 0.837305
Cu1   Cu    Cu3+1 0.500040 0.438210 0.499990 1.110006
Cu2   Cu    Cu3+1 0.499960 0.561790 0.500010 1.113386
O5    O     O_R   0.409850 0.447830 0.499980 -0.598750
O6    O     O_R   0.409790 0.552180 0.500000 -0.530895
O7    O     O_R   0.560490 0.387360 0.620910 -0.557560
O8    O     O_R   0.560420 0.491710 0.620930 -0.551408
C3    C     C_R   0.378671 0.502765 0.495040 0.838510
C4    C     C_R   0.575604 0.421339 0.659635 0.877977
C5    C     C_3   0.300547 0.753904 0.973339 -0.197011
C6    C     C_3   0.300277 0.775238 0.031697 -0.191144
C7    C     C_1   0.379587 0.620284 0.250493 0.019778
C8    C     C_1   0.127308 0.869413 0.749416 0.015193
C9    C     C_3   0.298129 0.678704 0.025295 0.326008
C10   C     C_3   0.298209 0.699401 0.083568 -0.048449
C11   C     C_3   0.211389 0.706183 0.967898 -0.212593
C12   C     C_3   0.213781 0.782413 0.916362 -0.047214
C13   C     C_3   0.211140 0.727556 0.026854 -0.205705
C14   C     C_3   0.213961 0.802817 0.974892 0.317754
C15   C     C_1   0.343074 0.655284 0.175198 0.169575
C16   C     C_1   0.166288 0.829678 0.824654 0.159688
H1    H     H_    0.174214 0.717727 0.048769 0.214214
H2    H     H_    0.175807 0.677114 0.942000 0.212982
C17   C     C_R   0.766492 0.485262 0.646628 -0.090309
C18   C     C_R   0.825323 0.501570 0.698057 -0.195830
H3    H     H_    0.835419 0.492422 0.755657 0.185477
C19   C     C_R   0.875621 0.524742 0.679981 -0.029397
H4    H     H_    0.921122 0.536193 0.720936 0.213966
C20   C     C_R   0.870550 0.528455 0.612867 -0.099560
H5    H     H_    0.911776 0.545694 0.601826 0.181280
C21   C     C_R   0.813204 0.511065 0.560666 0.064354
C22   C     C_R   0.755282 0.496661 0.571566 0.060232
C23   C     C_R   0.689986 0.494335 0.507399 -0.130215
C24   C     C_R   0.687980 0.498873 0.439771 -0.036901
H6    H     H_    0.749961 0.503063 0.387923 0.191331
C25   C     C_R   0.750189 0.503625 0.437252 -0.174339
C26   C     C_R   0.813035 0.507820 0.497916 -0.115328
C27   C     C_3   0.748204 0.184915 0.023918 -0.139762
C28   C     C_3   0.675685 0.248660 0.970761 0.268457
H7    H     H_    0.686960 0.293620 0.055321 0.206182
C29   C     C_1   0.616966 0.378871 0.749113 0.068667
C30   C     C_1   0.872630 0.127904 0.250586 0.006156
C31   C     C_3   0.773878 0.233331 0.969850 -0.209742
C32   C     C_3   0.700237 0.296852 0.916024 -0.088758
C33   C     C_3   0.812410 0.260214 0.030100 -0.135605
C34   C     C_3   0.786370 0.212141 0.083696 -0.041660
C35   C     C_3   0.738746 0.322643 0.976764 0.285272
C36   C     C_3   0.712692 0.275661 0.031061 -0.254048
C37   C     C_1   0.653602 0.342412 0.824379 0.216297
C38   C     C_1   0.833486 0.166087 0.175321 0.168297
C39   C     C_R   0.237685 0.494423 0.364634 -0.178110
C40   C     C_R   0.183468 0.466902 0.323256 -0.158227
C41   C     C_R   0.136229 0.442831 0.348017 0.312516
C42   C     C_R   0.137714 0.453689 0.406382 -0.129272
H8    H     H_    0.097662 0.438160 0.420483 0.187216
C43   C     C_R   0.190431 0.481424 0.447797 0.048070
C44   C     C_R   0.247191 0.493482 0.434757 0.024022
C45   C     C_R   0.309309 0.505587 0.491128 -0.175745
C46   C     C_R   0.308492 0.514246 0.550856 0.273944
C47   C     C_R   0.246024 0.513146 0.554013 -0.163522
C48   C     C_R   0.186963 0.496948 0.502168 -0.199163
O9    O     O_R   0.052170 0.909710 0.500000 -0.601356
O10   O     O_R   0.947780 0.909820 0.499990 -0.528091
C49   C     C_R   0.998026 0.883680 0.494806 0.837555
O11   O     O_R   0.112650 0.939420 0.620930 -0.583548
O12   O     O_R   0.008260 0.939530 0.620910 -0.522497
C50   C     C_R   0.080721 0.917664 0.659901 0.847105
Cu3   Cu    Cu3+1 0.061810 0.999860 0.500010 1.080019
Cu4   Cu    Cu3+1 0.938190 0.999990 0.499990 1.180200
O13   O     O_R   0.052220 0.090030 0.500010 -0.582689
O14   O     O_R   0.947830 0.090140 0.500000 -0.509406
O15   O     O_R   0.991740 0.060320 0.379090 -0.545283
O16   O     O_R   0.887350 0.060430 0.379070 -0.569206
C51   C     C_R   0.000802 0.116965 0.503382 0.801406
C52   C     C_R   0.919287 0.081919 0.340137 0.844217
O17   O     O_R   0.964960 0.625150 0.430050 -0.593674
O18   O     O_R   0.034940 0.555150 0.570020 -0.524915
C53   C     C_R   0.002288 0.617997 0.502252 0.829806
O19   O     O_R   0.874830 0.535020 0.430000 -0.569804
O20   O     O_R   0.944810 0.465010 0.569970 -0.578711
C54   C     C_R   0.880540 0.502732 0.499099 0.801020
Cu5   Cu    Cu3+1 0.958570 0.541460 0.417120 1.060553
Cu6   Cu    Cu3+1 0.041430 0.458560 0.582880 1.113392
O21   O     O_R   0.965060 0.444870 0.429980 -0.566976
O22   O     O_R   0.035040 0.374860 0.569950 -0.571996
O23   O     O_R   0.055190 0.535000 0.430030 -0.593445
O24   O     O_R   0.125170 0.465000 0.570000 -0.559321
C55   C     C_R   0.003151 0.381471 0.498215 0.800564
C56   C     C_R   0.119426 0.499688 0.501026 0.802649
C57   C     C_R   0.999933 0.866798 0.363946 -0.194639
C58   C     C_R   0.022478 0.850699 0.320838 0.289690
C59   C     C_R   0.051082 0.778642 0.348761 -0.156325
H9    H     H_    0.069893 0.765582 0.317546 0.195202
C60   C     C_R   0.048882 0.723224 0.411171 -0.123661
H10   H     H_    0.068406 0.668462 0.427624 0.175932
C61   C     C_R   0.022225 0.737866 0.451450 0.070837
C62   C     C_R   0.006834 0.808760 0.435969 -0.019817
C63   C     C_R   0.998454 0.817384 0.492749 -0.229279
C64   C     C_R   0.998786 0.758083 0.556613 0.259283
C65   C     C_R   0.002377 0.691768 0.562081 0.254107
C66   C     C_R   0.011095 0.682439 0.507162 -0.217656
C67   C     C_R   0.072880 0.124610 0.657284 0.241679
C68   C     C_R   0.132697 0.122857 0.727955 -0.164667
C69   C     C_R   0.166840 0.177346 0.715836 -0.170536
C70   C     C_R   0.131479 0.240375 0.634759 -0.057511
C71   C     C_R   0.061920 0.247670 0.567602 0.012137
C72   C     C_R   0.044397 0.184292 0.575815 -0.028343
C73   C     C_R   0.996927 0.184708 0.501811 -0.093522
C74   C     C_R   0.950793 0.251196 0.424170 -0.077901
C75   C     C_R   0.950187 0.316632 0.422156 -0.057517
C76   C     C_R   0.006970 0.315422 0.494415 -0.137449
C77   C     C_2   0.349774 0.814365 0.065392 0.964767
O25   O     O_2   0.351674 0.870536 0.017352 -0.541032
O26   O     O_R   0.394097 0.786122 0.151333 -0.735572
H11   H     H_    0.425154 0.817308 0.166166 0.357322
N1    N     N_R   0.601471 0.240889 0.940605 0.165187
O27   O     O_R   0.587894 0.198672 0.993909 -0.283878
O28   O     O_R   0.548441 0.276211 0.860837 -0.284561
C78   C     C_2   0.750520 0.108489 0.046841 0.985013
O29   O     O_2   0.716973 0.096031 0.991538 -0.521949
O30   O     O_R   0.790686 0.052064 0.130863 -0.689516
H12   H     H_    0.788026 0.003095 0.138136 0.368659
N2    N     N_R   0.735006 0.397415 0.953299 0.163845
O31   O     O_R   0.769761 0.411906 0.011189 -0.262836
O32   O     O_R   0.696964 0.449912 0.874925 -0.283463
C79   C     C_2   0.888331 0.269260 0.060914 0.980894
O33   O     O_2   0.900275 0.310036 0.010500 -0.529473
O34   O     O_R   0.944883 0.231259 0.146734 -0.707321
H13   H     H_    0.993420 0.242015 0.159522 0.369257
C80   C     C_2   0.810031 0.207989 0.938871 0.957526
O35   O     O_2   0.868418 0.156635 0.989177 -0.508594
O36   O     O_R   0.777071 0.242997 0.853081 -0.706975
H14   H     H_    0.806889 0.220981 0.840207 0.369899
N3    N     N_R   0.371521 0.524682 0.608517 0.154020
O37   O     O_R   0.435267 0.472013 0.666628 -0.320813
O38   O     O_R   0.364363 0.585771 0.605049 -0.288708
C81   C     C_2   0.352047 0.766059 0.945907 0.978549
O39   O     O_2   0.419917 0.738932 0.998437 -0.514729
O40   O     O_R   0.322398 0.808202 0.860773 -0.734400
H15   H     H_    0.362806 0.812388 0.850330 0.359986
C82   C     C_2   0.272203 0.536152 0.323248 0.864109
O41   O     O_2   0.269523 0.597431 0.309199 -0.553397
O42   O     O_R   0.302772 0.508811 0.294346 -0.720923
H16   H     H_    0.313153 0.454546 0.319846 0.321946
C83   C     C_2   0.167998 0.473172 0.246304 0.934252
O43   O     O_2   0.189580 0.419302 0.248848 -0.510159
O44   O     O_R   0.130144 0.541279 0.171449 -0.709495
H17   H     H_    0.123655 0.539038 0.123442 0.358849
N4    N     N_R   0.081769 0.413064 0.309329 0.140907
O45   O     O_R   0.100567 0.364131 0.298015 -0.256318
O46   O     O_R   0.016346 0.427330 0.295776 -0.288544
C84   C     C_2   0.244286 0.527258 0.613519 0.952108
O47   O     O_2   0.190128 0.572976 0.588746 -0.604359
O48   O     O_R   0.305135 0.488558 0.697841 -0.660272
H18   H     H_    0.297536 0.503093 0.732009 0.365621
N5    N     N_R   0.999310 0.763775 0.619554 0.153499
O49   O     O_R   0.936415 0.787597 0.607198 -0.262605
O50   O     O_R   0.062053 0.737071 0.692753 -0.322984
C85   C     C_2   0.960712 0.943600 0.325657 0.909972
O51   O     O_2   0.899692 0.960065 0.312775 -0.550189
O52   O     O_R   0.990109 0.998260 0.299199 -0.674391
H19   H     H_    0.043708 0.978623 0.319707 0.325946
N6    N     N_R   0.012574 0.906667 0.245522 0.126221
O53   O     O_R   0.064252 0.900530 0.233290 -0.284542
O54   O     O_R   0.947326 0.956287 0.183277 -0.271156
N7    N     N_R   0.165849 0.870106 0.947808 0.154175
O55   O     O_R   0.189652 0.896965 0.994660 -0.304692
O56   O     O_R   0.094535 0.892774 0.889254 -0.240107
N8    N     N_R   0.996762 0.634538 0.623884 0.117809
O57   O     O_R   0.941097 0.647994 0.628052 -0.342103
O58   O     O_R   0.055532 0.577519 0.687855 -0.289515
C86   C     C_2   0.898566 0.251985 0.346706 0.827603
O59   O     O_2   0.904539 0.280703 0.288342 -0.494364
O60   O     O_R   0.842455 0.220350 0.340602 -0.724306
H20   H     H_    0.809846 0.225194 0.284495 0.332030
N9    N     N_R   0.033488 0.073158 0.668023 0.120778
O61   O     O_R   0.070100 0.004869 0.726667 -0.350262
O62   O     O_R   0.961120 0.096554 0.629150 -0.269310
C87   C     C_2   0.158711 0.065578 0.814065 0.995794
O63   O     O_2   0.113831 0.055685 0.832359 -0.443804
O64   O     O_R   0.234745 0.024649 0.874772 -0.708668
H21   H     H_    0.246072 0.991460 0.932207 0.388531
C88   C     C_2   0.237379 0.169550 0.788230 0.993347
O65   O     O_2   0.295057 0.163428 0.791710 -0.503962
O66   O     O_R   0.237691 0.168747 0.852465 -0.712695
H22   H     H_    0.289074 0.162854 0.898496 0.366901
C89   C     C_2   0.171644 0.292888 0.617890 0.877471
O67   O     O_2   0.171385 0.315533 0.555642 -0.607349
O68   O     O_R   0.211829 0.314334 0.674021 -0.708240
H23   H     H_    0.240569 0.346369 0.657882 0.353879
C90   C     C_2   0.885696 0.383467 0.347834 0.922870
O69   O     O_2   0.877507 0.412317 0.280563 -0.466906
O70   O     O_R   0.833959 0.412733 0.355236 -0.747969
H24   H     H_    0.792504 0.458291 0.300713 0.349496
N10   N     N_R   0.344041 0.610467 0.051599 0.160830
O71   O     O_R   0.337718 0.599219 0.995616 -0.279133
O72   O     O_R   0.391435 0.560673 0.130657 -0.306568
C91   C     C_2   0.621103 0.501052 0.368676 0.849565
O73   O     O_2   0.593560 0.551898 0.297155 -0.537293
O74   O     O_R   0.591778 0.443809 0.382681 -0.698737
H25   H     H_    0.546490 0.451774 0.328951 0.365968
C92   C     C_2   0.730001 0.443095 0.684133 0.845151
O75   O     O_2   0.720548 0.388935 0.682109 -0.533740
O76   O     O_R   0.713424 0.459762 0.729828 -0.718745
H26   H     H_    0.715615 0.509204 0.721001 0.326752

loop_
_geom_bond_atom_site_label_1
_geom_bond_atom_site_label_2
_geom_bond_distance
_ccdc_geom_bond_type
C28   C32   1.538500 S    
Cu5   Cu6   2.650535 S    
C25   C26   1.391409 A    
O66   H22   1.013770 S    
Cu5   O23   1.974046 S    
Cu3   Cu4   2.698477 S    
C31   C80   1.500352 S    
C21   C26   1.408093 A    
C57   C58   1.421886 A    
C8    C16   1.205638 T    
O19   Cu5   1.984597 S    
N7    O55   1.300043 A    
N2    O31   1.300326 A    
C59   H9    1.083227 S    
C35   N2    1.457331 S    
Cu1   Cu2   2.696112 S    
C4    C29   1.433044 S    
N9    O61   1.298455 A    
C87   O63   1.222921 D    
O70   H24   1.013787 S    
Cu1   O7    1.935351 S    
C91   O74   1.397129 S    
C9    N10   1.457205 S    
C61   C62   1.416164 A    
Cu4   O14   1.982835 S    
C67   N9    1.436946 S    
C12   C14   1.535809 S    
C78   O30   1.395431 S    
C21   C22   1.417833 A    
C9    C11   1.545851 S    
C22   C23   1.435262 A    
O19   C54   1.283765 A    
C73   C74   1.408831 A    
C24   C91   1.482901 S    
C77   O26   1.396697 S    
C18   H3    1.083320 S    
O7    C4    1.295574 A    
O16   C52   1.299453 A    
O15   C52   1.300671 A    
C10   C15   1.464605 S    
O10   Cu4   1.973363 S    
C5    C6    1.549847 S    
C28   N1    1.457574 S    
C68   C69   1.412203 A    
C88   O66   1.397724 S    
C20   H5    1.078542 S    
C67   C72   1.418076 A    
C70   C89   1.486073 S    
C14   N7    1.456221 S    
O5    C3    1.296705 A    
N8    O57   1.300409 A    
C72   C73   1.413706 A    
C41   N4    1.439574 S    
C59   C60   1.381668 A    
C70   C71   1.421834 A    
C43   C48   1.413625 A    
C5    C12   1.546173 S    
Cu6   O24   1.984597 S    
C1    C23   1.470550 S    
N10   O71   1.300231 A    
C86   O60   1.397227 S    
C33   C35   1.538853 S    
C67   C68   1.418450 A    
C58   N6    1.438242 S    
C71   C76   1.424190 A    
O9    Cu3   1.982831 S    
C13   H1    1.110196 S    
C17   C18   1.404224 A    
C27   C31   1.549353 S    
N4    O46   1.300935 A    
O18   Cu6   1.986840 S    
C57   C62   1.436043 A    
Cu2   O8    1.954329 S    
C48   C56   1.461293 S    
C32   C35   1.539224 S    
N6    O54   1.301492 A    
O68   H23   1.013827 S    
H7    C36   1.110067 S    
C42   H8    1.080129 S    
C6    C14   1.538160 S    
C32   C37   1.464812 S    
C11   C12   1.551833 S    
C58   C59   1.390428 A    
C84   O47   1.222505 D    
C85   O52   1.398350 S    
Cu3   O13   1.973365 S    
C85   O51   1.220523 D    
O52   H19   1.013117 S    
C62   C63   1.435416 A    
C30   C52   1.432919 S    
O3    Cu1   1.954328 S    
C28   C36   1.548775 S    
C64   C65   1.393420 A    
N5    O50   1.300610 A    
C74   C75   1.407623 A    
C82   O42   1.397728 S    
N9    O62   1.301316 A    
C69   C88   1.482854 S    
C8    C50   1.436334 S    
C23   C24   1.419035 A    
O76   H26   1.012848 S    
C42   C43   1.411088 A    
C81   O39   1.222004 D    
C68   C87   1.483383 S    
C92   O75   1.220707 D    
C80   O35   1.222072 D    
O42   H16   1.012887 S    
C90   O70   1.398206 S    
C64   N5    1.435628 S    
O10   C49   1.302608 A    
C34   C38   1.464891 S    
C41   C42   1.388944 A    
O20   C54   1.284878 A    
C45   C46   1.414208 A    
C88   O65   1.222798 D    
O1    C1    1.300099 A    
C55   C76   1.483310 S    
C89   O68   1.398386 S    
C5    C9    1.537966 S    
C27   C28   1.538800 S    
C39   C82   1.481391 S    
C44   C45   1.434783 A    
C83   O44   1.397375 S    
O4    Cu2   1.935349 S    
C5    C81   1.499417 S    
N7    O56   1.300165 A    
O48   H18   1.013832 S    
C3    C45   1.471011 S    
C10   C13   1.551438 S    
C6    C10   1.544405 S    
C74   C86   1.485267 S    
C40   C83   1.481870 S    
C29   C37   1.203351 T    
O11   Cu3   1.950084 S    
O24   C56   1.282714 A    
C33   C34   1.546286 S    
N1    O27   1.300289 A    
N4    O45   1.300690 A    
O17   Cu5   1.968205 S    
C26   C54   1.461510 S    
C47   C84   1.487663 S    
H6    C25   1.085168 S    
C60   C61   1.409539 A    
C11   H2    1.110018 S    
Cu6   O22   1.968425 S    
O18   C53   1.280100 A    
C65   N8    1.433308 S    
C11   C13   1.562869 S    
C12   C16   1.467652 S    
O34   H13   1.013835 S    
C39   C44   1.434834 A    
O3    C2    1.300621 A    
C39   C40   1.424040 A    
C17   C22   1.432788 A    
C79   O33   1.222067 D    
C81   O40   1.396673 S    
C35   C36   1.548560 S    
N3    O37   1.300959 A    
O22   C55   1.290920 A    
C30   C38   1.203704 T    
C82   O41   1.220984 D    
O36   H14   1.013807 S    
O20   Cu6   1.974048 S    
O9    C49   1.298665 A    
C61   C66   1.410746 A    
C80   O36   1.396477 S    
C2    C7    1.432638 S    
O74   H25   1.013950 S    
N6    O53   1.301358 A    
C71   C72   1.399657 A    
O1    Cu1   1.984382 S    
C49   C63   1.467210 S    
Cu2   O6    1.984384 S    
O2    Cu2   1.975123 S    
O8    C4    1.303914 A    
C90   O69   1.222130 D    
C79   O34   1.396754 S    
O6    C3    1.304275 A    
N2    O32   1.300160 A    
O17   C53   1.290502 A    
O12   Cu4   1.939630 S    
O26   H11   1.013750 S    
C53   C66   1.467523 S    
C75   C90   1.484535 S    
C65   C66   1.407206 A    
C77   O25   1.221234 D    
C17   C92   1.472315 S    
C60   H10   1.081687 S    
O40   H15   1.013738 S    
C7    C15   1.203563 T    
C19   H4    1.082012 S    
C9    C10   1.535551 S    
C51   C73   1.462026 S    
O2    C1    1.299834 A    
O12   C50   1.300941 A    
N5    O49   1.301098 A    
C57   C85   1.476491 S    
C89   O67   1.220663 D    
O23   C56   1.283119 A    
C18   C19   1.379158 A    
N3    O38   1.301092 A    
C27   C34   1.546700 S    
C40   C41   1.402240 A    
O4    C2    1.297960 A    
O30   H12   1.013902 S    
C31   C32   1.549155 S    
C46   C47   1.400155 A    
C31   C33   1.549603 S    
C87   O64   1.396854 S    
C20   C21   1.411279 A    
C47   C48   1.409461 A    
O21   C55   1.289211 A    
C43   C44   1.411025 A    
N8    O58   1.300951 A    
N1    O28   1.300225 A    
C33   C79   1.499624 S    
C13   C14   1.542803 S    
O60   H20   1.013765 S    
Cu1   O5    1.975123 S    
O14   C51   1.292099 A    
O44   H17   1.013795 S    
C24   C25   1.391136 A    
C84   O48   1.398111 S    
C86   O59   1.222574 D    
Cu4   O16   1.950083 S    
C69   C70   1.414903 A    
C63   C64   1.408929 A    
C92   O76   1.399102 S    
Cu5   O21   1.986842 S    
Cu3   O15   1.939628 S    
C83   O43   1.222521 D    
O11   C50   1.300407 A    
C91   O73   1.222940 D    
C34   C36   1.554211 S    
O64   H21   1.012128 S    
C6    C77   1.500291 S    
O13   C51   1.305074 A    
C27   C78   1.498952 S    
N10   O72   1.300295 A    
C75   C76   1.424231 A    
C19   C20   1.383238 A    
C78   O29   1.222040 D    
C46   N3    1.436891 S    
