data_mof_unit_19339.cif
_audit_creation_date              2012-12-10T18:54:24-0500
_audit_creation_method            fapswitch 2.2
_symmetry_space_group_name_H-M    P1
_symmetry_Int_Tables_number       1
_space_group_crystal_system       triclinic
_cell_length_a                    10.844005
_cell_length_b                    9.92539
_cell_length_c                    23.108447
_cell_angle_alpha                 90.004957
_cell_angle_beta                  92.357981
_cell_angle_gamma                 90.010332
_cell_volume                      2485.07874789

loop_
_atom_site_label
_atom_site_type_symbol
_atom_type_description
_atom_site_fract_x
_atom_site_fract_y
_atom_site_fract_z
_atom_type_partial_charge
C1    C     C_R   0.260285 0.499872 0.502280 1.025710
C2    C     C_R   0.739724 0.499896 0.497740 1.025846
C3    C     C_R   0.553248 0.461857 0.231153 0.496123
C4    C     C_R   0.446551 0.461813 0.768823 0.496189
C5    C     C_R   0.566820 0.446670 0.291176 0.142766
C6    C     C_R   0.433045 0.446643 0.708795 0.142553
C7    C     C_R   0.476656 0.499336 0.326481 -0.326184
C8    C     C_R   0.523249 0.499371 0.673521 -0.326209
C9    C     C_R   0.369778 0.557826 0.301156 0.163225
C10   C     C_R   0.630091 0.557916 0.698878 0.163325
C11   C     C_R   0.368843 0.598365 0.243331 0.481895
C12   C     C_R   0.630959 0.598427 0.756708 0.481885
C13   C     C_R   0.461190 0.549831 0.207405 -0.094016
C14   C     C_R   0.538583 0.549817 0.792605 -0.094010
C15   C     C_R   0.063631 0.375661 0.504476 0.377348
C16   C     C_R   0.936801 0.622708 0.496003 0.389224
C17   C     C_R   0.936320 0.375715 0.495325 0.377636
C18   C     C_R   0.063305 0.622646 0.504388 0.389074
C19   C     C_R   0.872445 0.499415 0.495535 -0.380656
C20   C     C_R   0.127578 0.499350 0.504534 -0.380662
C21   C     C_R   0.577218 0.072258 0.537212 0.247839
C22   C     C_R   0.422344 0.929080 0.463133 0.234779
C23   C     C_R   0.422785 0.072212 0.462786 0.247835
C24   C     C_R   0.577627 0.929126 0.536879 0.234598
C25   C     C_R   0.494712 0.499562 0.389247 1.009065
C26   C     C_R   0.505272 0.499574 0.610753 1.008878
C27   C     C_R   0.634932 0.582234 0.889487 0.603121
C28   C     C_R   0.364798 0.582277 0.110535 0.603085
C29   C     C_R   0.422286 0.632589 0.872015 0.639891
C30   C     C_R   0.577448 0.632702 0.128003 0.639924
C31   C     C_R   0.402137 0.631818 0.931632 -0.165607
C32   C     C_R   0.597597 0.631893 0.068387 -0.165588
C33   C     C_R   0.506756 0.626732 0.969934 -0.122002
C34   C     C_R   0.492977 0.626755 0.030086 -0.122014
C35   C     C_R   0.625350 0.616178 0.948057 -0.210888
C36   C     C_R   0.374383 0.616194 0.051964 -0.210897
C37   C     C_R   0.282795 0.633296 0.954200 0.212946
C38   C     C_R   0.716938 0.633366 0.045820 0.212971
C39   C     C_R   0.269650 0.631151 0.014292 0.484087
C40   C     C_R   0.730086 0.631176 0.985728 0.484050
N1    N     N_R   0.533569 0.591654 0.852288 -0.339695
N2    N     N_R   0.466170 0.591724 0.147731 -0.339696
N3    N     N_R   0.500000 0.857200 0.500000 -0.175798
N4    N     N_R   0.500000 0.142800 0.500000 -0.175460
O1    O     O_R   0.316770 0.614620 0.500000 -0.558112
O2    O     O_R   0.683230 0.385380 0.500000 -0.543876
O3    O     O_R   0.683230 0.614620 0.500000 -0.558379
O4    O     O_R   0.316770 0.385380 0.500000 -0.544010
O5    O     O_R   0.499970 0.614690 0.416160 -0.603624
O6    O     O_R   0.500030 0.385310 0.583840 -0.570908
O7    O     O_R   0.500030 0.614690 0.583840 -0.603576
O8    O     O_R   0.499970 0.385310 0.416160 -0.570851
O9    O     O_2   0.742416 0.533441 0.870936 -0.414811
O10   O     O_2   0.257306 0.533476 0.129088 -0.414785
O11   O     O_2   0.332597 0.672622 0.833698 -0.474125
O12   O     O_2   0.667136 0.672797 0.166318 -0.474104
Zn1   Zn    Zn3+2 0.500000 0.653120 0.500000 1.057090
Zn2   Zn    Zn3+2 0.500000 0.346880 0.500000 1.088090
Br1   Br    Br    0.133812 0.615675 0.906310 -0.258266
Br2   Br    Br    0.865911 0.615777 0.093713 -0.258220
O13   O     O_3   0.153912 0.649553 0.035950 -0.498830
C41   C     C_3   0.141516 0.787988 0.048876 -0.128664
H1    H     H_    0.155151 0.852189 0.010108 0.108875
H2    H     H_    0.206488 0.818727 0.085029 0.140585
H3    H     H_    0.046888 0.807601 0.062901 0.215561
O14   O     O_3   0.845831 0.649558 0.964071 -0.498834
C42   C     C_3   0.858269 0.787977 0.951125 -0.128648
H4    H     H_    0.844651 0.852225 0.989884 0.108859
H5    H     H_    0.793307 0.818670 0.914968 0.140646
H6    H     H_    0.952903 0.807574 0.937098 0.215554
O15   O     O_3   0.638601 0.402187 0.196423 -0.515529
C43   C     C_3   0.583460 0.288246 0.169702 -0.208448
H7    H     H_    0.504523 0.316958 0.139968 0.139500
H8    H     H_    0.553141 0.214245 0.202447 0.165995
H9    H     H_    0.653037 0.237762 0.143308 0.203898
O16   O     O_3   0.361168 0.402081 0.803525 -0.515516
C44   C     C_3   0.416296 0.288161 0.830243 -0.208362
H10   H     H_    0.495194 0.316908 0.860001 0.139493
H11   H     H_    0.446669 0.214193 0.797495 0.165990
H12   H     H_    0.346694 0.237623 0.856609 0.203878
Br3   Br    Br    0.709732 0.355077 0.323475 -0.458049
Br4   Br    Br    0.290181 0.354968 0.676446 -0.458278
Br5   Br    Br    0.218110 0.562105 0.341334 -0.353212
Br6   Br    Br    0.781808 0.562298 0.658738 -0.353103
O17   O     O_3   0.275365 0.681470 0.222049 -0.511290
C45   C     C_3   0.316250 0.816012 0.226670 -0.193843
H13   H     H_    0.397572 0.834187 0.199862 0.128617
H14   H     H_    0.338160 0.844155 0.272583 0.197156
H15   H     H_    0.240923 0.883075 0.210168 0.198434
O18   O     O_3   0.724406 0.681574 0.778025 -0.511347
C46   C     C_3   0.683515 0.816097 0.773408 -0.194083
H16   H     H_    0.661659 0.844238 0.727494 0.197208
H17   H     H_    0.758818 0.883194 0.789937 0.198425
H18   H     H_    0.602157 0.834224 0.800196 0.128641
O19   O     O_3   0.126249 0.254238 0.510438 -0.565218
C47   C     C_3   0.099040 0.192307 0.563499 -0.099110
H19   H     H_    0.020972 0.120831 0.556978 0.205642
H20   H     H_    0.078000 0.265363 0.598400 0.181144
H21   H     H_    0.180788 0.133184 0.578824 0.173293
O20   O     O_3   0.876884 0.745551 0.491393 -0.540028
C48   C     C_3   0.869753 0.783480 0.432530 -0.128818
H22   H     H_    0.820964 0.706076 0.405206 0.149528
H23   H     H_    0.963092 0.803398 0.416142 0.203087
H24   H     H_    0.815775 0.878111 0.428422 0.161030
O21   O     O_3   0.873617 0.254364 0.489105 -0.565384
C49   C     C_3   0.901060 0.192771 0.436000 -0.099736
H25   H     H_    0.922713 0.266017 0.401265 0.181569
H26   H     H_    0.819207 0.134107 0.420418 0.173445
H27   H     H_    0.978792 0.120912 0.442556 0.205280
O22   O     O_3   0.123293 0.745415 0.509382 -0.540640
C50   C     C_3   0.130734 0.782176 0.568383 -0.129000
H28   H     H_    0.184607 0.876849 0.572780 0.161002
H29   H     H_    0.179780 0.704334 0.595350 0.149664
H30   H     H_    0.037478 0.801541 0.584972 0.203316
Br7   Br    Br    0.686041 0.167105 0.590957 -0.352129
Br8   Br    Br    0.310465 0.838466 0.411009 -0.360799
Br9   Br    Br    0.314050 0.166993 0.409004 -0.352098
Br10  Br    Br    0.689287 0.838576 0.589103 -0.360340

loop_
_geom_bond_atom_site_label_1
_geom_bond_atom_site_label_2
_ccdc_geom_bond_type
C38   C40   A    
C48   H22   S    
C6    Br4   S    
C8    C26   S    
C50   H28   S    
C21   Br7   S    
C44   H10   S    
C2    O2    A    
O1    Zn1   S    
C12   O18   S    
C26   O6    A    
C15   O19   S    
C8    C10   A    
C45   H14   S    
C46   H17   S    
C49   H25   S    
C47   H21   S    
O5    Zn1   S    
C7    C9    A    
C10   Br6   S    
O22   C50   S    
C41   H2    S    
C33   C35   A    
O19   C47   S    
N4    Zn2   S    
C47   H20   S    
C31   C33   A    
O7    Zn1   S    
C32   C38   A    
C18   C20   A    
C3    C13   A    
C22   Br8   S    
O14   C42   S    
C48   H23   S    
C40   O14   S    
O2    Zn2   S    
C43   H9    S    
C10   C12   A    
C13   N2    S    
C44   H11   S    
C15   C20   A    
C39   O13   S    
C42   H4    S    
O6    Zn2   S    
O16   C44   S    
C4    C6    A    
C46   H16   S    
C5    C7    A    
C28   O10   S    
C45   H13   S    
C16   O20   S    
C6    C8    A    
C29   O11   S    
C27   C35   A    
O17   C45   S    
C30   O12   S    
C23   N4    A    
C31   C37   A    
C42   H5    S    
C32   C34   A    
C3    O15   S    
C41   H1    S    
C17   O21   S    
O3    Zn1   S    
C21   N4    A    
C5    Br3   S    
C27   N1    A    
C22   N3    A    
C29   C31   A    
C47   H19   S    
C33   C34   A    
C50   H29   S    
C9    C11   A    
C37   Br1   S    
O8    Zn2   S    
C9    Br5   S    
C14   N1    S    
C38   Br2   S    
C43   H8    S    
C12   C14   A    
C48   H24   S    
C44   H12   S    
C15   C17   A    
C1    C20   S    
C41   H3    S    
C29   N1    A    
C2    C19   S    
C36   C39   A    
C18   O22   S    
C43   H7    S    
C3    C5    A    
C45   H15   S    
C23   Br9   S    
C27   O9    S    
C1    O4    A    
O4    Zn2   S    
C2    O3    A    
O21   C49   S    
C24   Br10  S    
C7    C25   S    
C42   H6    S    
C35   C40   A    
C25   O8    A    
O15   C43   S    
C37   C39   A    
C26   O7    A    
C46   H18   S    
C30   C32   A    
C11   C13   A    
C1    O1    A    
O18   C46   S    
C49   H26   S    
C11   O17   S    
C16   C19   A    
C28   N2    A    
O20   C48   S    
C17   C19   A    
C50   H30   S    
C34   C36   A    
C4    C14   A    
O13   C41   S    
C25   O5    A    
C4    O16   S    
N3    Zn1   S    
C28   C36   A    
C16   C18   A    
C21   C24   A    
C24   N3    A    
C22   C23   A    
C30   N2    A    
C49   H27   S    
