data_mof_unit_43407.cif
_audit_creation_date              2013-03-05T15:42:35-0500
_audit_creation_method            fapswitch 2.2
_symmetry_space_group_name_H-M    P1
_symmetry_Int_Tables_number       1
_space_group_crystal_system       triclinic
_cell_length_a                    29.305037
_cell_length_b                    17.556341
_cell_length_c                    18.98971
_cell_angle_alpha                 90.149064
_cell_angle_beta                  138.986131
_cell_angle_gamma                 90.45002
_cell_volume                      6410.74291633

loop_
_atom_site_label
_atom_site_type_symbol
_atom_site_description
_atom_site_fract_x
_atom_site_fract_y
_atom_site_fract_z
_atom_type_partial_charge
C1    C     C_R   0.685567 0.898172 0.796625 -0.195785
C2    C     C_R   0.676301 0.087601 0.812634 -0.136558
C3    C     C_R   0.185568 0.398171 0.796625 -0.195785
C4    C     C_R   0.176300 0.587606 0.812632 -0.136669
H1    H     H_    0.735268 0.927512 0.851327 0.131035
H2    H     H_    0.723366 0.055306 0.871903 0.119322
H3    H     H_    0.235268 0.427513 0.851326 0.131003
H4    H     H_    0.223368 0.555315 0.871908 0.119292
N1    N     N_R   0.625250 0.928170 0.708660 -0.068515
N2    N     N_R   0.625250 0.071830 0.708660 -0.067858
N3    N     N_R   0.125250 0.428170 0.708660 -0.068510
N4    N     N_R   0.125250 0.571830 0.708660 -0.067844
C5    C     C_R   0.331071 0.097488 0.421746 -0.020597
C6    C     C_R   0.357761 0.925927 0.482946 -0.022553
C7    C     C_R   0.831056 0.597496 0.421699 -0.020692
C8    C     C_R   0.857766 0.425932 0.482955 -0.022533
H5    H     H_    0.281153 0.068927 0.368685 0.165099
H6    H     H_    0.312683 0.957070 0.444939 0.156027
H7    H     H_    0.781141 0.568929 0.368634 0.165081
H8    H     H_    0.812694 0.457085 0.444958 0.156029
N5    N     N_R   0.386350 0.070500 0.452620 -0.068805
N6    N     N_R   0.386350 0.929500 0.452620 -0.058945
N7    N     N_R   0.886350 0.570500 0.452620 -0.068807
N8    N     N_R   0.886350 0.429500 0.452620 -0.058936
C9    C     C_R   0.442203 0.838587 0.577351 -0.032462
C10   C     C_R   0.409641 0.191423 0.504448 -0.122915
C11   C     C_R   0.942206 0.338589 0.577355 -0.032467
C12   C     C_R   0.909626 0.691429 0.504411 -0.122965
H9    H     H_    0.478567 0.795755 0.634600 0.176438
H10   H     H_    0.426057 0.249387 0.518786 0.215206
H11   H     H_    0.978571 0.295758 0.634606 0.176420
H12   H     H_    0.926053 0.749392 0.518777 0.215086
N9    N     N_R   0.437960 0.869720 0.507940 -0.039865
N10   N     N_R   0.437960 0.130280 0.507940 -0.056134
N11   N     N_R   0.937960 0.369720 0.507940 -0.039840
N12   N     N_R   0.937960 0.630280 0.507940 -0.056113
C13   C     C_R   0.597488 0.182956 0.724890 0.412000
C14   C     C_R   0.603281 0.806079 0.704382 0.488953
C15   C     C_R   0.097484 0.682962 0.724876 0.412080
C16   C     C_R   0.103281 0.306078 0.704378 0.488926
N13   N     N_R   0.573630 0.128950 0.653340 -0.094549
N14   N     N_R   0.573630 0.871050 0.653340 -0.105445
N15   N     N_R   0.073630 0.628950 0.653340 -0.094544
N16   N     N_R   0.073630 0.371050 0.653340 -0.105448
C17   C     C_R   0.673940 0.822738 0.800013 -0.023270
C18   C     C_R   0.659615 0.154703 0.827240 -0.024802
C19   C     C_R   0.173942 0.322736 0.800008 -0.023293
C20   C     C_R   0.159611 0.654711 0.827230 -0.024790
C21   C     C_R   0.345755 0.171486 0.455603 0.063895
C22   C     C_R   0.393658 0.873432 0.565011 0.015930
C23   C     C_R   0.845723 0.671502 0.455516 0.064047
C24   C     C_R   0.893663 0.373437 0.565019 0.015915
C25   C     C_R   0.660585 0.097622 0.563871 -0.162977
C26   C     C_R   0.635416 0.926981 0.511947 -0.155295
C27   C     C_R   0.160585 0.597620 0.563871 -0.163038
C28   C     C_R   0.135406 0.426991 0.511931 -0.155479
H13   H     H_    0.710806 0.071592 0.617163 0.116496
H14   H     H_    0.678856 0.960127 0.543343 0.132605
H15   H     H_    0.210807 0.571592 0.617168 0.116482
H16   H     H_    0.178842 0.460141 0.543322 0.132614
N17   N     N_R   0.609990 0.071870 0.547380 -0.063067
N18   N     N_R   0.609990 0.928130 0.547380 -0.066106
N19   N     N_R   0.109990 0.571870 0.547380 -0.063064
N20   N     N_R   0.109990 0.428130 0.547380 -0.066091
C29   C     C_R   0.311398 0.882335 0.219291 0.423084
C30   C     C_R   0.318387 0.094623 0.189813 0.384739
C31   C     C_R   0.811392 0.382342 0.219287 0.423146
C32   C     C_R   0.818361 0.594663 0.189835 0.384786
N21   N     N_R   0.371090 0.922150 0.291340 -0.074415
N22   N     N_R   0.371090 0.077850 0.291340 -0.080301
N23   N     N_R   0.871090 0.422150 0.291340 -0.074424
N24   N     N_R   0.871090 0.577850 0.291340 -0.080308
C33   C     C_R   0.558217 0.830328 0.430986 0.372114
C34   C     C_R   0.581406 0.189620 0.479963 0.396207
C35   C     C_R   0.058216 0.330332 0.430980 0.372247
C36   C     C_R   0.081403 0.689616 0.479951 0.396208
N25   N     N_R   0.558380 0.869490 0.492060 -0.067382
N26   N     N_R   0.558380 0.130510 0.492060 -0.086429
N27   N     N_R   0.058380 0.369490 0.492060 -0.067430
N28   N     N_R   0.058380 0.630510 0.492060 -0.086422
C37   C     C_R   0.406074 0.176073 0.278636 -0.107895
C38   C     C_R   0.396880 0.808163 0.295950 -0.116716
C39   C     C_R   0.906056 0.676098 0.278646 -0.107883
C40   C     C_R   0.896870 0.308164 0.295944 -0.117213
H17   H     H_    0.436667 0.225013 0.299771 0.178273
H18   H     H_    0.424790 0.756295 0.325330 0.204262
H19   H     H_    0.936648 0.725039 0.299781 0.178262
H20   H     H_    0.924778 0.256295 0.325325 0.204236
N29   N     N_R   0.422710 0.124520 0.346660 -0.066304
N30   N     N_R   0.422710 0.875480 0.346660 -0.061494
N31   N     N_R   0.922710 0.624520 0.346660 -0.066290
N32   N     N_R   0.922710 0.375480 0.346660 -0.061457
Ni1   Ni    Ni4+2 0.616550 0.000000 0.626870 0.224912
Ni2   Ni    Ni4+2 0.116550 0.500000 0.626870 0.224873
Ni3   Ni    Ni4+2 0.379790 0.000000 0.373130 0.303441
Ni4   Ni    Ni4+2 0.879790 0.500000 0.373130 0.303418
Ni5   Ni    Ni4+2 0.498170 0.870760 0.500000 0.346388
Ni6   Ni    Ni4+2 0.498170 0.129240 0.500000 0.319678
Ni7   Ni    Ni4+2 0.998170 0.370760 0.500000 0.346361
Ni8   Ni    Ni4+2 0.998170 0.629240 0.500000 0.319701
C41   C     C_R   0.642008 0.168259 0.516373 0.080491
C42   C     C_R   0.602375 0.868873 0.437062 0.060464
C43   C     C_R   0.142005 0.668253 0.516363 0.080486
C44   C     C_R   0.102370 0.368881 0.437049 0.060584
C45   C     C_R   0.326561 0.810254 0.215326 -0.050672
C46   C     C_R   0.339889 0.158755 0.177788 -0.031526
C47   C     C_R   0.826548 0.310258 0.215326 -0.050529
C48   C     C_R   0.839857 0.658801 0.177811 -0.031620
C49   C     C_3   0.661132 0.239950 0.934288 0.157160
C50   C     C_3   0.679523 0.717896 0.891802 0.196828
C51   C     C_3   0.161152 0.740052 0.934235 0.157430
C52   C     C_3   0.179543 0.217870 0.891789 0.196854
H21   H     H_    0.638814 0.288097 0.880764 0.215071
H22   H     H_    0.659170 0.677032 0.828936 0.209274
H23   H     H_    0.138896 0.788199 0.880731 0.215074
H24   H     H_    0.159183 0.177019 0.828908 0.209264
C53   C     C_3   0.205741 0.776869 0.042958 -0.344381
C54   C     C_3   0.225830 0.172268 0.991565 -0.380684
C55   C     C_3   0.705719 0.276762 0.043021 -0.344377
C56   C     C_3   0.725799 0.672311 0.991591 -0.380631
H25   H     H_    0.194074 0.752102 0.082041 0.246153
H26   H     H_    0.204422 0.174257 0.020745 0.259189
H27   H     H_    0.694110 0.251927 0.082158 0.246092
H28   H     H_    0.704390 0.674330 0.020767 0.259206
H29   H     H_    0.692075 0.337976 0.029848 0.228293
H30   H     H_    0.725769 0.612819 0.971132 0.239790
H31   H     H_    0.192157 0.838105 0.029791 0.228272
H32   H     H_    0.225808 0.112788 0.971086 0.239789
C57   C     C_3   0.766161 0.235765 0.966979 0.156908
C58   C     C_3   0.786076 0.748446 0.937457 0.135053
C59   C     C_3   0.266212 0.735684 0.967021 0.157149
C60   C     C_3   0.286086 0.248446 0.937428 0.134981
C61   C     C_3   0.244213 0.632907 0.028121 -0.416495
C62   C     C_3   0.252854 0.334901 0.997579 -0.412182
C63   C     C_3   0.744285 0.132899 0.028158 -0.416536
C64   C     C_3   0.752838 0.834930 0.997578 -0.412187
C65   C     C_3   0.705717 0.190859 0.934522 0.063527
C66   C     C_3   0.721788 0.781014 0.902995 0.048511
C67   C     C_3   0.205717 0.690870 0.934511 0.063125
C68   C     C_3   0.221801 0.281000 0.902984 0.048552
H33   H     H_    0.274256 0.590824 0.032261 0.165061
H34   H     H_    0.286889 0.379713 0.013466 0.167142
H35   H     H_    0.774344 0.090866 0.032277 0.165128
H36   H     H_    0.786875 0.879736 0.013460 0.167170
H37   H     H_    0.707104 0.099049 0.017275 0.244588
H38   H     H_    0.711383 0.865640 0.978009 0.236866
H39   H     H_    0.206986 0.599111 0.017179 0.244601
H40   H     H_    0.211401 0.365605 0.978022 0.236844
C69   C     C_3   0.282961 0.765369 0.115477 0.053749
C70   C     C_3   0.300059 0.204319 0.080431 0.084565
C71   C     C_3   0.782938 0.265373 0.115473 0.054053
C72   C     C_3   0.800031 0.704354 0.080452 0.084575
C73   C     C_3   0.299245 0.792694 0.057199 0.135764
C74   C     C_3   0.332127 0.201229 0.042491 0.136528
C75   C     C_3   0.799129 0.292798 0.057097 0.135909
C76   C     C_3   0.832101 0.701232 0.042516 0.136484
C77   C     C_3   0.295915 0.677861 0.136803 -0.411638
C78   C     C_3   0.296746 0.288749 0.101000 -0.401979
C79   C     C_3   0.795982 0.177872 0.136825 -0.411806
C80   C     C_3   0.796727 0.788791 0.101008 -0.401928
H41   H     H_    0.289378 0.658770 0.184654 0.225902
H42   H     H_    0.273334 0.292195 0.127254 0.233044
H43   H     H_    0.789511 0.158724 0.184743 0.225928
H44   H     H_    0.773318 0.792258 0.127264 0.233062
H45   H     H_    0.350077 0.664973 0.183706 0.189073
H46   H     H_    0.349866 0.314451 0.166066 0.194198
H47   H     H_    0.850143 0.165060 0.183667 0.188987
H48   H     H_    0.849851 0.814488 0.166069 0.194204
H49   H     H_    0.807565 0.193724 0.003669 0.097378
H50   H     H_    0.818352 0.798045 0.957495 0.104159
H51   H     H_    0.307565 0.693580 0.003662 0.097652
H52   H     H_    0.318354 0.298052 0.957457 0.104133
H53   H     H_    0.356397 0.792906 0.114576 0.136639
H54   H     H_    0.384602 0.228757 0.105673 0.120150
H55   H     H_    0.856270 0.293142 0.114435 0.134919
H56   H     H_    0.884583 0.728745 0.105700 0.120105
C81   C     C_R   0.632441 0.836494 0.410158 -0.050704
C82   C     C_R   0.685966 0.218576 0.524345 -0.057545
C83   C     C_R   0.132450 0.336502 0.410164 -0.051613
C84   C     C_R   0.185963 0.718566 0.524332 -0.057529
C85   C     C_R   0.307829 0.216368 0.460000 -0.009472
C86   C     C_R   0.375682 0.851958 0.617104 0.022148
C87   C     C_R   0.807795 0.716365 0.459929 -0.009509
C88   C     C_R   0.875688 0.351962 0.617113 0.022149
C89   C     C_R   0.306087 0.268101 0.574454 -0.103748
C90   C     C_R   0.371122 0.747385 0.695163 -0.107011
C91   C     C_R   0.806036 0.767979 0.574406 -0.103810
C92   C     C_R   0.871126 0.247385 0.695166 -0.106920
C93   C     C_R   0.341613 0.233434 0.562553 -0.121751
C94   C     C_R   0.406780 0.788450 0.684798 -0.128487
C95   C     C_R   0.841568 0.733361 0.562490 -0.121960
C96   C     C_R   0.906784 0.288451 0.684804 -0.128536
C97   C     C_R   0.238591 0.235972 0.366813 0.303991
C98   C     C_R   0.314065 0.879717 0.575134 0.287885
C99   C     C_R   0.738562 0.736001 0.366749 0.303817
C100  C     C_R   0.814072 0.379723 0.575149 0.287885
C101  C     C_R   0.201939 0.271229 0.378552 -0.003407
C102  C     C_R   0.271410 0.828332 0.560975 0.010924
C103  C     C_R   0.701909 0.771239 0.378502 -0.002669
C104  C     C_R   0.771417 0.328339 0.560990 0.010954
C105  C     C_R   0.736525 0.785578 0.483532 0.121441
C106  C     C_R   0.800984 0.263254 0.625698 0.119688
C107  C     C_R   0.236566 0.285655 0.483572 0.121505
C108  C     C_R   0.300980 0.763251 0.625691 0.119729
C109  C     C_R   0.701373 0.816512 0.497876 -0.203476
C110  C     C_R   0.758623 0.212898 0.613728 -0.203922
C111  C     C_R   0.201410 0.316612 0.497898 -0.203691
C112  C     C_R   0.258620 0.712895 0.613721 -0.203950
C113  C     C_R   0.596364 0.824894 0.304347 0.443622
C114  C     C_R   0.656930 0.273929 0.445465 0.533789
C115  C     C_R   0.096362 0.324789 0.304362 0.447049
C116  C     C_R   0.156927 0.773912 0.445444 0.533753
C117  C     C_R   0.631749 0.791447 0.289445 -0.207520
C118  C     C_R   0.699243 0.333722 0.471327 -0.199361
C119  C     C_R   0.131762 0.291353 0.289487 -0.206815
C120  C     C_R   0.199236 0.833707 0.471303 -0.199313
H57   H     H_    0.727955 0.824907 0.578866 0.161701
H58   H     H_    0.782417 0.167805 0.671283 0.149571
H59   H     H_    0.228005 0.325072 0.578888 0.161726
H60   H     H_    0.282415 0.667806 0.671283 0.149537
H61   H     H_    0.832407 0.779307 0.654619 0.162467
H62   H     H_    0.894821 0.197498 0.745446 0.162001
H63   H     H_    0.332468 0.279489 0.654662 0.162402
H64   H     H_    0.394819 0.697501 0.745447 0.161954
H65   H     H_    0.104008 0.281444 0.208402 0.222901
H66   H     H_    0.176686 0.878168 0.413212 0.210107
H67   H     H_    0.604008 0.781622 0.208354 0.222831
H68   H     H_    0.676693 0.378187 0.413241 0.210076
H69   H     H_    0.394880 0.216790 0.633778 0.170769
H70   H     H_    0.455982 0.767387 0.723757 0.196617
H71   H     H_    0.894831 0.716696 0.633706 0.170809
H72   H     H_    0.955987 0.267389 0.723763 0.196607
Br1   Br    Br    0.585794 0.181059 0.891973 -0.514875
Br2   Br    Br    0.603924 0.758330 0.863691 -0.525021
Br3   Br    Br    0.085754 0.681269 0.891871 -0.514895
Br4   Br    Br    0.103953 0.258282 0.863715 -0.524972
Br5   Br    Br    0.755497 0.271611 0.857512 -0.308252
Br6   Br    Br    0.764430 0.698735 0.822670 -0.320220
Br7   Br    Br    0.255564 0.771527 0.857568 -0.307964
Br8   Br    Br    0.264427 0.198745 0.822625 -0.320203
Br9   Br    Br    0.270265 0.897470 0.004863 -0.297246
Br10  Br    Br    0.349668 0.095984 0.032807 -0.300509
Br11  Br    Br    0.769969 0.397527 0.004627 -0.297536
Br12  Br    Br    0.849616 0.595972 0.032828 -0.300776
S1    S     S_3+6 0.508749 0.851700 0.189100 0.039011
O1    O     O_2   0.481413 0.899744 0.216450 -0.265176
O2    O     O_2   0.504331 0.896165 0.116641 -0.168342
O3    O     O_3   0.458803 0.772794 0.122518 -0.472139
H73   H     H_    0.463670 0.745578 0.173458 0.342538
S2    S     S_3+6 0.574731 0.262121 0.307952 -0.012362
O4    O     O_2   0.526997 0.324745 0.274609 -0.252832
O5    O     O_2   0.585753 0.267748 0.242573 -0.239693
O6    O     O_3   0.537717 0.176977 0.282911 -0.543126
H74   H     H_    0.500905 0.169995 0.204059 0.402673
S3    S     S_3+6 0.008695 0.351357 0.189062 0.038550
O7    O     O_2   0.981208 0.399262 0.216263 -0.266899
O8    O     O_2   0.004154 0.395870 0.116496 -0.168470
O9    O     O_3   0.959016 0.272263 0.122709 -0.472030
H75   H     H_    0.961922 0.246443 0.172293 0.342826
S4    S     S_3+6 0.074733 0.762092 0.307930 -0.012312
O10   O     O_2   0.026994 0.824716 0.274569 -0.252779
O11   O     O_2   0.085760 0.767705 0.242558 -0.239609
O12   O     O_3   0.037722 0.676948 0.282902 -0.543143
H76   H     H_    0.000852 0.670005 0.204039 0.402632
Br13  Br    Br    0.196618 0.214871 0.227236 -0.470740
Br14  Br    Br    0.292371 0.986767 0.553857 -0.471772
Br15  Br    Br    0.696598 0.714966 0.227168 -0.470892
Br16  Br    Br    0.792383 0.486774 0.553877 -0.471984
S5    S     S_3+6 0.566678 0.278744 0.685315 -0.000039
O13   O     O_2   0.625137 0.335743 0.747369 -0.147039
O14   O     O_2   0.521518 0.287769 0.569390 -0.261047
O15   O     O_3   0.520272 0.302114 0.703148 -0.500339
H77   H     H_    0.501485 0.253572 0.699797 0.331215
S6    S     S_3+6 0.561769 0.717961 0.630906 -0.030276
O16   O     O_2   0.537483 0.673184 0.665556 -0.267428
O17   O     O_2   0.498834 0.734594 0.514313 -0.317998
O18   O     O_3   0.614714 0.663495 0.644434 -0.439846
H78   H     H_    0.586760 0.617316 0.600242 0.419085
S7    S     S_3+6 0.066694 0.778755 0.685263 -0.000071
O19   O     O_2   0.125168 0.835724 0.747242 -0.147108
O20   O     O_2   0.021497 0.787727 0.569315 -0.261173
O21   O     O_3   0.020336 0.802224 0.703157 -0.500146
H79   H     H_    0.001444 0.753726 0.699676 0.331260
S8    S     S_3+6 0.061768 0.217962 0.630894 -0.030300
O22   O     O_2   0.037485 0.173180 0.665546 -0.267405
O23   O     O_2   0.998831 0.234599 0.514304 -0.318014
O24   O     O_3   0.114710 0.163502 0.644410 -0.439899
H80   H     H_    0.086762 0.117318 0.600236 0.419088
Br17  Br    Br    0.243388 0.893557 0.214114 -0.480756
Br18  Br    Br    0.230932 0.041252 0.099003 -0.434116
Br19  Br    Br    0.743392 0.393569 0.214129 -0.480815
Br20  Br    Br    0.730888 0.541354 0.099090 -0.434013
Br21  Br    Br    0.541168 0.722727 0.401656 -0.487267
Br22  Br    Br    0.557533 0.294120 0.466838 -0.359961
Br23  Br    Br    0.041145 0.222737 0.401603 -0.486346
Br24  Br    Br    0.057530 0.794120 0.466803 -0.359892

loop_
_geom_bond_atom_site_label_1
_geom_bond_atom_site_label_2
_geom_bond_distance
_ccdc_geom_bond_type
S3    O8    1.502620 D    
C27   H15   1.079030 S    
N18   N25   1.422362 A    
C102  C120  1.396725 A    
C51   C67   1.567988 S    
C59   H51   1.115076 S    
O21   H79   0.986360 S    
N27   Ni7   1.881125 S    
S8    O22   1.502687 D    
C23   C87   1.420143 S    
N8    Ni4   1.850140 S    
N16   Ni7   1.910890 S    
S2    O5    1.503587 D    
C73   H53   1.112772 S    
S6    O16   1.502689 D    
C38   C45   1.353576 A    
C69   C73   1.574419 S    
C14   C17   1.408576 A    
C72   C76   1.558078 S    
O15   H77   0.986359 S    
C86   C98   1.406177 A    
C71   C75   1.574401 S    
N31   Ni8   1.911666 S    
C4    N4    1.321438 A    
S1    O3    1.681149 S    
C36   C43   1.389770 A    
S1    O1    1.503035 D    
N2    N13   1.424328 A    
C9    H9    1.073062 S    
C83   C111  1.383749 A    
C63   C79   1.559398 S    
C11   H11   1.073072 S    
C24   C88   1.477649 S    
C34   Br22  1.917505 S    
N14   Ni5   1.910890 S    
N24   N31   1.281070 A    
C14   S6    1.793811 S    
C11   N11   1.345019 A    
C120  H66   1.084145 S    
C94   H70   1.078451 S    
C90   C94   1.396311 A    
C8    H8    1.067489 S    
C5    N5    1.331437 A    
C34   C41   1.389771 A    
S4    O11   1.503583 D    
C61   C67   1.571393 S    
S5    O14   1.493716 D    
C102  C108  1.408004 A    
N20   N27   1.422362 A    
C58   C66   1.569306 S    
C63   C65   1.571376 S    
C57   Br5   1.960737 S    
S8    O24   1.676516 S    
C40   H20   1.065426 S    
N21   Ni3   1.931650 S    
C55   H27   1.113130 S    
C39   N31   1.337190 A    
C29   Br17  1.931660 S    
N20   Ni2   1.859023 S    
C6    C22   1.390427 A    
C82   C110  1.405266 A    
C92   C106  1.400646 A    
C79   H47   1.112228 S    
C56   H30   1.113206 S    
S7    O20   1.493707 D    
C3    N3    1.324944 A    
N24   Ni4   1.940182 S    
C57   C65   1.570659 S    
C104  C106  1.408004 A    
N7    N12   1.436710 A    
C89   H63   1.084694 S    
N18   Ni1   1.859023 S    
C33   N25   1.343604 A    
C53   C69   1.537483 S    
C86   C94   1.407722 A    
C35   N27   1.343637 A    
C64   H38   1.111179 S    
C49   Br1   1.967616 S    
C46   C70   1.478545 S    
C73   Br9   1.962904 S    
C52   C68   1.545004 S    
C98   Br14  1.932523 S    
C30   N22   1.305997 A    
N19   Ni2   1.866388 S    
C109  H57   1.087638 S    
O6    H74   0.990046 S    
C40   C47   1.353651 A    
C82   C114  1.417485 A    
C43   C84   1.466222 S    
C54   H26   1.107546 S    
C77   H41   1.112644 S    
C84   C116  1.417481 A    
C9    C22   1.401547 A    
C41   C82   1.466234 S    
C76   Br12  1.966711 S    
C25   N17   1.337475 A    
N23   N32   1.299630 A    
C27   N19   1.337466 A    
C19   C68   1.487476 S    
C104  C118  1.396727 A    
C28   N20   1.328573 A    
N25   Ni5   1.881125 S    
C61   H39   1.110160 S    
C50   H22   1.099945 S    
N9    Ni5   1.880787 S    
C47   C71   1.472791 S    
C63   H35   1.110496 S    
O18   H78   0.990555 S    
C22   C86   1.477638 S    
C13   S5    1.792908 S    
C29   C45   1.365053 A    
C99   C103  1.399187 A    
N19   N28   1.443359 A    
C74   H54   1.113033 S    
C108  C112  1.389293 A    
C77   H45   1.112227 S    
N5    Ni3   1.842851 S    
C71   C79   1.564924 S    
C51   Br3   1.967657 S    
N3    N16   1.403598 A    
C18   C65   1.484852 S    
C21   C85   1.420086 S    
C95   H71   1.083762 S    
C62   C78   1.542887 S    
C10   H10   1.065066 S    
C7    C23   1.362195 A    
C100  Br16  1.932525 S    
N22   N29   1.281070 A    
C52   H24   1.099940 S    
C85   C97   1.400883 A    
C90   H64   1.083633 S    
C16   S8    1.793815 S    
C103  C117  1.407297 A    
C36   N28   1.345086 A    
S4    O10   1.502539 D    
C58   C76   1.565831 S    
C89   C93   1.367348 A    
C60   H52   1.113508 S    
C5    H5    1.080777 S    
N29   Ni6   1.911666 S    
C51   C53   1.515388 S    
C6    N6    1.328520 A    
S8    O23   1.496106 D    
O9    H75   0.990518 S    
C60   Br8   1.951979 S    
C1    C17   1.378599 A    
C98   C102  1.386518 A    
S2    O6    1.682162 S    
C3    C19   1.378602 A    
C17   C66   1.487459 S    
C61   C77   1.559406 S    
C13   N13   1.335371 A    
C59   C67   1.570625 S    
C64   C80   1.542885 S    
C75   H55   1.112626 S    
C16   N16   1.321331 A    
C105  C109  1.364448 A    
C40   N32   1.333080 A    
C114  S2    1.777982 S    
C37   H17   1.070606 S    
S3    O7    1.503083 D    
N32   Ni7   1.913827 S    
C9    N9    1.345017 A    
S6    O17   1.496111 D    
C75   Br11  1.962903 S    
C39   H19   1.070598 S    
S6    O18   1.676516 S    
C74   Br10  1.966698 S    
O12   H76   0.990031 S    
C80   H48   1.112202 S    
C7    H7    1.080782 S    
C1    H1    1.080730 S    
C80   H44   1.113384 S    
C3    H3    1.080730 S    
C26   H14   1.075099 S    
C12   C23   1.362134 A    
N17   Ni1   1.866388 S    
C44   C83   1.430515 S    
C39   C48   1.379886 A    
C54   C70   1.527209 S    
C35   Br23  1.920480 S    
C48   C72   1.478489 S    
C85   C93   1.394698 A    
C25   C41   1.386822 A    
C63   H37   1.110163 S    
C87   C99   1.400934 A    
S7    O19   1.498435 D    
C88   C96   1.407724 A    
C99   Br15  1.934697 S    
N30   Ni5   1.913827 S    
C100  C104  1.386530 A    
C37   N29   1.337205 A    
S3    O9    1.681147 S    
S5    O13   1.498420 D    
N4    Ni2   1.858711 S    
S4    O12   1.682157 S    
C1    N1    1.324936 A    
N15   Ni8   1.911023 S    
C28   C44   1.378229 A    
C10   C21   1.362087 A    
C57   C75   1.531458 S    
C25   H13   1.079028 S    
N23   Ni4   1.931650 S    
C91   H61   1.084692 S    
N2    Ni1   1.858711 S    
S2    O4    1.502536 D    
C52   Br4   1.984700 S    
C116  S4    1.777979 S    
C2    C18   1.384163 A    
C28   H16   1.075091 S    
C119  H65   1.081279 S    
C93   H69   1.083744 S    
C117  H67   1.081277 S    
C62   H34   1.112257 S    
O24   H80   0.990519 S    
C12   H12   1.065070 S    
N12   Ni8   1.881048 S    
C53   H31   1.111160 S    
C55   H29   1.111131 S    
N3    Ni2   1.866894 S    
C33   C42   1.380692 A    
S1    O2    1.502620 D    
C35   C44   1.380711 A    
C113  S1    1.774249 S    
C62   H40   1.111179 S    
O3    H73   0.989768 S    
C49   C55   1.515501 S    
C57   H49   1.115077 S    
C96   H72   1.078461 S    
C76   H56   1.113035 S    
C70   C78   1.554225 S    
C26   C42   1.378218 A    
C8    C24   1.390434 A    
C115  S3    1.774007 S    
C14   N14   1.321327 A    
N5    N10   1.436710 A    
C60   C68   1.569327 S    
C26   N18   1.328576 A    
C91   C105  1.389495 A    
C61   H33   1.110499 S    
C38   N30   1.333065 A    
C92   C96   1.396314 A    
C89   C107  1.389493 A    
C64   H36   1.112255 S    
C88   C100  1.406180 A    
C38   H18   1.065426 S    
C58   H50   1.113511 S    
C29   N21   1.335858 A    
N10   Ni6   1.881048 S    
C81   C109  1.383699 A    
C31   N23   1.335885 A    
C113  C117  1.397023 A    
C15   S7    1.792907 S    
C12   N12   1.332994 A    
C34   N26   1.345064 A    
S5    O15   1.683884 S    
C103  C105  1.417930 A    
C13   C18   1.420370 A    
C69   C77   1.564861 S    
C50   Br2   1.984683 S    
C15   C20   1.420382 A    
C92   H62   1.083632 S    
C112  H60   1.081942 S    
C16   C19   1.408587 A    
C115  C119  1.396959 A    
C72   C80   1.554208 S    
C27   C43   1.386803 A    
N6    Ni3   1.850140 S    
C6    H6    1.067486 S    
C4    H4    1.078662 S    
C110  H58   1.081940 S    
N1    N14   1.403598 A    
C49   C65   1.568084 S    
C36   Br24  1.917518 S    
N4    N15   1.424328 A    
C62   C68   1.568814 S    
C83   C115  1.409005 A    
N7    Ni4   1.842851 S    
C33   Br21  1.920466 S    
S7    O21   1.683898 S    
C81   C113  1.408993 A    
C53   H25   1.113128 S    
C10   N10   1.332936 A    
C116  C120  1.392318 A    
C59   Br7   1.960747 S    
N26   Ni6   1.880806 S    
C118  H68   1.084145 S    
C91   C95   1.367343 A    
C101  C119  1.407198 A    
C32   N24   1.305968 A    
C7    N7    1.331443 A    
C8    N8    1.328526 A    
N28   Ni8   1.880806 S    
C2    H2    1.078655 S    
C54   H32   1.113204 S    
C30   C46   1.387167 A    
N11   Ni7   1.880787 S    
C55   C71   1.537474 S    
C56   C72   1.527203 S    
N8    N11   1.457903 A    
C59   C73   1.531521 S    
C64   C66   1.568832 S    
C50   C56   1.489070 S    
C15   N15   1.335313 A    
C114  C118  1.392321 A    
C107  C111  1.364457 A    
C60   C74   1.565861 S    
N17   N26   1.443359 A    
C90   C108  1.400642 A    
C5    C21   1.362215 A    
C50   C66   1.545023 S    
C106  C110  1.389304 A    
C79   H43   1.112646 S    
N21   N30   1.299630 A    
C2    N2    1.321442 A    
N1    Ni1   1.866894 S    
C11   C24   1.401555 A    
C4    C20   1.384179 A    
N6    N9    1.457903 A    
C37   C46   1.379903 A    
C58   Br6   1.951984 S    
C20   C67   1.484838 S    
C31   Br19  1.931644 S    
C87   C95   1.394687 A    
C49   H21   1.088713 S    
C45   C69   1.472778 S    
C111  H59   1.087633 S    
C97   Br13  1.934736 S    
C32   Br20  1.924629 S    
N22   Ni3   1.940182 S    
C52   C54   1.489062 S    
C31   C47   1.365012 A    
C97   C101  1.399132 A    
C101  C107  1.417913 A    
C78   H42   1.113381 S    
C78   H46   1.112203 S    
C30   Br18  1.924650 S    
C70   C74   1.558068 S    
C42   C81   1.430446 S    
N13   Ni6   1.911023 S    
C51   H23   1.088718 S    
C32   C48   1.387137 A    
C84   C112  1.405263 A    
C56   H28   1.107547 S    
