data_mof_unit_67160.cif
_audit_creation_date              2012-12-11T17:48:43-0500
_audit_creation_method            fapswitch 2.2
_symmetry_space_group_name_H-M    P1
_symmetry_Int_Tables_number       1
_space_group_crystal_system       triclinic
_cell_length_a                    8.242671
_cell_length_b                    12.634107
_cell_length_c                    14.929824
_cell_angle_alpha                 96.624579
_cell_angle_beta                  98.017744
_cell_angle_gamma                 98.293487
_cell_volume                      1508.84241662

loop_
_atom_site_label
_atom_site_type_symbol
_atom_type_description
_atom_site_fract_x
_atom_site_fract_y
_atom_site_fract_z
_atom_type_partial_charge
Ba1   Ba    Ba6+2 0.843750 0.550210 0.455600 1.707763
Ba2   Ba    Ba6+2 0.346090 0.449880 0.544410 1.726212
C1    C     C_3   0.586985 0.899153 0.118285 0.315367
C2    C     C_R   0.895265 0.440592 0.923128 -0.077535
C3    C     C_R   0.036541 0.457800 0.110659 -0.028937
C4    C     C_3   0.112143 0.830891 0.208162 0.260944
C5    C     C_R   0.878099 0.398051 0.076906 -0.042626
C6    C     C_R   0.807314 0.392121 0.985896 -0.094858
C7    C     C_R   0.106012 0.469848 0.204903 0.047987
C8    C     C_R   0.266471 0.527764 0.233332 -0.286661
C9    C     C_R   0.084070 0.530639 0.796196 0.005190
C10   C     C_R   0.151170 0.545674 0.890801 -0.058973
C11   C     C_R   0.058489 0.497394 0.953769 0.020843
C12   C     C_3   0.552685 0.822288 0.187533 0.292765
C13   C     C_R   0.310931 0.603377 0.924053 0.057080
C14   C     C_R   0.382300 0.607764 0.014776 -0.051099
C15   C     C_R   0.292862 0.561619 0.078129 -0.019899
C16   C     C_3   0.027319 0.849541 0.115073 0.236256
C17   C     C_R   0.128692 0.506590 0.047827 0.049000
C18   C     C_R   0.362437 0.569824 0.171123 -0.046676
C19   C     C_R   0.929178 0.464841 0.767314 0.074292
C20   C     C_R   0.775995 0.176879 0.524743 -0.262365
C21   C     C_R   0.424259 0.806201 0.456210 -0.268177
C22   C     C_R   0.390800 0.985108 0.424258 -0.093647
C23   C     C_3   0.414674 0.293587 0.266097 0.315382
C24   C     C_R   0.326354 0.876598 0.419009 -0.051490
C25   C     C_R   0.581323 0.845451 0.507720 0.074516
C26   C     C_R   0.647464 0.957326 0.516292 -0.058986
C27   C     C_R   0.551090 0.026998 0.471975 -0.048492
C28   C     C_3   0.269283 0.777683 0.648361 0.333933
C29   C     C_R   0.616286 0.137510 0.478429 0.022624
C30   C     C_R   0.872801 0.110650 0.567724 -0.008438
C31   C     C_R   0.806741 0.002068 0.566780 -0.099850
C32   C     C_3   0.339319 0.897402 0.670874 -0.361250
C33   C     C_3   0.920639 0.216942 0.342234 0.281307
C34   C     C_3   0.376703 0.267376 0.162651 -0.372332
C35   C     C_3   0.875353 0.095310 0.315532 -0.378694
C36   C     C_3   0.838626 0.749739 0.739666 0.688545
C37   C     C_3   0.771079 0.692728 0.814395 -0.308393
C38   C     C_3   0.480218 0.025077 0.037981 0.259513
C39   C     C_3   0.121007 0.224382 0.793745 0.370111
C40   C     C_3   0.160352 0.196809 0.890118 -0.357434
C41   C     C_3   0.613623 0.166349 0.754981 0.295660
C42   C     C_3   0.683113 0.087889 0.813935 -0.407818
C43   C     C_R   0.827740 0.429152 0.829705 -0.031056
Cl1   Cl    Cl    0.986332 0.864430 0.793061 -0.692763
Cl2   Cl    Cl    0.139423 0.809266 0.027080 -0.716338
Cl3   Cl    Cl    0.868929 0.417179 0.651430 -0.689686
H1    H     H_    0.567288 0.868716 0.256906 0.009000
H2    H     H_    0.898366 0.693277 0.697734 -0.022008
H3    H     H_    0.714298 0.946051 0.138913 0.007935
H4    H     H_    0.702826 0.745792 0.854543 0.128374
H5    H     H_    0.873806 0.671400 0.861585 0.104142
H6    H     H_    0.684619 0.618149 0.783063 0.080217
H7    H     H_    0.422598 0.780698 0.167365 -0.007606
H8    H     H_    0.302447 0.315511 0.291708 0.004304
H9    H     H_    0.517607 0.363292 0.283664 0.057988
H10   H     H_    0.272604 0.198648 0.142561 0.132640
H11   H     H_    0.341041 0.338107 0.132005 0.044542
H12   H     H_    0.466594 0.907895 0.709606 0.111769
H13   H     H_    0.488740 0.246365 0.135866 0.112298
H14   H     H_    0.580820 0.848972 0.050952 0.021328
H15   H     H_    0.205100 0.299761 0.788801 0.084997
H16   H     H_    0.990395 0.238171 0.782210 -0.054296
H17   H     H_    0.292766 0.187264 0.905146 0.140718
H18   H     H_    0.136808 0.262643 0.940272 0.049686
H19   H     H_    0.081209 0.120313 0.897305 0.163790
H20   H     H_    0.714990 0.203050 0.720762 -0.004642
H21   H     H_    0.513937 0.121070 0.700650 0.076509
H22   H     H_    0.778712 0.132864 0.870526 0.115419
H23   H     H_    0.343532 0.934588 0.607570 0.066523
H24   H     H_    0.740566 0.029693 0.772054 0.139957
H25   H     H_    0.124554 0.743969 0.205330 0.017122
H26   H     H_    0.582240 0.042994 0.843469 0.123739
H27   H     H_    0.805422 0.354892 0.119939 0.101572
H28   H     H_    0.683989 0.346234 0.965279 0.097254
H29   H     H_    0.508312 0.649337 0.034414 0.069459
H30   H     H_    0.385203 0.644354 0.880502 0.092309
H31   H     H_    0.321135 0.534883 0.304420 0.064656
H32   H     H_    0.311193 0.035998 0.393158 0.095757
H33   H     H_    0.883272 0.954142 0.603856 0.132615
H34   H     H_    0.260970 0.940136 0.712357 0.207196
H35   H     H_    0.829795 0.258791 0.521819 0.123066
H36   H     H_    0.236331 0.882605 0.223892 0.019025
H37   H     H_    0.372088 0.721759 0.451678 0.058598
H38   H     H_    0.900968 0.801261 0.098738 0.093702
H39   H     H_    0.017984 0.936472 0.115571 0.060297
H40   H     H_    0.359449 0.735532 0.616108 -0.010674
H41   H     H_    0.151780 0.767560 0.599989 0.066790
H42   H     H_    0.456471 0.968132 0.973148 0.080496
H43   H     H_    0.602927 0.077918 0.045236 -0.011676
H44   H     H_    0.382436 0.076658 0.033158 0.073871
H45   H     H_    0.813344 0.248743 0.365153 0.005534
H46   H     H_    0.028884 0.234424 0.397946 0.068113
H47   H     H_    0.752567 0.075893 0.270950 0.128022
H48   H     H_    0.868854 0.054298 0.376886 0.094537
H49   H     H_    0.970711 0.064650 0.278532 0.147220
O1    O     O_2   0.827880 0.435260 0.277750 -0.463197
O2    O     O_2   0.212375 0.118091 0.565584 -0.485775
O3    O     O_3   0.145445 0.138853 0.730693 -0.580932
O4    O     O_3   0.100280 0.438960 0.391170 -0.490168
O5    O     O_3   0.587780 0.631850 0.546230 -0.466228
O6    O     O_2   0.332590 0.233690 0.456160 -0.471959
O7    O     O_3   0.459416 0.202564 0.302639 -0.638422
O8    O     O_2   0.486662 0.439557 0.826470 -0.511969
O9    O     O_3   0.545085 0.240960 0.809976 -0.603068
O10   O     O_3   0.625580 0.634130 0.333250 -0.461770
O11   O     O_2   0.692877 0.548818 0.176286 -0.469919
O12   O     O_3   0.707502 0.787593 0.689908 -0.657792
O13   O     O_3   0.958572 0.262788 0.265683 -0.645412
O14   O     O_3   0.668066 0.750636 0.186833 -0.609671
O15   O     O_2   0.857130 0.766340 0.543890 -0.481741
O16   O     O_3   0.056550 0.691050 0.379010 -0.465766
O17   O     O_2   0.005227 0.882502 0.447837 -0.471996
O18   O     O_3   0.469000 0.969781 0.114314 -0.631916
O19   O     O_3   0.015336 0.860380 0.274167 -0.601282
O20   O     O_2   0.361830 0.564780 0.722310 -0.471279
O21   O     O_3   0.089430 0.561130 0.608830 -0.432875
O22   O     O_3   0.564130 0.365960 0.666760 -0.389666
O23   O     O_3   0.240759 0.737410 0.729214 -0.593493
O24   O     O_3   0.601940 0.368240 0.453770 -0.443681
O25   O     O_3   0.133170 0.309040 0.621000 -0.439902
P1    P     P_3+3 0.998730 0.403530 0.291970 0.979889
P2    P     P_3+3 0.687380 0.751030 0.571310 0.993096
P3    P     P_3+3 0.103729 0.829554 0.379456 0.966509
P4    P     P_3+3 0.190990 0.596560 0.708040 1.050412
P5    P     P_3+3 0.089318 0.168585 0.619892 0.991908
P6    P     P_3+3 0.583311 0.626144 0.215203 0.963475
P7    P     P_3+3 0.504474 0.233570 0.421675 0.952817
P8    P     P_3+3 0.606297 0.371288 0.785122 0.998776

loop_
_geom_bond_atom_site_label_1
_geom_bond_atom_site_label_2
_ccdc_geom_bond_type
O3    P5    S    
C39   C40   S    
C23   H8    S    
C2    C6    A    
C34   H11   S    
C12   H7    S    
C16   Cl2   S    
O22   P8    S    
C35   H49   S    
Ba2   O21   S    
C5    C6    A    
C16   H38   S    
C20   C30   A    
C30   P5    S    
C26   C27   A    
C33   C35   S    
C22   C24   A    
O10   P6    S    
O15   P2    D    
C34   H10   S    
Ba1   O15   S    
C36   C37   S    
O23   P4    S    
C1    H14   S    
C38   O18   S    
O16   P3    S    
Ba2   O5    S    
C13   C14   A    
C6    H28   S    
C15   C18   A    
C35   H47   S    
Ba1   Ba2   S    
C21   C24   A    
O25   P5    S    
C22   C27   A    
C15   C17   A    
C22   H32   S    
C2    C11   A    
C8    C18   A    
C41   H20   S    
C40   H17   S    
C42   H22   S    
C21   C25   A    
C7    C8    A    
C19   Cl3   S    
Ba2   O25   S    
C37   H4    S    
C43   P8    S    
C41   H21   S    
C32   H12   S    
C12   O14   S    
Ba1   O16   S    
C28   H41   S    
O5    P2    S    
Ba2   O20   S    
C19   C43   A    
C2    C43   A    
C33   H45   S    
O1    P1    D    
C4    C16   S    
C4    H36   S    
C20   C29   A    
C28   C32   S    
C23   H9    S    
C9    P4    S    
C3    C5    A    
O17   P3    D    
C11   C17   A    
C14   C15   A    
C5    H27   S    
Ba2   O4    S    
C9    C19   A    
C38   H44   S    
C35   H48   S    
C41   O9    S    
C41   C42   S    
Ba1   P1    S    
C3    C7    A    
O13   P1    S    
C10   C13   A    
Ba2   O22   S    
C39   O3    S    
O12   P2    S    
O4    P1    S    
O11   P6    D    
C36   O12   S    
C42   H26   S    
C13   H30   S    
O6    P7    D    
C4    O19   S    
C33   O13   S    
Ba1   O10   S    
C36   H2    S    
Ba2   P4    S    
C26   C31   A    
O7    P7    S    
C40   H19   S    
C39   H15   S    
C28   H40   S    
C34   H13   S    
Ba1   O4    S    
C25   C26   A    
C25   P2    S    
C12   H1    S    
C4    H25   S    
O20   P4    D    
Ba2   O24   S    
O9    P8    S    
C1    H3    S    
O24   P7    S    
Ba1   O1    S    
O2    P5    D    
C8    H31   S    
C23   O7    S    
C18   P6    S    
O8    P8    D    
C3    C17   A    
C1    C12   S    
O21   P4    S    
C16   H39   S    
O19   P3    S    
C20   H35   S    
C33   H46   S    
Ba1   P2    S    
C29   P7    S    
C1    O18   S    
C30   C31   A    
C37   H5    S    
C28   O23   S    
Ba2   O6    S    
C32   H23   S    
C7    P1    S    
C42   H24   S    
Ba1   O21   S    
C38   H43   S    
Ba1   O24   S    
C36   Cl1   S    
C23   C34   S    
C37   H6    S    
C10   C11   A    
C27   C29   A    
C21   H37   S    
O14   P6    S    
C40   H18   S    
C14   H29   S    
C32   H34   S    
C39   H16   S    
C38   H42   S    
C31   H33   S    
Ba1   O5    S    
C24   P3    S    
C9    C10   A    
