data_mof_unit_50541.cif
_audit_creation_date              2013-03-05T15:48:56-0500
_audit_creation_method            fapswitch 2.2
_symmetry_space_group_name_H-M    P1
_symmetry_Int_Tables_number       1
_space_group_crystal_system       triclinic
_cell_length_a                    6.946708
_cell_length_b                    13.530391
_cell_length_c                    20.123677
_cell_angle_alpha                 104.181176
_cell_angle_beta                  89.592734
_cell_angle_gamma                 91.050468
_cell_volume                      1833.50273453

loop_
_atom_site_label
_atom_site_type_symbol
_atom_site_description
_atom_site_fract_x
_atom_site_fract_y
_atom_site_fract_z
_atom_type_partial_charge
O1    O     O_R   0.506780 0.600060 0.449950 -0.582316
O2    O     O_R   0.179840 0.597110 0.589410 -0.602696
O3    O     O_R   0.004570 0.399940 0.550050 -0.595311
C1    C     C_R   0.348380 0.618702 0.616869 0.941029
O4    O     O_R   0.177380 0.612160 0.452890 -0.599352
O5    O     O_R   0.002100 0.415100 0.412560 -0.596489
C2    C     C_R   0.347949 0.638576 0.436333 0.949593
O6    O     O_R   0.509250 0.584900 0.587440 -0.595362
O7    O     O_3   0.337570 0.435330 0.486930 -0.278672
V1    V     V_3+5 0.064650 0.512000 0.502430 1.169703
O8    O     O_R   0.672090 0.402890 0.410590 -0.595840
C3    C     C_R   0.840391 0.381650 0.382898 0.956123
O9    O     O_R   0.674540 0.387840 0.547110 -0.594832
C4    C     C_R   0.841892 0.361361 0.563916 0.930897
V2    V     V_3+5 0.564040 0.488000 0.497570 1.181398
O10   O     O_3   0.840990 0.564670 0.513070 -0.276824
C5    C     C_R   0.821951 0.107871 0.608362 -0.176299
H1    H     H_    0.811317 0.157352 0.515040 0.103789
H2    H     H_    0.815925 0.982203 0.690558 0.128343
H3    H     H_    0.805967 0.028209 0.581692 0.117307
C6    C     C_R   0.845928 0.283999 0.603359 -0.096123
C7    C     C_R   0.890687 0.318931 0.932985 -0.309287
C8    C     C_R   0.903619 0.396803 0.898453 0.450813
C9    C     C_R   0.893042 0.371615 0.826605 -0.247088
C10   C     C_R   0.868789 0.269290 0.788225 0.028575
C11   C     C_R   0.857726 0.191180 0.824538 0.114493
C12   C     C_R   0.856804 0.241793 0.714960 0.121237
C13   C     C_R   0.836623 0.137091 0.680103 0.191874
C14   C     C_R   0.829869 0.062110 0.716909 -0.258872
C15   C     C_R   0.839563 0.088507 0.787899 -0.205059
C16   C     C_R   0.862140 0.314339 0.674773 -0.220683
C17   C     C_R   0.825313 0.180999 0.570292 -0.177453
C18   C     C_R   0.868217 0.217146 0.896968 -0.199495
H4    H     H_    0.874848 0.395126 0.697032 0.118618
H5    H     H_    0.901182 0.337144 0.988385 0.165573
H6    H     H_    0.905665 0.433671 0.802123 0.180353
H7    H     H_    0.832760 0.027258 0.813855 0.119960
C19   C     C_3   0.795785 0.157695 0.251524 -0.026515
C20   C     C_3   0.969799 0.215467 0.291854 -0.139864
H8    H     H_    0.063062 0.185862 0.326919 0.129714
H9    H     H_    0.747200 0.079647 0.252933 0.147328
C21   C     C_3   0.848588 0.312337 0.312046 -0.179426
C22   C     C_3   0.674379 0.255415 0.272423 -0.060950
C23   C     C_3   0.744096 0.287689 0.207379 -0.087436
C24   C     C_3   0.918053 0.345556 0.247853 -0.103822
C25   C     C_3   0.039274 0.247812 0.226828 -0.028150
C26   C     C_3   0.864951 0.190689 0.187224 -0.138415
H10   H     H_    0.523657 0.258782 0.291487 0.142439
H11   H     H_    0.651902 0.316429 0.171691 0.184017
H12   H     H_    0.968638 0.423489 0.246834 0.172038
H13   H     H_    0.189816 0.245544 0.207772 0.179262
C27   C     C_3   0.538276 0.721642 0.730718 -0.205592
C28   C     C_3   0.462868 0.832568 0.750595 -0.190001
H14   H     H_    0.549690 0.902393 0.751228 0.129664
H15   H     H_    0.688057 0.698836 0.715442 0.139879
C29   C     C_3   0.356909 0.809798 0.813118 -0.214386
C30   C     C_3   0.429797 0.700462 0.792699 0.414601
C31   C     C_3   0.248568 0.664411 0.749622 -0.196258
C32   C     C_3   0.174467 0.775619 0.769477 -0.115588
C33   C     C_3   0.280282 0.797995 0.706377 -0.103123
C34   C     C_3   0.355236 0.687951 0.687545 -0.133464
H16   H     H_    0.162348 0.594439 0.749516 0.146671
H17   H     H_    0.024842 0.798041 0.785285 0.138190
H18   H     H_    0.218404 0.838327 0.669850 0.106813
C35   C     C_R   0.447073 0.888289 0.393330 -0.137352
H19   H     H_    0.440586 0.836980 0.486046 0.103582
H20   H     H_    0.433942 0.016491 0.314484 0.150684
H21   H     H_    0.479511 0.966453 0.420272 0.113390
C36   C     C_R   0.365632 0.716236 0.397752 -0.124382
C37   C     C_R   0.337507 0.683844 0.069304 -0.099183
C38   C     C_R   0.358435 0.606223 0.102453 -0.100455
C39   C     C_R   0.393487 0.627958 0.172948 0.345063
C40   C     C_R   0.385882 0.730928 0.213110 -0.087690
C41   C     C_R   0.371823 0.810946 0.178274 -0.072314
C42   C     C_R   0.390074 0.757957 0.286483 0.123797
C43   C     C_R   0.426257 0.860935 0.321794 0.145714
C44   C     C_R   0.424418 0.937095 0.286451 -0.354430
C45   C     C_R   0.378218 0.913816 0.217225 0.341990
C46   C     C_R   0.346300 0.688078 0.326481 -0.134911
C47   C     C_R   0.421543 0.815477 0.430945 -0.180607
C48   C     C_R   0.352917 0.785616 0.105545 -0.206337
H22   H     H_    0.292293 0.612106 0.303756 0.139251
H23   H     H_    0.319962 0.664212 0.014143 0.190104
H24   H     H_    0.360458 0.528226 0.071971 0.173585
O11   O     O_R   0.203580 0.914920 0.912610 -0.607398
O12   O     O_R   0.535710 0.887810 0.047120 -0.575236
O13   O     O_R   0.710730 0.084950 0.087430 -0.581857
C49   C     C_R   0.365661 0.862390 0.064992 1.045616
O14   O     O_R   0.533010 0.902850 0.910600 -0.586640
O15   O     O_R   0.708010 0.100090 0.949930 -0.607663
C50   C     C_R   0.364277 0.880528 0.883375 0.982245
O16   O     O_R   0.206300 0.899780 0.050100 -0.557728
O17   O     O_3   0.375170 0.064580 0.013100 -0.274035
V3    V     V_3+5 0.648200 0.988020 0.997570 1.253419
O18   O     O_R   0.038030 0.112330 0.952840 -0.607461
C51   C     C_R   0.870795 0.138809 0.936096 0.930758
O19   O     O_R   0.040730 0.097300 0.089360 -0.555054
C52   C     C_R   0.872354 0.120182 0.116567 1.001465
V4    V     V_3+5 0.148780 0.012220 0.002360 1.253367
O20   O     O_3   0.871930 0.935430 0.986900 -0.260104
N1    N     N_R   0.511656 0.643488 0.838153 0.239019
O21   O     O_R   0.562942 0.549654 0.813521 -0.409485
O22   O     O_R   0.532186 0.685017 0.903213 -0.396835
N2    N     N_R   0.459966 0.546088 0.200167 0.213536
O23   O     O_R   0.619113 0.556911 0.235164 -0.424926
O24   O     O_R   0.378192 0.456300 0.181573 -0.464686
N3    N     N_R   0.297727 0.993240 0.191731 0.214930
O25   O     O_R   0.111505 0.995423 0.187269 -0.442895
O26   O     O_R   0.399146 0.074680 0.191211 -0.465451
N4    N     N_R   0.929837 0.501392 0.936283 0.249040
O27   O     O_R   0.926694 0.525559 0.002997 -0.401054
O28   O     O_R   0.958659 0.573396 0.904497 -0.363636

loop_
_geom_bond_atom_site_label_1
_geom_bond_atom_site_label_2
_geom_bond_distance
_ccdc_geom_bond_type
C23   H11   1.108915 S    
C31   H16   1.110538 S    
O17   V3    2.161721 S    
C40   C42   1.431933 A    
C40   C41   1.431731 A    
O18   C51   1.292861 A    
H20   C44   1.085191 S    
C1    O6    1.298215 A    
N2    O24   1.301384 A    
O19   C52   1.298015 A    
O11   C50   1.297837 A    
C28   H14   1.108970 S    
C23   C24   1.550340 S    
C7    H5    1.083882 S    
C6    C16   1.399301 A    
N1    O21   1.300114 A    
C26   C52   1.506849 S    
C4    C6    1.461147 S    
C13   C14   1.394997 A    
C27   C34   1.542660 S    
O5    C3    1.296745 A    
C19   C20   1.549008 S    
O12   C49   1.297209 A    
V2    O10   2.156756 S    
O13   V3    2.001740 S    
C5    H3    1.084048 S    
C29   C30   1.529832 S    
O14   V3    2.007291 S    
C8    N4    1.442208 S    
C37   C48   1.393977 A    
N4    O27   1.301746 A    
C3    C21   1.503777 S    
O12   V3    2.013909 S    
O8    V2    1.994655 S    
C29   C50   1.501212 S    
C49   O16   1.292597 A    
C8    C9    1.403984 A    
C37   C38   1.385416 A    
O1    V2    2.028523 S    
O14   C50   1.296292 A    
C22   H10   1.110392 S    
O17   V4    1.706121 S    
C27   H15   1.110437 S    
O13   C52   1.297844 A    
C31   C34   1.544094 S    
C32   C33   1.552851 S    
N1    O22   1.299776 A    
C35   C47   1.389984 A    
O9    C4    1.294014 A    
N3    O26   1.299140 A    
O4    V1    2.013867 S    
N2    O23   1.301634 A    
O19   V4    1.994799 S    
C28   C33   1.552335 S    
O15   V3    2.018554 S    
C20   C21   1.538398 S    
C6    C17   1.394690 A    
C12   C16   1.416369 A    
C43   C44   1.388373 A    
C19   H9    1.109668 S    
C20   H8    1.110223 S    
O4    C2    1.296126 A    
C39   N2    1.435283 S    
C10   C11   1.425305 A    
C44   C45   1.389447 A    
C1    C34   1.499797 S    
C15   H7    1.082662 S    
C45   N3    1.423693 S    
C21   C24   1.539901 S    
O2    C1    1.295764 A    
C42   C43   1.419177 A    
C2    C36   1.454534 S    
C14   C15   1.386873 A    
O11   V4    1.995912 S    
C11   C18   1.415236 A    
V4    O20   2.156814 S    
V3    O20   1.711393 S    
N3    O25   1.298755 A    
C35   H21   1.084098 S    
C16   H4    1.077199 S    
C9    H6    1.074603 S    
C9    C10   1.418125 A    
C37   H23   1.083453 S    
C35   C43   1.403641 A    
C19   C26   1.539746 S    
O3    C4    1.293315 A    
C20   C25   1.549417 S    
C11   C15   1.407997 A    
O6    V2    1.995309 S    
O9    V2    2.032406 S    
C22   C23   1.549774 S    
C36   C46   1.397614 A    
H1    C17   1.083581 S    
C21   C22   1.540174 S    
C41   C48   1.425512 A    
O2    V1    2.007153 S    
C18   C51   1.467511 S    
C30   N1    1.457142 S    
C27   C28   1.555219 S    
C38   H24   1.083242 S    
O7    V1    2.161718 S    
C28   C29   1.545379 S    
C7    C18   1.396766 A    
C25   C26   1.541617 S    
O1    C2    1.288179 A    
C5    C13   1.404237 A    
C39   C40   1.430888 A    
O5    V1    2.001746 S    
C46   H22   1.079113 S    
O8    C3    1.297923 A    
C23   C26   1.538367 S    
O15   C51   1.294597 A    
C10   C12   1.432112 A    
H19   C47   1.083639 S    
C32   H17   1.110477 S    
C29   C32   1.544897 S    
C33   H18   1.110178 S    
C31   C32   1.555503 S    
C19   C22   1.549100 S    
O3    V1    2.018528 S    
V1    O10   1.711373 S    
C30   C31   1.536275 S    
C24   H12   1.110266 S    
C25   H13   1.109661 S    
O18   V4    2.032289 S    
O7    V2    1.708113 S    
N4    O28   1.301826 A    
C48   C49   1.470995 S    
C27   C30   1.536092 S    
C24   C25   1.548792 S    
C38   C39   1.398617 A    
C41   C45   1.420331 A    
C12   C13   1.423321 A    
C5    C17   1.391692 A    
C7    C8    1.398412 A    
C33   C34   1.542994 S    
C36   C47   1.394680 A    
C42   C46   1.411786 A    
O16   V4    2.034951 S    
H2    C14   1.084201 S    
