data_mof_unit_66001.cif
_audit_creation_date              2012-12-11T15:52:04-0500
_audit_creation_method            fapswitch 2.2
_symmetry_space_group_name_H-M    P1
_symmetry_Int_Tables_number       1
_space_group_crystal_system       triclinic
_cell_length_a                    8.270426
_cell_length_b                    19.110566
_cell_length_c                    18.903717
_cell_angle_alpha                 98.40578
_cell_angle_beta                  94.45151
_cell_angle_gamma                 91.936646
_cell_volume                      2943.67998188

loop_
_atom_site_label
_atom_site_type_symbol
_atom_type_description
_atom_site_fract_x
_atom_site_fract_y
_atom_site_fract_z
_atom_type_partial_charge
Ba1   Ba    Ba6+2 0.152000 0.534910 0.469330 1.666691
Ba2   Ba    Ba6+2 0.658180 0.465080 0.530610 1.648431
C1    C     C_3   0.414274 0.709210 0.203169 0.103010
C2    C     C_3   0.417816 0.684925 0.276534 0.447953
C3    C     C_3   0.553672 0.684873 0.672860 0.549991
C4    C     C_3   0.456716 0.722022 0.618935 -0.309651
C5    C     C_3   0.904092 0.267193 0.685086 0.352017
C6    C     C_3   0.867805 0.195410 0.707707 -0.356590
C7    C     C_3   0.439486 0.309626 0.724106 0.387100
C8    C     C_3   0.474920 0.283811 0.795851 -0.353916
C9    C     C_R   0.946420 0.201673 0.468429 -0.155556
C10   C     C_R   0.978119 0.276157 0.481690 0.086841
C11   C     C_R   0.135782 0.189758 0.568774 -0.158655
C12   C     C_3   0.925399 0.729542 0.327854 0.368315
C13   C     C_R   0.200895 0.257445 0.564492 -0.004782
C14   C     C_R   0.667167 0.814367 0.441204 -0.157427
C15   C     C_R   0.598979 0.747067 0.445317 0.024864
C16   C     C_R   0.855998 0.801078 0.541519 -0.133671
C17   C     C_R   0.823325 0.726935 0.526881 0.055870
C18   C     C_R   0.013938 0.156516 0.516483 -0.003375
C19   C     C_R   0.110782 0.302859 0.528248 -0.246187
C20   C     C_R   0.789587 0.846812 0.493956 -0.002153
C21   C     C_R   0.687652 0.701303 0.481769 -0.252670
C22   C     C_R   0.233229 0.039622 0.550842 -0.086236
C23   C     C_3   0.950113 0.803689 0.309115 -0.322409
C24   C     C_R   0.333179 0.990629 0.576948 -0.064934
C25   C     C_R   0.284138 0.920012 0.564623 -0.053769
C26   C     C_R   0.131979 0.899984 0.530387 -0.086210
C27   C     C_R   0.012906 0.949577 0.520042 0.021254
C28   C     C_R   0.066979 0.023163 0.528199 0.038527
C29   C     C_R   0.847121 0.926140 0.498817 -0.011074
C30   C     C_R   0.738471 0.979917 0.482833 0.039818
C31   C     C_R   0.792622 0.053363 0.491516 0.015207
C32   C     C_R   0.958100 0.076907 0.512229 -0.014471
C33   C     C_R   0.572069 0.963781 0.459886 -0.080810
C34   C     C_3   0.799685 0.345154 0.290402 0.808860
C35   C     C_R   0.472948 0.013096 0.433877 -0.077531
C36   C     C_R   0.522296 0.083642 0.447250 -0.065192
C37   C     C_R   0.673905 0.103079 0.482426 -0.080549
C38   C     C_R   0.617554 0.525095 0.299619 -0.275276
C39   C     C_R   0.469899 0.489140 0.274599 0.032344
C40   C     C_R   0.417339 0.481747 0.201842 -0.112374
C41   C     C_R   0.512453 0.510022 0.153342 -0.004099
C42   C     C_R   0.662173 0.546063 0.179260 -0.172715
C43   C     C_R   0.715381 0.552570 0.252278 -0.001642
C44   C     C_R   0.474683 0.555562 0.035659 -0.052643
C45   C     C_3   0.637174 0.306038 0.264714 -0.304025
C46   C     C_R   0.420700 0.546500 0.962984 -0.080483
C47   C     C_R   0.348690 0.481424 0.928367 0.046845
C48   C     C_R   0.328464 0.426105 0.968687 -0.092159
C49   C     C_R   0.382167 0.435276 0.041616 -0.081683
C50   C     C_R   0.456419 0.500099 0.075841 0.070940
C51   C     C_R   0.149823 0.436089 0.821735 -0.092511
C52   C     C_R   0.099260 0.433397 0.748646 0.043503
C53   C     C_R   0.343894 0.499572 0.731728 0.053293
C54   C     C_R   0.395212 0.502838 0.804146 -0.087857
C55   C     C_R   0.298637 0.471583 0.850225 0.020805
C56   C     C_3   0.012756 0.620991 0.693248 0.315655
C57   C     C_R   0.199453 0.462961 0.703742 -0.248055
C58   C     C_3   0.056531 0.644669 0.773591 0.179910
C59   C     C_3   0.295624 0.324882 0.378388 0.318360
C60   C     C_3   0.260375 0.245318 0.358906 -0.393678
H1    H     H_    0.363159 0.630319 0.270799 0.069771
H2    H     H_    0.579323 0.291382 0.311461 0.089604
H3    H     H_    0.556299 0.339139 0.235463 0.041234
H4    H     H_    0.655886 0.256226 0.228504 0.109774
H5    H     H_    0.118722 0.597030 0.668417 -0.019709
H6    H     H_    0.909881 0.581365 0.685702 0.071421
H7    H     H_    0.181451 0.669180 0.781025 0.099931
H8    H     H_    0.976369 0.687426 0.794364 0.093755
H9    H     H_    0.189927 0.349694 0.402030 0.022521
H10   H     H_    0.401652 0.333843 0.418617 0.081716
H11   H     H_    0.146891 0.234485 0.323011 0.160152
H12   H     H_    0.247275 0.221205 0.408105 0.059367
H13   H     H_    0.361353 0.219842 0.331205 0.110944
H14   H     H_    0.547521 0.684413 0.296568 -0.214342
H15   H     H_    0.509458 0.682701 0.172247 0.024457
H16   H     H_    0.647118 0.653577 0.645357 0.001559
H17   H     H_    0.532955 0.764273 0.601691 0.060133
H18   H     H_    0.416051 0.682894 0.571164 0.115763
H19   H     H_    0.349898 0.746494 0.642995 0.144994
H20   H     H_    0.439946 0.767310 0.209416 0.082386
H21   H     H_    0.942349 0.843652 0.357457 0.055990
H22   H     H_    0.855647 0.265605 0.628301 0.064920
H23   H     H_    0.037712 0.276978 0.690561 -0.063209
H24   H     H_    0.735060 0.183051 0.702783 0.156600
H25   H     H_    0.925879 0.153254 0.673019 0.071520
H26   H     H_    0.915777 0.195667 0.764273 0.111549
H27   H     H_    0.305836 0.313038 0.715376 -0.106181
H28   H     H_    0.498366 0.363143 0.726789 0.070370
H29   H     H_    0.428166 0.321382 0.839139 0.058756
H30   H     H_    0.607503 0.280109 0.807858 0.152655
H31   H     H_    0.014996 0.723136 0.372943 0.094668
H32   H     H_    0.414348 0.230832 0.794593 0.108336
H33   H     H_    0.863911 0.180243 0.422606 0.073696
H34   H     H_    0.184985 0.163880 0.612210 0.069587
H35   H     H_    0.621303 0.840457 0.397301 0.067999
H36   H     H_    0.939317 0.821515 0.587369 0.088028
H37   H     H_    0.153114 0.357444 0.531001 0.062993
H38   H     H_    0.646110 0.646492 0.477997 0.070058
H39   H     H_    0.294959 0.088092 0.544568 0.080432
H40   H     H_    0.456699 0.006207 0.598079 0.084410
H41   H     H_    0.368669 0.880344 0.576286 0.087543
H42   H     H_    0.801274 0.723459 0.344173 -0.051900
H43   H     H_    0.110495 0.845095 0.511309 0.124318
H44   H     H_    0.509309 0.915466 0.465886 0.079047
H45   H     H_    0.349545 0.997818 0.412343 0.080936
H46   H     H_    0.438083 0.123439 0.435831 0.092244
H47   H     H_    0.696963 0.157399 0.503613 0.132572
H48   H     H_    0.508084 0.531692 0.824739 0.057519
H49   H     H_    0.434031 0.590910 0.933981 0.083483
H50   H     H_    0.529051 0.606355 0.060544 0.088104
H51   H     H_    0.302381 0.453936 0.183271 0.078612
H52   H     H_    0.273998 0.375339 0.943581 0.061758
H53   H     H_    0.071508 0.810020 0.288947 0.175172
H54   H     H_    0.367975 0.391172 0.070972 0.058871
H55   H     H_    0.069537 0.414712 0.856663 0.048353
H56   H     H_    0.738979 0.567130 0.142808 0.088074
H57   H     H_    0.158759 0.462597 0.647887 0.052691
H58   H     H_    0.658971 0.529644 0.355873 0.080580
H59   H     H_    0.855154 0.813062 0.267116 0.112510
H60   H     H_    0.783752 0.400873 0.315189 -0.146219
O1    O     O_2   0.116570 0.673370 0.549300 -0.471898
O2    O     O_3   0.327472 0.353168 0.316294 -0.626193
O3    O     O_3   0.945870 0.679849 0.267481 -0.547757
O4    O     O_2   0.693730 0.326590 0.450680 -0.497396
O5    O     O_3   0.940960 0.415230 0.456980 -0.483945
O6    O     O_3   0.457750 0.369120 0.580200 -0.470811
O7    O     O_3   0.877684 0.306572 0.339207 -0.648151
O8    O     O_3   0.373690 0.535540 0.586160 -0.478285
O9    O     O_3   0.872560 0.404620 0.618320 -0.480719
O10   O     O_2   0.769410 0.452705 0.745516 -0.492989
O11   O     O_3   0.829369 0.319479 0.729464 -0.595970
O12   O     O_3   0.869340 0.584760 0.542960 -0.490172
O13   O     O_3   0.436600 0.464450 0.413780 -0.498482
O14   O     O_2   0.628980 0.533090 0.672420 -0.472886
O15   O     O_3   0.447350 0.645122 0.707864 -0.637401
O16   O     O_2   0.515771 0.241612 0.529557 -0.510717
O17   O     O_3   0.501367 0.262511 0.669577 -0.587218
O18   O     O_3   0.352540 0.630870 0.419750 -0.471388
O19   O     O_2   0.268502 0.759087 0.458193 -0.522373
O20   O     O_3   0.968340 0.680754 0.662929 -0.641011
O21   O     O_3   0.330748 0.731101 0.322849 -0.596243
O22   O     O_2   0.181320 0.466870 0.327560 -0.437317
O23   O     O_3   0.937730 0.595370 0.381630 -0.498272
O24   O     O_2   0.056377 0.554290 0.256038 -0.465018
P1    P     P_3+3 0.945400 0.662120 0.569160 0.984511
P2    P     P_3+3 0.355390 0.445380 0.336430 0.990722
P3    P     P_3+3 0.914195 0.594530 0.288611 0.991823
P4    P     P_3+3 0.864900 0.337880 0.430780 0.966782
P5    P     P_3+3 0.893364 0.402530 0.711032 0.954662
P6    P     P_3+3 0.389219 0.718900 0.410963 0.937307
P7    P     P_3+3 0.447913 0.554099 0.676102 0.949161
P8    P     P_3+3 0.417233 0.281284 0.587252 0.934000
O25   O     O_3   0.054413 0.585778 0.810989 -0.689157
C61   C     C_3   0.925258 0.587054 0.856044 0.247825
H61   H     H_    0.895139 0.531629 0.863184 0.093019
H62   H     H_    0.811986 0.607249 0.831859 0.064406
C62   C     C_3   0.977814 0.629038 0.930117 -0.186689
H63   H     H_    0.090721 0.607456 0.952400 0.157501
H64   H     H_    0.003436 0.685494 0.925253 0.137189
C63   C     C_3   0.846440 0.624419 0.981841 -0.467111
H65   H     H_    0.732845 0.646528 0.961073 0.138335
H66   H     H_    0.887441 0.655327 0.034953 0.198339
H67   H     H_    0.821719 0.568472 0.988956 0.125385
Br1   Br    Br    0.206397 0.685204 0.148906 -0.591597
Br2   Br    Br    0.666306 0.756037 0.745011 -0.609995
O26   O     O_3   0.897220 0.341077 0.231562 -0.641848
C64   C     C_3   0.861072 0.393042 0.187785 0.237677
H68   H     H_    0.904766 0.444997 0.217073 0.082579
H69   H     H_    0.728949 0.393565 0.171996 -0.002231
C65   C     C_3   0.949660 0.377988 0.119549 -0.152228
H70   H     H_    0.080879 0.372540 0.134049 0.125622
H71   H     H_    0.900199 0.327200 0.087737 0.119871
C66   C     C_3   0.930166 0.437074 0.073619 -0.505018
H72   H     H_    0.799723 0.443194 0.058036 0.134267
H73   H     H_    0.993491 0.423870 0.024043 0.142798
H74   H     H_    0.984072 0.487940 0.103532 0.172445

loop_
_geom_bond_atom_site_label_1
_geom_bond_atom_site_label_2
_ccdc_geom_bond_type
Ba2   P4    S    
C13   C19   A    
C53   C54   A    
C44   H50   S    
O4    P4    D    
C64   H68   S    
Ba1   O23   S    
O11   P5    S    
O22   P2    D    
C2    O21   S    
C5    C6    S    
C66   H73   S    
C51   C52   A    
C42   C43   A    
O12   P1    S    
O2    P2    S    
C2    H1    S    
C24   C25   A    
Ba2   O12   S    
C12   O3    S    
C59   O2    S    
C26   C27   A    
C33   C35   A    
C35   C36   A    
C22   C24   A    
C35   H45   S    
C53   C57   A    
C23   H53   S    
O5    P4    S    
C3    C4    S    
C19   H37   S    
C51   H55   S    
C41   C50   S    
C8    H32   S    
C56   C58   S    
O24   P3    D    
C44   C50   A    
C34   O26   S    
C47   C55   S    
C54   C55   A    
C34   C45   S    
Ba1   Ba2   S    
C39   C40   A    
C13   P8    S    
Ba2   O14   S    
O26   C64   S    
C4    H18   S    
C31   C37   A    
C33   H44   S    
C66   H72   S    
C14   C15   A    
C57   H57   S    
C62   H64   S    
C60   H11   S    
C58   H8    S    
C7    C8    S    
O18   P6    S    
C12   H31   S    
C6    H24   S    
C65   C66   S    
O6    P8    S    
C18   C32   S    
Ba2   O5    S    
C59   H9    S    
C5    H22   S    
C8    H30   S    
C4    H19   S    
C64   H69   S    
C62   H63   S    
C54   H48   S    
C65   H71   S    
C48   C49   A    
C66   H74   S    
C63   H66   S    
C52   C57   A    
C38   C43   A    
C44   C46   A    
C9    C18   A    
C20   C29   S    
C28   C32   A    
C11   H34   S    
C49   C50   A    
C30   C33   A    
C10   P4    S    
C36   C37   A    
Ba1   O8    S    
C7    H27   S    
C45   H2    S    
C51   C55   A    
C17   C21   A    
C16   C17   A    
C49   H54   S    
O17   P8    S    
C10   C19   A    
C17   P1    S    
C6    H26   S    
C34   H60   S    
C41   C42   A    
Ba1   O1    S    
C27   C28   A    
C63   H67   S    
C56   O20   S    
C40   H51   S    
C12   H42   S    
C29   C30   A    
C42   H56   S    
C26   H43   S    
C1    H20   S    
Ba2   O9    S    
C62   C63   S    
O15   P7    S    
C15   C21   A    
C3    O15   S    
Ba1   O18   S    
O3    P3    S    
Ba2   O4    S    
C59   H10   S    
C56   H6    S    
C38   C39   A    
C38   H58   S    
O1    P1    D    
C8    H29   S    
C47   C48   A    
C11   C13   A    
C64   C65   S    
C60   H13   S    
Ba1   P1    S    
C15   P6    S    
C40   C41   A    
Ba1   O12   S    
C1    H15   S    
O25   C61   S    
C65   H70   S    
C63   H65   S    
C9    H33   S    
C53   P7    S    
C61   H61   S    
C14   C20   A    
C45   H4    S    
C11   C18   A    
C16   C20   A    
O20   P1    S    
C61   C62   S    
Ba1   O5    S    
C7    H28   S    
C9    C10   A    
C5    O11   S    
C52   P5    S    
Ba2   O13   S    
C22   H39   S    
C6    H25   S    
C30   C31   A    
C61   H62   S    
C58   O25   S    
O7    P4    S    
C27   C29   A    
Ba1   O22   S    
C34   O7    S    
C24   H40   S    
O14   P7    D    
C7    O17   S    
O16   P8    D    
C4    H17   S    
C5    H23   S    
C39   P2    S    
C58   H7    S    
C46   C47   A    
C25   H41   S    
Ba2   O8    S    
C31   C32   A    
O9    P5    S    
C21   H38   S    
O8    P7    S    
C43   P3    S    
C3    Br2   S    
C12   C23   S    
C36   H46   S    
C59   C60   S    
C14   H35   S    
C22   C28   A    
C2    H14   S    
C56   H5    S    
C37   H47   S    
C46   H49   S    
O19   P6    D    
O13   P2    S    
C25   C26   A    
C23   H21   S    
O10   P5    D    
O23   P3    S    
C60   H12   S    
Ba1   P2    S    
C16   H36   S    
C48   H52   S    
C3    H16   S    
Ba1   O13   S    
C23   H59   S    
C45   H3    S    
O21   P6    S    
C1    C2    S    
C1    Br1   S    
Ba2   O6    S    
