data_mof_unit_58371.cif
_audit_creation_date              2013-03-05T16:10:40-0500
_audit_creation_method            fapswitch 2.2
_symmetry_space_group_name_H-M    P1
_symmetry_Int_Tables_number       1
_space_group_crystal_system       triclinic
_cell_length_a                    9.850873
_cell_length_b                    10.674682
_cell_length_c                    15.553418
_cell_angle_alpha                 89.721022
_cell_angle_beta                  66.692072
_cell_angle_gamma                 90.231056
_cell_volume                      1501.99726215

loop_
_atom_site_label
_atom_site_type_symbol
_atom_site_description
_atom_site_fract_x
_atom_site_fract_y
_atom_site_fract_z
_atom_type_partial_charge
O1    O     O_R   0.385370 0.683250 0.500010 -0.598544
O2    O     O_R   0.614630 0.316750 0.499990 -0.598545
O3    O     O_R   0.614700 0.683220 0.500000 -0.628369
O4    O     O_R   0.385300 0.316780 0.500000 -0.628374
C1    C     C_R   0.502136 0.739848 0.497115 0.945007
C2    C     C_R   0.497862 0.260153 0.502884 0.945025
O5    O     O_R   0.319830 0.500020 0.632250 -0.564668
O6    O     O_R   0.680170 0.499980 0.367750 -0.564669
O7    O     O_R   0.549160 0.499990 0.632240 -0.592992
O8    O     O_R   0.450840 0.500010 0.367760 -0.592996
C3    C     C_R   0.406395 0.502005 0.676426 0.919433
C4    C     C_R   0.593606 0.497996 0.323574 0.919417
Zn1   Zn    Zn3+2 0.346870 0.500020 0.500000 1.062838
Zn2   Zn    Zn3+2 0.653130 0.499980 0.500000 1.062837
C5    C     C_R   0.344920 0.512753 0.778530 -0.208522
C6    C     C_R   0.655080 0.487251 0.221469 -0.208526
C7    C     C_R   0.179615 0.602602 0.924835 -0.130406
C8    C     C_R   0.820387 0.397407 0.075163 -0.130408
C9    C     C_R   0.214182 0.578772 0.830247 0.311122
C10   C     C_R   0.785821 0.421235 0.169752 0.311127
C11   C     C_R   0.434654 0.470680 0.822707 -0.087447
C12   C     C_R   0.565346 0.529325 0.177294 -0.087449
C13   C     C_R   0.412868 0.509409 0.912786 0.049274
C14   C     C_R   0.587133 0.490598 0.087213 0.049275
C15   C     C_R   0.277640 0.568736 0.966302 -0.164258
C16   C     C_R   0.722362 0.431273 0.033698 -0.164257
C17   C     C_R   0.519916 0.488316 0.951511 -0.219871
C18   C     C_R   0.480085 0.511693 0.048489 -0.219871
C19   C     C_R   0.333733 0.552626 0.103276 0.598246
C20   C     C_R   0.666268 0.447384 0.896724 0.598243
C21   C     C_R   0.239188 0.588763 0.061280 0.611261
C22   C     C_R   0.760814 0.411247 0.938718 0.611261
H1    H     H_    0.478185 0.592836 0.215581 0.260778
H2    H     H_    0.521815 0.407168 0.784420 0.260779
H3    H     H_    0.076762 0.649381 0.965380 0.223755
H4    H     H_    0.923241 0.350630 0.034617 0.223756
C23   C     C_R   0.562269 0.932658 0.552450 -0.259772
C24   C     C_R   0.437720 0.067342 0.447556 -0.259780
H5    H     H_    0.605512 0.879071 0.595358 0.195382
H6    H     H_    0.394479 0.120926 0.404652 0.195376
C25   C     C_R   0.556307 0.061220 0.559494 0.331798
C26   C     C_R   0.443681 0.938783 0.440515 0.331811
C27   C     C_R   0.495073 0.127647 0.505348 -0.187480
C28   C     C_R   0.504920 0.872356 0.494654 -0.187474
C29   C     C_R   0.955924 0.408421 0.454874 0.057082
C30   C     C_R   0.044076 0.591579 0.545125 0.057098
H7    H     H_    0.923856 0.335134 0.418772 0.167929
H8    H     H_    0.076144 0.664866 0.581228 0.167932
C31   C     C_R   0.099753 0.408532 0.454793 0.020405
C32   C     C_R   0.900247 0.591468 0.545207 0.020412
H9    H     H_    0.176479 0.335441 0.418479 0.147149
H10   H     H_    0.823521 0.664559 0.581521 0.147151
N1    N     N_R   0.142780 0.500030 0.500020 -0.100656
N2    N     N_R   0.857220 0.499970 0.499980 -0.100655
F1    F     F_    0.105576 0.637880 0.115166 -0.586786
F2    F     F_    0.894425 0.362130 0.884832 -0.586786
N3    N     N_R   0.882438 0.375368 0.211494 0.197287
O9    O     O_R   0.948481 0.453783 0.246097 -0.286520
O10   O     O_R   0.929234 0.260501 0.196506 -0.366876
N4    N     N_R   0.117567 0.624640 0.788503 0.197291
O11   O     O_R   0.051519 0.546227 0.753902 -0.286522
O12   O     O_R   0.070777 0.739508 0.803488 -0.366875
F3    F     F_    0.274489 0.550241 0.198211 -0.609522
F4    F     F_    0.725512 0.449770 0.801788 -0.609524
N5    N     N_R   0.605518 0.121815 0.624521 0.223910
O13   O     O_R   0.526009 0.209264 0.679043 -0.391969
O14   O     O_R   0.717053 0.077107 0.639464 -0.338013
N6    N     N_R   0.394454 0.878181 0.375496 0.223925
O15   O     O_R   0.473979 0.790758 0.320955 -0.391964
O16   O     O_R   0.282880 0.922861 0.360594 -0.338029

loop_
_geom_bond_atom_site_label_1
_geom_bond_atom_site_label_2
_geom_bond_distance
_ccdc_geom_bond_type
C15   C21   1.390086 A    
O5    C3    1.289709 A    
O7    Zn2   1.900612 S    
C19   F3    1.356131 S    
C16   C22   1.390102 A    
C13   C17   1.424317 A    
C9    N4    1.434141 S    
C20   C22   1.387332 A    
C25   C27   1.405527 A    
C30   C32   1.416332 A    
C32   H10   1.081771 S    
C8    C16   1.404434 A    
C29   C31   1.416332 A    
O6    C4    1.289704 A    
C7    C15   1.404450 A    
O3    C1    1.281202 A    
C23   C28   1.395045 A    
C11   C13   1.395810 A    
C20   F4    1.356137 S    
C24   C27   1.395041 A    
C23   H5    1.085026 S    
C32   N2    1.366654 A    
C17   C20   1.425505 A    
C26   N6    1.438132 S    
O7    C3    1.298523 A    
C8    H4    1.084026 S    
N3    O9    1.300257 A    
O2    C2    1.281910 A    
O3    Zn2   1.993824 S    
C26   C28   1.405481 A    
N4    O11   1.300248 A    
O1    C1    1.281898 A    
O8    C4    1.298526 A    
C30   N1    1.366439 A    
N6    O16   1.301525 A    
C6    C10   1.412579 A    
C24   H6    1.084948 S    
C1    C28   1.414673 S    
C14   C16   1.415237 A    
C29   N2    1.366440 A    
C24   C26   1.376855 A    
Zn1   N1    2.010343 S    
C2    C27   1.414658 S    
C29   H7    1.081558 S    
C23   C25   1.376895 A    
O2    Zn2   1.990863 S    
O6    Zn2   1.966819 S    
C5    C11   1.391421 A    
N3    O10   1.301013 A    
C31   N1    1.366654 A    
O1    Zn1   1.990863 S    
C25   N5    1.438104 S    
C7    C9    1.397451 A    
Zn2   N2    2.010342 S    
C30   H8    1.081558 S    
C14   C18   1.424313 A    
O5    Zn1   1.966818 S    
C13   C15   1.415243 A    
C8    C10   1.397474 A    
C19   C21   1.387338 A    
N5    O13   1.300756 A    
C12   C14   1.395829 A    
C17   C18   1.423878 A    
C12   H1    1.074929 S    
C18   C19   1.425504 A    
N5    O14   1.301615 A    
C6    C12   1.391400 A    
C11   H2    1.074933 S    
C7    H3    1.084027 S    
C21   F1    1.358892 S    
C10   N3    1.434123 S    
C5    C9    1.412575 A    
O4    C2    1.281175 A    
C3    C5    1.463947 S    
C22   F2    1.358890 S    
N4    O12   1.301008 A    
C4    C6    1.463957 S    
O4    Zn1   1.993824 S    
N6    O15   1.300731 A    
C31   H9    1.081770 S    
O8    Zn1   1.900615 S    
