data_mof_unit_23412.cif
_audit_creation_date              2013-03-05T15:56:51-0500
_audit_creation_method            fapswitch 2.2
_symmetry_space_group_name_H-M    P1
_symmetry_Int_Tables_number       1
_space_group_crystal_system       triclinic
_cell_length_a                    21.042384
_cell_length_b                    21.341705
_cell_length_c                    13.879816
_cell_angle_alpha                 90.000151
_cell_angle_beta                  90.003723
_cell_angle_gamma                 90.000087
_cell_volume                      6233.15263935

loop_
_atom_site_label
_atom_site_type_symbol
_atom_site_description
_atom_site_fract_x
_atom_site_fract_y
_atom_site_fract_z
_atom_type_partial_charge
O1    O     O_R   0.064880 0.435140 0.582280 -0.557770
O2    O     O_R   0.935120 0.564860 0.417720 -0.575865
O3    O     O_R   0.935120 0.564860 0.582280 -0.557764
O4    O     O_R   0.064880 0.435140 0.417720 -0.575700
O5    O     O_R   0.935120 0.435140 0.417720 -0.550932
O6    O     O_R   0.064880 0.564860 0.582280 -0.569949
O7    O     O_R   0.064880 0.564860 0.417720 -0.550900
O8    O     O_R   0.935120 0.435140 0.582280 -0.569972
O9    O     O_R   0.564880 0.935140 0.582280 -0.550928
O10   O     O_R   0.435120 0.064860 0.417720 -0.569953
O11   O     O_R   0.435120 0.064860 0.582280 -0.550897
O12   O     O_R   0.564880 0.935140 0.417720 -0.569971
O13   O     O_R   0.435120 0.935140 0.417720 -0.557768
O14   O     O_R   0.564880 0.064860 0.582280 -0.575865
O15   O     O_R   0.564880 0.064860 0.417720 -0.557766
O16   O     O_R   0.435120 0.935140 0.582280 -0.575701
C1    C     C_R   0.085538 0.414621 0.499947 0.800347
C2    C     C_R   0.914470 0.585387 0.499943 0.800338
C3    C     C_R   0.914212 0.414841 0.500404 0.802281
C4    C     C_R   0.085782 0.585162 0.500407 0.802284
C5    C     C_R   0.585787 0.914841 0.499595 0.802277
C6    C     C_R   0.414217 0.085162 0.499592 0.802283
C7    C     C_R   0.414463 0.914621 0.500053 0.800339
C8    C     C_R   0.585530 0.085386 0.500057 0.800341
Cu1   Cu    Cu3+1 0.000000 0.500000 0.597420 0.968036
Cu2   Cu    Cu3+1 0.000000 0.500000 0.402580 0.975907
Cu3   Cu    Cu3+1 0.500000 0.000000 0.597420 0.975905
Cu4   Cu    Cu3+1 0.500000 1.000000 0.402580 0.968033
C9    C     C_R   0.126658 0.685854 0.559528 -0.228163
C10   C     C_R   0.873177 0.314301 0.559891 -0.228164
C11   C     C_R   0.874565 0.687107 0.556326 -0.240143
C12   C     C_R   0.125337 0.312795 0.556033 -0.240039
C13   C     C_R   0.625436 0.187105 0.443671 -0.240141
C14   C     C_R   0.374676 0.812781 0.443998 -0.240030
C15   C     C_R   0.373327 0.185841 0.440438 -0.228166
C16   C     C_R   0.626822 0.814300 0.440111 -0.228170
C17   C     C_R   0.134985 0.632492 0.502772 -0.073549
C18   C     C_R   0.864998 0.367520 0.502764 -0.073778
C19   C     C_R   0.866497 0.633887 0.499298 -0.078288
C20   C     C_R   0.133523 0.366133 0.499310 -0.078212
C21   C     C_R   0.633503 0.133887 0.500703 -0.078288
C22   C     C_R   0.366477 0.866132 0.500689 -0.078196
C23   C     C_R   0.365014 0.132492 0.497227 -0.073564
C24   C     C_R   0.635002 0.867520 0.497236 -0.073771
C25   C     C_R   0.191372 0.622783 0.452323 -0.247571
C26   C     C_R   0.808747 0.377093 0.451894 -0.247570
C27   C     C_R   0.813497 0.627406 0.439624 -0.238156
C28   C     C_R   0.186642 0.372735 0.439920 -0.238303
C29   C     C_R   0.686502 0.127408 0.560380 -0.238157
C30   C     C_R   0.313345 0.872747 0.560047 -0.238310
C31   C     C_R   0.308639 0.122795 0.547714 -0.247564
C32   C     C_R   0.691254 0.877094 0.548102 -0.247564
C33   C     C_R   0.238766 0.668760 0.451750 0.086232
C34   C     C_R   0.761355 0.331115 0.451305 0.086170
C35   C     C_R   0.767240 0.674447 0.436279 0.087357
C36   C     C_R   0.232906 0.325697 0.436565 0.087423
C37   C     C_R   0.732759 0.174449 0.563725 0.087357
C38   C     C_R   0.267080 0.825711 0.563401 0.087425
C39   C     C_R   0.261246 0.168774 0.548290 0.086226
C40   C     C_R   0.738646 0.831117 0.548691 0.086166
C41   C     C_R   0.229423 0.723927 0.506760 0.003477
C42   C     C_R   0.770546 0.276100 0.506733 0.003511
C43   C     C_R   0.775540 0.728626 0.493974 0.001094
C44   C     C_R   0.224490 0.271403 0.493962 0.001075
C45   C     C_R   0.724459 0.228626 0.506026 0.001095
C46   C     C_R   0.275510 0.771403 0.506039 0.001070
C47   C     C_R   0.270575 0.223927 0.493242 0.003481
C48   C     C_R   0.729454 0.776100 0.493266 0.003511
C49   C     C_R   0.173736 0.731724 0.562230 0.092404
C50   C     C_R   0.826095 0.268437 0.562577 0.092336
C51   C     C_R   0.829754 0.735088 0.553146 0.096206
C52   C     C_R   0.170149 0.264814 0.552821 0.096281
C53   C     C_R   0.670247 0.235087 0.446851 0.096203
C54   C     C_R   0.329865 0.764800 0.447214 0.096288
C55   C     C_R   0.326249 0.231710 0.437736 0.092401
C56   C     C_R   0.673904 0.768436 0.437426 0.092337
C57   C     C_R   0.294606 0.661475 0.396390 0.246104
C58   C     C_R   0.705682 0.338241 0.395500 0.246293
C59   C     C_R   0.712643 0.668339 0.377748 0.254609
C60   C     C_R   0.287612 0.331908 0.378302 0.254534
C61   C     C_R   0.787354 0.168342 0.622258 0.254607
C62   C     C_R   0.212360 0.831935 0.621632 0.254555
C63   C     C_R   0.205422 0.161505 0.603691 0.246111
C64   C     C_R   0.794321 0.838244 0.604494 0.246288
C65   C     C_R   0.834088 0.214989 0.619694 -0.288904
C66   C     C_R   0.165619 0.785296 0.619025 -0.288887
C67   C     C_R   0.161015 0.210267 0.606979 -0.285330
C68   C     C_R   0.838745 0.789494 0.607697 -0.285302
C69   C     C_R   0.339013 0.710238 0.393095 -0.285331
C70   C     C_R   0.661257 0.289491 0.392296 -0.285301
C71   C     C_R   0.665909 0.714986 0.380313 -0.288906
C72   C     C_R   0.334353 0.285269 0.380908 -0.288890
C73   C     C_R   0.056739 0.499437 0.793308 0.330224
C74   C     C_R   0.944202 0.490970 0.205119 0.339068
C75   C     C_R   0.943261 0.500562 0.793299 0.330193
C76   C     C_R   0.055807 0.509019 0.205140 0.339035
C77   C     C_R   0.555797 0.990962 0.794881 0.339065
C78   C     C_R   0.443261 0.999439 0.206692 0.330222
C79   C     C_R   0.444194 0.009027 0.794861 0.339041
C80   C     C_R   0.556738 0.000558 0.206701 0.330195
N1    N     N_R   0.000000 0.500000 0.743810 -0.210442
N2    N     N_R   0.000000 0.500000 0.256190 -0.206734
N3    N     N_R   0.500000 0.000000 0.743810 -0.206731
N4    N     N_R   0.500000 1.000000 0.256190 -0.210443
C81   C     C_R   0.942347 0.497965 0.896064 -0.052320
C82   C     C_R   0.057212 0.503844 0.102321 -0.052823
C83   C     C_R   0.057656 0.502048 0.896073 -0.052328
C84   C     C_R   0.942795 0.496177 0.102307 -0.052930
C85   C     C_R   0.442788 0.003850 0.897680 -0.052830
C86   C     C_R   0.557653 0.997959 0.103937 -0.052321
C87   C     C_R   0.557204 0.996169 0.897694 -0.052927
C88   C     C_R   0.442344 0.002052 0.103928 -0.052327
C89   C     C_R   0.000002 0.500017 0.947502 0.044370
C90   C     C_R   0.000003 0.500022 0.050786 0.051249
C91   C     C_R   0.499997 0.000020 0.949215 0.051249
C92   C     C_R   0.499998 0.000015 0.052499 0.044371
C93   C     C_R   0.885373 0.494235 0.948930 -0.189129
C94   C     C_R   0.114497 0.505190 0.049564 -0.203379
C95   C     C_R   0.114631 0.505753 0.948949 -0.189101
C96   C     C_R   0.885509 0.494788 0.049544 -0.203366
C97   C     C_R   0.385503 0.005204 0.950437 -0.203373
C98   C     C_R   0.614626 0.994223 0.051070 -0.189129
C99   C     C_R   0.614490 0.994775 0.950456 -0.203367
C100  C     C_R   0.385369 0.005764 0.051051 -0.189109
H1    H     H_    0.839881 0.489798 0.913629 0.141232
H2    H     H_    0.160118 0.506749 0.085375 0.148001
H3    H     H_    0.160127 0.510160 0.913654 0.141226
H4    H     H_    0.839893 0.493169 0.085356 0.148127
H5    H     H_    0.339883 0.006773 0.914625 0.148011
H6    H     H_    0.660118 0.989784 0.086372 0.141231
H7    H     H_    0.660106 0.993151 0.914645 0.148125
H8    H     H_    0.339875 0.010176 0.086347 0.141226
H9    H     H_    0.083182 0.691799 0.600571 0.132243
H10   H     H_    0.916549 0.308455 0.601228 0.132408
H11   H     H_    0.916435 0.691558 0.601452 0.131132
H12   H     H_    0.083371 0.308250 0.600926 0.131021
H13   H     H_    0.583567 0.191555 0.398542 0.131135
H14   H     H_    0.416653 0.808226 0.399129 0.131006
H15   H     H_    0.416794 0.191776 0.399368 0.132261
H16   H     H_    0.583449 0.808453 0.398778 0.132404
H17   H     H_    0.197886 0.578922 0.414538 0.183456
H18   H     H_    0.802328 0.420856 0.413817 0.183837
H19   H     H_    0.808262 0.584946 0.397519 0.173682
H20   H     H_    0.191959 0.415281 0.398046 0.173649
H21   H     H_    0.691736 0.084949 0.602487 0.173684
H22   H     H_    0.308018 0.915303 0.601896 0.173634
H23   H     H_    0.302133 0.078943 0.585524 0.183483
H24   H     H_    0.697673 0.920858 0.586179 0.183831
N5    N     N_2   0.305728 0.606059 0.341849 -0.450109
H25   H     H_    0.329359 0.613973 0.277850 0.248200
C101  C     C_3   0.334304 0.555693 0.396486 -0.705463
H26   H     H_    0.382536 0.569484 0.421358 0.224286
H27   H     H_    0.338540 0.513551 0.350138 0.236281
H28   H     H_    0.304514 0.543478 0.459832 0.238098
N6    N     N_2   0.694806 0.393427 0.340290 -0.450456
H29   H     H_    0.671454 0.385247 0.276137 0.248229
C102  C     C_3   0.666043 0.444061 0.394101 -0.705989
H30   H     H_    0.617641 0.430467 0.418446 0.224357
H31   H     H_    0.662173 0.486037 0.347321 0.236337
H32   H     H_    0.695501 0.456448 0.457727 0.238198
N7    N     N_2   0.703604 0.614867 0.317894 -0.443493
H33   H     H_    0.656570 0.602260 0.309773 0.245004
C103  C     C_3   0.736185 0.618168 0.226222 -0.724134
H34   H     H_    0.730209 0.573118 0.187217 0.223438
H35   H     H_    0.787845 0.626437 0.236646 0.236864
H36   H     H_    0.715968 0.656550 0.181600 0.230553
N8    N     N_2   0.296741 0.385461 0.318653 -0.443369
H37   H     H_    0.343793 0.398046 0.310690 0.244884
C104  C     C_3   0.264264 0.382304 0.226877 -0.723814
H38   H     H_    0.270305 0.427409 0.188043 0.223547
H39   H     H_    0.212589 0.374040 0.237122 0.236730
H40   H     H_    0.284518 0.343979 0.182179 0.230464
N9    N     N_2   0.796391 0.114872 0.682115 -0.443493
H41   H     H_    0.843426 0.102265 0.690240 0.245005
C105  C     C_3   0.763808 0.118175 0.773786 -0.724126
H42   H     H_    0.784026 0.156558 0.818408 0.230551
H43   H     H_    0.769783 0.073126 0.812793 0.223439
H44   H     H_    0.712149 0.126445 0.763359 0.236866
N10   N     N_2   0.203217 0.885501 0.681246 -0.443378
H45   H     H_    0.156163 0.898087 0.689178 0.244880
C106  C     C_3   0.235672 0.882367 0.773042 -0.723850
H46   H     H_    0.215407 0.844053 0.817750 0.230471
H47   H     H_    0.229622 0.927481 0.811847 0.223550
H48   H     H_    0.287349 0.874101 0.762830 0.236737
N11   N     N_2   0.194319 0.106107 0.658286 -0.450141
H49   H     H_    0.170714 0.114045 0.722299 0.248199
C107  C     C_3   0.165717 0.055725 0.603714 -0.705488
H50   H     H_    0.161493 0.013601 0.650102 0.236300
H51   H     H_    0.195484 0.043485 0.540354 0.238119
H52   H     H_    0.117478 0.069511 0.578871 0.224288
N12   N     N_2   0.805198 0.893431 0.659700 -0.450450
H53   H     H_    0.828552 0.885253 0.723850 0.248230
C108  C     C_3   0.833959 0.944064 0.605883 -0.705982
H54   H     H_    0.837831 0.986042 0.652660 0.236333
H55   H     H_    0.804498 0.956450 0.542259 0.238196
H56   H     H_    0.882360 0.930470 0.581534 0.224356
H57   H     H_    0.876510 0.209683 0.663299 0.140928
H58   H     H_    0.123098 0.790696 0.662377 0.140908
H59   H     H_    0.118765 0.205055 0.650995 0.140394
H60   H     H_    0.880876 0.794592 0.652008 0.140422
H61   H     H_    0.381275 0.705014 0.349109 0.140390
H62   H     H_    0.619127 0.294588 0.347983 0.140422
H63   H     H_    0.623486 0.709679 0.336710 0.140927
H64   H     H_    0.376864 0.290659 0.337530 0.140908
N13   N     N_2   0.114578 0.496275 0.740384 -0.371275
H65   H     H_    0.144223 0.534136 0.750845 0.228509
C109  C     C_3   0.147511 0.436526 0.744214 -0.644417
H66   H     H_    0.175201 0.431530 0.811638 0.191400
H67   H     H_    0.181161 0.433414 0.682808 0.227382
H68   H     H_    0.113450 0.396841 0.739410 0.236120
N14   N     N_2   0.887827 0.473257 0.254470 -0.376117
H69   H     H_    0.851764 0.505727 0.248301 0.227286
C110  C     C_3   0.867278 0.409256 0.235185 -0.679866
H70   H     H_    0.870793 0.396692 0.157890 0.209725
H71   H     H_    0.816791 0.403288 0.255664 0.228473
H72   H     H_    0.896964 0.375430 0.275817 0.253801
N15   N     N_2   0.885421 0.503698 0.740365 -0.371264
H73   H     H_    0.855795 0.465822 0.750814 0.228516
C111  C     C_3   0.852460 0.563431 0.744185 -0.644374
H74   H     H_    0.824731 0.568396 0.811574 0.191387
H75   H     H_    0.818841 0.566544 0.682735 0.227433
H76   H     H_    0.886506 0.603131 0.739452 0.236029
N16   N     N_2   0.112213 0.526596 0.254541 -0.376068
H77   H     H_    0.148227 0.494079 0.248297 0.227238
C112  C     C_3   0.132870 0.590579 0.235412 -0.679388
H78   H     H_    0.129782 0.603077 0.158054 0.209507
H79   H     H_    0.183246 0.596553 0.256512 0.228312
H80   H     H_    0.102968 0.624440 0.275610 0.253664
N17   N     N_2   0.612170 0.973244 0.745531 -0.376119
H81   H     H_    0.648237 0.005709 0.751702 0.227286
C113  C     C_3   0.632711 0.909240 0.764813 -0.679846
H82   H     H_    0.629201 0.896678 0.842109 0.209721
H83   H     H_    0.683195 0.903264 0.744322 0.228469
H84   H     H_    0.603015 0.875418 0.724187 0.253794
N18   N     N_2   0.385421 0.996279 0.259617 -0.371275
H85   H     H_    0.355779 0.034142 0.249157 0.228509
C114  C     C_3   0.352486 0.936532 0.255783 -0.644416
H86   H     H_    0.324802 0.931536 0.188354 0.191406
H87   H     H_    0.318831 0.933423 0.317184 0.227377
H88   H     H_    0.386545 0.896846 0.260597 0.236133
N19   N     N_2   0.387793 0.026623 0.745465 -0.376072
H89   H     H_    0.351770 0.994115 0.751703 0.227234
C115  C     C_3   0.367156 0.090611 0.764607 -0.679420
H90   H     H_    0.370275 0.103111 0.841962 0.209521
H91   H     H_    0.316774 0.096595 0.743548 0.228322
H92   H     H_    0.397051 0.124465 0.724382 0.253669
N20   N     N_2   0.614579 0.003691 0.259636 -0.371262
H93   H     H_    0.644203 0.965814 0.249188 0.228518
C116  C     C_3   0.647544 0.063423 0.255814 -0.644381
H94   H     H_    0.675271 0.068386 0.188424 0.191390
H95   H     H_    0.681163 0.066535 0.317263 0.227431
H96   H     H_    0.613499 0.103125 0.260548 0.236030

loop_
_geom_bond_atom_site_label_1
_geom_bond_atom_site_label_2
_geom_bond_distance
_ccdc_geom_bond_type
C9    H9    1.085197 S    
C80   C86   1.427556 A    
C102  H30   1.111627 S    
C8    C21   1.445862 S    
C111  H76   1.111499 S    
C76   N2    1.385006 A    
C116  H96   1.111499 S    
O2    C2    1.297388 A    
N18   C114  1.452254 S    
C104  H38   1.110550 S    
C84   C96   1.410723 A    
C63   C67   1.399383 A    
N16   H77   1.031212 S    
C14   C22   1.394748 A    
C67   H59   1.084466 S    
C44   C52   1.412370 A    
C73   N13   1.423223 S    
C82   C90   1.402638 A    
N7    H33   1.031805 S    
N11   H49   1.031930 S    
C45   C53   1.412371 A    
N8    C104  1.447108 S    
C110  H70   1.108312 S    
C58   C70   1.399378 A    
C74   C84   1.431636 A    
C116  H94   1.107520 S    
C7    C22   1.445855 S    
C32   C40   1.399068 A    
O12   Cu4   1.955519 S    
C54   C69   1.399009 A    
C81   C89   1.408316 A    
C103  H35   1.110726 S    
C39   C63   1.412554 A    
C53   C70   1.399019 A    
C88   C100  1.407885 A    
C38   C62   1.413080 A    
C77   C87   1.431640 A    
C107  H51   1.110860 S    
C58   N6    1.423620 S    
C110  H72   1.108773 S    
O6    Cu1   1.955534 S    
N6    C102  1.446362 S    
C113  H83   1.107103 S    
C84   C90   1.402611 A    
C91   C92   1.433559 A    
C46   C54   1.412372 A    
C27   H19   1.083878 S    
C80   N4    1.377498 A    
C112  H80   1.108820 S    
C29   C37   1.399090 A    
C109  H67   1.110087 S    
O13   C7    1.298730 A    
C64   N12   1.423622 S    
C20   C28   1.396006 A    
N19   H89   1.031212 S    
C101  H28   1.110865 S    
O14   C8    1.297388 A    
C14   C54   1.392741 A    
C94   C95   1.396566 A    
C83   C89   1.408309 A    
C97   C100  1.396566 A    
C113  H82   1.108309 S    
C16   C56   1.393199 A    
C15   H15   1.085194 S    
C106  H46   1.111563 S    
C33   C41   1.416966 A    
C41   C46   1.402550 A    
C38   C46   1.417300 A    
C77   N17   1.421058 S    
C78   N18   1.423224 S    
C103  H34   1.110536 S    
C13   H13   1.085129 S    
C108  H55   1.110832 S    
C35   C43   1.417298 A    
C62   N10   1.424281 S    
C109  H68   1.111503 S    
C93   H1    1.079515 S    
C101  H26   1.111665 S    
C36   C44   1.417299 A    
O13   Cu4   1.955537 S    
O11   Cu3   1.955519 S    
O14   Cu3   1.955534 S    
C15   C23   1.395795 A    
C10   C50   1.393199 A    
C60   N8    1.424286 S    
C59   C71   1.399781 A    
C72   H64   1.084419 S    
C4    C17   1.446823 S    
C39   C47   1.416966 A    
C30   H22   1.083883 S    
O16   Cu3   1.955517 S    
C11   C51   1.392720 A    
N10   C106  1.447107 S    
C27   C35   1.399092 A    
C25   C33   1.399097 A    
C74   N14   1.421057 S    
C32   H24   1.081608 S    
N9    H41   1.031804 S    
C114  H86   1.107512 S    
C82   C94   1.410732 A    
O1    Cu1   1.955537 S    
O8    Cu1   1.955517 S    
C104  H39   1.110715 S    
C42   C50   1.411994 A    
C81   C93   1.407895 A    
C59   N7    1.424296 S    
C83   C95   1.407887 A    
O3    C2    1.298729 A    
N7    C103  1.447099 S    
C100  H8    1.079526 S    
C105  H44   1.110725 S    
C9    C49   1.393221 A    
N20   C116  1.452243 S    
C116  H95   1.110072 S    
O8    C3    1.293288 A    
C78   C88   1.427564 A    
C26   H18   1.081605 S    
C87   C99   1.410726 A    
N12   H53   1.031856 S    
C107  H52   1.111665 S    
C44   C47   1.402550 A    
O3    Cu1   1.955519 S    
C103  H36   1.111549 S    
C105  H43   1.110534 S    
C79   N3    1.385011 A    
Cu2   N2    2.031866 S    
C93   C96   1.396558 A    
C73   N1    1.377501 A    
N8    H37   1.031809 S    
C12   H12   1.085156 S    
O5    Cu2   1.955537 S    
C34   C42   1.416982 A    
C28   H20   1.083882 S    
C10   H10   1.085175 S    
Cu1   Cu2   2.704342 S    
N13   H65   1.031062 S    
O12   C5    1.293288 A    
C14   H14   1.085157 S    
O10   C6    1.293292 A    
C109  H66   1.107509 S    
C75   N15   1.423211 S    
N19   C115  1.457422 S    
C1    C20   1.445856 S    
C61   N9    1.424296 S    
C60   C72   1.399797 A    
C33   C57   1.412554 A    
C2    C19   1.445864 S    
N12   C108  1.446362 S    
N17   H81   1.031211 S    
C3    C18   1.446883 S    
C111  H75   1.110071 S    
C5    C24   1.446884 S    
C35   C59   1.413045 A    
Cu4   N4    2.031866 S    
N14   H69   1.031210 S    
C11   C19   1.394768 A    
C31   H23   1.081677 S    
C22   C30   1.396005 A    
N18   H85   1.031063 S    
C76   N16   1.421106 S    
C15   C55   1.393220 A    
C26   C34   1.399067 A    
N16   C112  1.457419 S    
C112  H78   1.108248 S    
C30   C38   1.399147 A    
C29   H21   1.083877 S    
O2    Cu2   1.955537 S    
C16   H16   1.085176 S    
C40   C48   1.416982 A    
C77   N3    1.384956 A    
N9    C105  1.447098 S    
C55   C72   1.399214 A    
C25   H17   1.081681 S    
O5    C3    1.303217 A    
O4    C1    1.297381 A    
C13   C53   1.392718 A    
O15   C8    1.298728 A    
N14   C110  1.457484 S    
C66   H58   1.084420 S    
O7    C4    1.303190 A    
O16   C7    1.297383 A    
C12   C20   1.394744 A    
C114  H87   1.110086 S    
C111  H74   1.107519 S    
C104  H40   1.111565 S    
C37   C61   1.413045 A    
C16   C24   1.395823 A    
C31   C39   1.399096 A    
C57   N5    1.423592 S    
O9    C5    1.303218 A    
C86   C92   1.408316 A    
C88   C92   1.408312 A    
C52   C67   1.399003 A    
C79   N19   1.421101 S    
O9    Cu3   1.955537 S    
C115  H91   1.107087 S    
C19   C27   1.395988 A    
C89   C90   1.433562 A    
N13   C109  1.452253 S    
C106  H48   1.110716 S    
O10   Cu4   1.955537 S    
C73   C83   1.427566 A    
C28   C36   1.399145 A    
C76   C82   1.431687 A    
C43   C48   1.402518 A    
C97   H5    1.081504 S    
C115  H92   1.108820 S    
C42   C45   1.402516 A    
C99   H7    1.081515 S    
C64   C68   1.399379 A    
C37   C45   1.417298 A    
C24   C32   1.393268 A    
O4    Cu2   1.955519 S    
N20   H93   1.031064 S    
C96   H4    1.081517 S    
C57   C69   1.399388 A    
N10   H45   1.031810 S    
C48   C56   1.411993 A    
C21   C29   1.395987 A    
O6    C4    1.293293 A    
C69   H61   1.084471 S    
O11   C6    1.303194 A    
O1    C1    1.298734 A    
C36   C60   1.413080 A    
C65   H57   1.084393 S    
C41   C49   1.411982 A    
C68   H60   1.084419 S    
C79   C85   1.431685 A    
N5    C101  1.446391 S    
N15   H73   1.031064 S    
C110  H71   1.107102 S    
C13   C21   1.394767 A    
C107  H50   1.109342 S    
N17   C113  1.457485 S    
C105  H42   1.111550 S    
C62   C66   1.399797 A    
N5    H25   1.031943 S    
C86   C98   1.407894 A    
C108  H56   1.111627 S    
C102  H32   1.110832 S    
C40   C64   1.412580 A    
Cu1   N1    2.031866 S    
O15   Cu4   1.955514 S    
O7    Cu2   1.955514 S    
C23   C31   1.393271 A    
C78   N4    1.377498 A    
Cu3   N3    2.031866 S    
C112  H79   1.107088 S    
C34   C58   1.412578 A    
C75   C81   1.427558 A    
C113  H84   1.108774 S    
C101  H27   1.109352 S    
N15   C111  1.452247 S    
C71   H63   1.084391 S    
C18   C26   1.393267 A    
C11   H11   1.085130 S    
N11   C107  1.446383 S    
C85   C91   1.402634 A    
C56   C71   1.399246 A    
C51   C68   1.399019 A    
C75   N1    1.377504 A    
C106  H47   1.110552 S    
C47   C55   1.411982 A    
C74   N2    1.384952 A    
C102  H31   1.109396 S    
C108  H54   1.109399 S    
C114  H88   1.111503 S    
C9    C17   1.395789 A    
Cu3   Cu4   2.704342 S    
C80   N20   1.423212 S    
C63   N11   1.423589 S    
C87   C91   1.402608 A    
C85   C97   1.410735 A    
C94   H2    1.081504 S    
C10   C18   1.395822 A    
C70   H62   1.084420 S    
C98   C99   1.396558 A    
N6    H29   1.031856 S    
C50   C65   1.399246 A    
C17   C25   1.393270 A    
C43   C51   1.412372 A    
C98   H6    1.079518 S    
C6    C23   1.446836 S    
C61   C65   1.399781 A    
C49   C66   1.399209 A    
C115  H90   1.108252 S    
C12   C52   1.392734 A    
C95   H3    1.079526 S    
