data_mof_unit_46280.cif
_audit_creation_date              2013-03-05T15:55:41-0500
_audit_creation_method            fapswitch 2.2
_symmetry_space_group_name_H-M    P1
_symmetry_Int_Tables_number       1
_space_group_crystal_system       triclinic
_cell_length_a                    6.931206
_cell_length_b                    17.594274
_cell_length_c                    19.449501
_cell_angle_alpha                 108.51211
_cell_angle_beta                  89.606311
_cell_angle_gamma                 90.538316
_cell_volume                      2249.01142307

loop_
_atom_site_label
_atom_site_type_symbol
_atom_site_description
_atom_site_fract_x
_atom_site_fract_y
_atom_site_fract_z
_atom_type_partial_charge
O1    O     O_R   0.494330 0.415710 0.413720 -0.598711
O2    O     O_R   0.819360 0.430070 0.560210 -0.600509
O3    O     O_R   0.994320 0.584290 0.586280 -0.598872
C1    C     C_R   0.650265 0.415384 0.582100 0.952196
O4    O     O_R   0.823740 0.406290 0.412670 -0.598847
O5    O     O_R   0.998730 0.560340 0.437690 -0.594512
C2    C     C_R   0.654747 0.383116 0.384674 0.920666
O6    O     O_R   0.489920 0.439660 0.562310 -0.593763
O7    O     O_3   0.662330 0.550570 0.508380 -0.274603
V1    V     V_3+5 0.935370 0.490620 0.498440 1.150067
O8    O     O_R   0.328720 0.569930 0.439790 -0.597536
C3    C     C_R   0.160651 0.585170 0.418222 0.956895
O9    O     O_R   0.324340 0.593710 0.587330 -0.598464
C4    C     C_R   0.155198 0.616922 0.615295 0.923804
V2    V     V_3+5 0.435940 0.509380 0.501560 1.151613
O10   O     O_3   0.159110 0.449430 0.491620 -0.276354
C5    C     C_R   0.312268 0.723977 0.718512 -0.142764
H1    H     H_    0.453161 0.704893 0.695435 0.121931
C6    C     C_R   0.301008 0.787772 0.783467 -0.066530
H2    H     H_    0.433822 0.815990 0.808293 0.129613
C7    C     C_R   0.121200 0.814785 0.815779 -0.128893
C8    C     C_R   0.952967 0.776281 0.781211 -0.130024
H3    H     H_    0.812062 0.795387 0.804267 0.122918
C9    C     C_R   0.964224 0.712474 0.716272 -0.127492
H4    H     H_    0.831389 0.684284 0.691442 0.124150
C10   C     C_R   0.144035 0.685397 0.683995 -0.129890
C11   C     C_R   0.308130 0.634486 0.321710 -0.241167
C12   C     C_R   0.153136 0.634668 0.368985 -0.145893
C13   C     C_R   0.989938 0.681517 0.368270 -0.244617
C14   C     C_R   0.981787 0.728349 0.321726 0.150857
C15   C     C_R   0.136636 0.726893 0.273816 0.030952
C16   C     C_R   0.299807 0.679387 0.273529 0.144442
C17   C     C_R   0.821537 0.776732 0.322243 -0.214373
C18   C     C_R   0.813382 0.822437 0.275082 -0.210295
C19   C     C_R   0.965038 0.820467 0.226348 0.151215
C20   C     C_R   0.128209 0.772961 0.226058 0.031250
C21   C     C_R   0.283063 0.771511 0.178153 0.145162
C22   C     C_R   0.443300 0.723118 0.177628 -0.203222
C23   C     C_R   0.451451 0.677408 0.224787 -0.190394
C24   C     C_R   0.956730 0.865382 0.178179 -0.254044
C25   C     C_R   0.111742 0.865221 0.130920 -0.135346
C26   C     C_R   0.274932 0.818363 0.131624 -0.248838
H5    H     H_    0.433814 0.598159 0.321447 0.137656
H6    H     H_    0.870201 0.682355 0.404668 0.141652
H7    H     H_    0.701632 0.778843 0.358836 0.143969
H8    H     H_    0.687504 0.858943 0.276389 0.142261
H9    H     H_    0.831046 0.901712 0.178445 0.134950
H10   H     H_    0.577324 0.640900 0.223477 0.148260
C27   C     C_R   0.772532 0.184626 0.869040 -0.103997
C28   C     C_R   0.620679 0.130176 0.865173 -0.330370
C29   C     C_R   0.471781 0.122569 0.813858 0.322083
C30   C     C_R   0.473295 0.171585 0.768626 0.054445
C31   C     C_R   0.627499 0.226452 0.773301 0.002181
C32   C     C_R   0.777637 0.233832 0.824257 -0.031259
C33   C     C_R   0.324715 0.166460 0.718095 -0.130501
C34   C     C_R   0.326633 0.215147 0.673766 -0.235789
C35   C     C_R   0.479638 0.268528 0.677041 0.186865
C36   C     C_R   0.631823 0.273679 0.726356 0.079266
C37   C     C_R   0.788677 0.325772 0.728321 0.087556
C38   C     C_R   0.936433 0.332862 0.778713 -0.327644
C39   C     C_R   0.930215 0.289561 0.828208 0.363654
C40   C     C_R   0.483828 0.316195 0.631181 -0.260297
C41   C     C_R   0.641891 0.366958 0.631966 -0.153505
C42   C     C_R   0.794242 0.371055 0.680472 -0.203577
H11   H     H_    0.886643 0.187827 0.907453 0.203999
H12   H     H_    0.204909 0.125160 0.712523 0.170846
H13   H     H_    0.366490 0.312298 0.593590 0.139646
H14   H     H_    0.915841 0.410766 0.681894 0.135054
H15   H     H_    0.054563 0.374476 0.781241 0.183057
C43   C     C_R   0.811591 0.276334 0.281573 -0.137037
H16   H     H_    0.952288 0.295515 0.304819 0.120812
C44   C     C_R   0.800514 0.212555 0.216602 -0.125192
H17   H     H_    0.933203 0.184458 0.191927 0.123458
C45   C     C_R   0.621009 0.185398 0.184094 -0.118990
C46   C     C_R   0.452885 0.223818 0.218422 -0.129242
H18   H     H_    0.312198 0.204633 0.195168 0.122674
C47   C     C_R   0.463963 0.287603 0.283398 -0.133981
H19   H     H_    0.331287 0.315709 0.308076 0.124512
C48   C     C_R   0.643473 0.314741 0.315916 -0.127069
O11   O     O_R   0.774940 0.060470 0.937800 -0.577955
O12   O     O_R   0.440880 0.093730 0.087350 -0.604054
O13   O     O_R   0.266130 0.939630 0.062280 -0.605881
C49   C     C_R   0.609819 0.116985 0.115365 0.912010
O14   O     O_R   0.445480 0.069960 0.939820 -0.554602
O15   O     O_R   0.270770 0.915690 0.913690 -0.582673
C50   C     C_R   0.614146 0.083286 0.916721 1.040102
O16   O     O_R   0.770300 0.084410 0.086380 -0.603934
O17   O     O_3   0.602600 0.949510 0.991670 -0.291815
V3    V     V_3+5 0.329470 0.009370 0.001550 1.216171
O18   O     O_R   0.940760 0.906160 0.912560 -0.605506
C51   C     C_R   0.109952 0.883104 0.884575 0.987315
O19   O     O_R   0.936150 0.929930 0.060100 -0.604686
C52   C     C_R   0.104222 0.914739 0.081701 0.929221
V4    V     V_3+5 0.828930 0.990450 0.998310 1.185362
O20   O     O_3   0.105670 0.050490 0.008320 -0.255389
H20   H     H_    0.394676 0.817536 0.095231 0.140063
H21   H     H_    0.563204 0.721006 0.141034 0.146499
N1    N     N_R   0.325594 0.061909 0.804962 0.224747
O21   O     O_R   0.372974 0.986612 0.783911 -0.431918
O22   O     O_R   0.147870 0.081930 0.823246 -0.423328
H22   H     H_    0.208915 0.210298 0.636178 0.137158
N2    N     N_R   0.076222 0.305267 0.883297 0.239089
O23   O     O_R   0.026438 0.320222 0.950907 -0.395845
O24   O     O_R   0.251764 0.322144 0.868577 -0.402329

loop_
_geom_bond_atom_site_label_1
_geom_bond_atom_site_label_2
_geom_bond_distance
_ccdc_geom_bond_type
C24   H9    1.084334 S    
C49   O16   1.296820 A    
C33   C34   1.394960 A    
C17   H7    1.083657 S    
C25   C26   1.408608 A    
C19   C20   1.411543 A    
C45   C49   1.489864 S    
C1    O6    1.298055 A    
O15   C51   1.297055 A    
C35   C40   1.404999 A    
C31   C32   1.418421 A    
C1    C41   1.480875 S    
C37   C42   1.404306 A    
C21   C22   1.403802 A    
O13   V3    1.999144 S    
C27   H11   1.080497 S    
C40   H13   1.084430 S    
C3    C12   1.486384 S    
C26   H20   1.084288 S    
C5    C10   1.406287 A    
C42   H14   1.084557 S    
C20   C21   1.411558 A    
C6    C7    1.408820 A    
O14   C50   1.295383 A    
C34   H22   1.083857 S    
C15   C20   1.415235 A    
O5    C3    1.297607 A    
C14   C15   1.411556 A    
C27   C32   1.409706 A    
O16   V4    2.009241 S    
C34   C35   1.398238 A    
C18   C19   1.403820 A    
C16   C23   1.403828 A    
C21   C26   1.406033 A    
O11   C50   1.300199 A    
O8    V2    1.992603 S    
C25   C52   1.486364 S    
C6    H2    1.082758 S    
O18   V4    2.003725 S    
C43   H16   1.082730 S    
C18   H8    1.083630 S    
O7    V1    2.152780 S    
C30   C33   1.410850 A    
O12   V3    2.001853 S    
C29   N1    1.435449 S    
C43   C48   1.406454 A    
C37   C38   1.399555 A    
O13   C52   1.297625 A    
O9    C4    1.302393 A    
V4    O20   2.160910 S    
C22   H21   1.083656 S    
O12   C49   1.301391 A    
C28   C29   1.416287 A    
C35   C36   1.413414 A    
C47   C48   1.408527 A    
O17   V4    1.708492 S    
C45   C46   1.406469 A    
C29   C30   1.413951 A    
C9    H4    1.082748 S    
C44   C45   1.408500 A    
O4    C2    1.301364 A    
O15   V3    2.002680 S    
C36   C37   1.408220 A    
C47   H19   1.082753 S    
C38   C39   1.404825 A    
V3    O20   1.704342 S    
O2    C1    1.295761 A    
C46   H18   1.082731 S    
C13   C14   1.406004 A    
C15   C16   1.411544 A    
C31   C36   1.416305 A    
C40   C41   1.404056 A    
O19   V4    1.992520 S    
C5    H1    1.082724 S    
C4    C10   1.490276 S    
N2    O24   1.301128 A    
C46   C47   1.400538 A    
O3    C4    1.297065 A    
O1    V2    2.003435 S    
C24   C25   1.408583 A    
N1    O21   1.300945 A    
O6    V2    1.993956 S    
N1    O22   1.300213 A    
O9    V2    2.003675 S    
C13   H6    1.084288 S    
C8    C9    1.400544 A    
O14   V3    2.001961 S    
O11   V4    1.994545 S    
O2    V1    2.002054 S    
C33   H12   1.081304 S    
C30   C31   1.417303 A    
C2    C48   1.489894 S    
C7    C51   1.490067 S    
C12   C13   1.408601 A    
C14   C17   1.403793 A    
C11   C16   1.406160 A    
O1    C2    1.296894 A    
C9    C10   1.408843 A    
C44   H17   1.082756 S    
O5    V1    1.999195 S    
O8    C3    1.299588 A    
C32   C39   1.421096 A    
C39   N2    1.438797 S    
O7    V2    1.710407 S    
O4    V1    2.001842 S    
O3    V1    2.002703 S    
V1    O10   1.704403 S    
O18   C51   1.302312 A    
C22   C23   1.400434 A    
C38   H15   1.084125 S    
O19   C52   1.299585 A    
C5    C6    1.400639 A    
C17   C18   1.400416 A    
C19   C24   1.406137 A    
N2    O23   1.301239 A    
C28   C50   1.487203 S    
C41   C42   1.406912 A    
C11   H5    1.084333 S    
O17   V3    2.152671 S    
C27   C28   1.402728 A    
C11   C12   1.408600 A    
C8    H3    1.082743 S    
C43   C44   1.400424 A    
C7    C8    1.406187 A    
V2    O10   2.160827 S    
C23   H10   1.083630 S    
