data_mof_unit_14667.cif
_audit_creation_date              2012-12-11T15:34:33-0500
_audit_creation_method            fapswitch 2.2
_symmetry_space_group_name_H-M    P1
_symmetry_Int_Tables_number       1
_space_group_crystal_system       triclinic
_cell_length_a                    15.057666
_cell_length_b                    15.078879
_cell_length_c                    34.953115
_cell_angle_alpha                 90.565017
_cell_angle_beta                  90.01072
_cell_angle_gamma                 60.012487
_cell_volume                      6873.37817839

loop_
_atom_site_label
_atom_site_type_symbol
_atom_type_description
_atom_site_fract_x
_atom_site_fract_y
_atom_site_fract_z
_atom_type_partial_charge
C1    C     C_R   0.302580 0.608255 0.555759 0.540972
C2    C     C_R   0.246212 0.704081 0.384823 -0.122823
C3    C     C_R   0.752496 0.146318 0.266460 -0.112484
C4    C     C_R   0.758368 0.139146 0.226682 -0.108241
C5    C     C_R   0.670947 0.198754 0.204412 0.024288
C6    C     C_R   0.723492 0.226743 0.348723 -0.121997
C7    C     C_R   0.707780 0.245618 0.387959 -0.126652
C8    C     C_R   0.551686 0.236681 0.383737 -0.122293
C9    C     C_R   0.730689 0.566556 0.651146 -0.136252
C10   C     C_R   0.567190 0.218384 0.344525 -0.121357
C11   C     C_R   0.650990 0.217291 0.326552 0.028425
C12   C     C_R   0.619340 0.255162 0.405509 0.022635
C13   C     C_R   0.225592 0.703999 0.346071 -0.123215
C14   C     C_R   0.082493 0.709455 0.094261 -0.052103
C15   C     C_R   0.112941 0.610859 0.107372 -0.090639
C16   C     C_R   0.148776 0.583180 0.144556 0.238132
C17   C     C_R   0.153607 0.654865 0.169291 -0.009235
C18   C     C_R   0.127852 0.753112 0.155731 -0.021248
C19   C     C_R   0.094022 0.778447 0.117992 -0.102813
C20   C     C_R   0.266015 0.618386 0.225898 -0.114691
C21   C     C_2   0.784657 0.525705 0.084560 0.248116
C22   C     C_2   0.129119 0.832370 0.181135 0.213060
C23   C     C_R   0.207051 0.628687 0.330710 0.027132
C24   C     C_R   0.576621 0.732450 0.648898 -0.078608
C25   C     C_R   0.250407 0.627512 0.408584 0.023651
C26   C     C_R   0.736098 0.025182 0.943264 0.546571
C27   C     C_R   0.745732 0.722823 0.945163 0.546744
C28   C     C_R   0.038103 0.734080 0.948290 0.544099
C29   C     C_R   0.723066 0.038619 0.052882 0.542380
C30   C     C_R   0.732551 0.733947 0.054360 0.521828
C31   C     C_R   0.657164 0.655589 0.669963 -0.005250
C32   C     C_R   0.027221 0.744997 0.057934 0.547022
C33   C     C_R   0.563798 0.716601 0.610264 0.222639
C34   C     C_R   0.662118 0.675028 0.789325 0.376327
C35   C     C_R   0.660879 0.663839 0.711822 0.336256
C36   C     C_R   0.758873 0.603560 0.849144 -0.157881
C37   C     C_R   0.779457 0.613327 0.887231 -0.144056
C38   C     C_R   0.620380 0.774804 0.891745 -0.083847
C39   C     C_R   0.598762 0.765442 0.853546 0.255402
C40   C     C_R   0.670998 0.681267 0.831252 0.050365
C41   C     C_R   0.610893 0.588717 0.555239 0.569419
C42   C     C_R   0.277597 0.614368 0.265454 -0.123046
C43   C     C_R   0.712641 0.701170 0.908354 -0.018161
C44   C     C_R   0.724060 0.070833 0.905176 0.018440
C45   C     C_R   0.631864 0.105360 0.885090 -0.106582
C46   C     C_R   0.627677 0.124779 0.846059 -0.061884
C47   C     C_R   0.715501 0.109780 0.826562 0.056049
C48   C     C_R   0.805230 0.083412 0.846990 -0.114325
C49   C     C_R   0.809593 0.063977 0.886096 -0.122740
C50   C     C_R   0.732795 0.191246 0.768046 -0.155317
C51   C     C_R   0.725998 0.204491 0.728557 -0.123719
C52   C     C_R   0.701099 0.144071 0.705029 -0.017246
C53   C     C_R   0.199086 0.621386 0.289207 0.022597
C54   C     C_R   0.590443 0.300374 0.553530 0.545087
C55   C     C_R   0.686593 0.067770 0.721519 -0.079257
C56   C     C_R   0.693494 0.053991 0.761082 0.245906
C57   C     C_R   0.714385 0.117796 0.784668 0.024138
C58   C     C_R   0.595145 0.173828 0.646543 -0.111568
C59   C     C_R   0.568324 0.211247 0.609488 -0.117005
C60   C     C_R   0.720465 0.227107 0.605457 -0.124335
C61   C     C_R   0.747065 0.189953 0.642520 -0.114773
C62   C     C_R   0.682815 0.166333 0.663832 0.031394
C63   C     C_R   0.628829 0.241711 0.589121 0.020593
C64   C     C_R   0.111311 0.626989 0.273104 -0.112082
C65   C     C_R   0.091037 0.697767 0.911093 0.021401
C66   C     C_R   0.300642 0.610035 0.445980 0.538441
C67   C     C_R   0.120947 0.758864 0.890942 -0.117593
C68   C     C_R   0.144016 0.741686 0.852064 -0.112079
C69   C     C_R   0.138744 0.662520 0.832757 0.030814
C70   C     C_R   0.118441 0.595390 0.853490 -0.111153
C71   C     C_R   0.094510 0.612990 0.892431 -0.120394
C72   C     C_R   0.209043 0.562457 0.771992 -0.105429
C73   C     C_R   0.217723 0.558362 0.732170 -0.102841
C74   C     C_R   0.162278 0.647610 0.710458 0.031863
C75   C     C_R   0.099073 0.632543 0.233544 -0.071110
C76   C     C_R   0.095792 0.740285 0.729263 -0.099482
C77   C     C_R   0.087916 0.744485 0.769017 -0.092338
C78   C     C_R   0.608055 0.589615 0.445318 0.542849
C79   C     C_R   0.145738 0.655997 0.790696 0.031512
C80   C     C_R   0.190986 0.724187 0.652046 -0.111704
C81   C     C_R   0.223583 0.715499 0.614199 -0.111279
C82   C     C_R   0.229891 0.552216 0.608321 -0.124891
C83   C     C_R   0.196886 0.561132 0.646189 -0.116299
C84   C     C_R   0.180612 0.645502 0.668800 0.030581
C85   C     C_R   0.247082 0.627628 0.592418 0.016754
C86   C     C_R   0.175185 0.631008 0.209974 0.053122
C87   C     C_R   0.689457 0.719775 0.090340 -0.017622
C88   C     C_R   0.621137 0.808155 0.111270 -0.130479
C89   C     C_R   0.596076 0.801530 0.148982 -0.122030
C90   C     C_R   0.587750 0.303150 0.443678 0.544242
C91   C     C_R   0.639379 0.706453 0.166958 0.001899
C92   C     C_R   0.700814 0.617090 0.145371 -0.075586
C93   C     C_R   0.724732 0.622279 0.106876 0.012782
C94   C     C_R   0.618752 0.619538 0.224292 -0.111254
C95   C     C_R   0.618239 0.608621 0.263816 -0.112968
C96   C     C_R   0.624018 0.679631 0.288402 0.025839
C97   C     C_R   0.202015 0.557742 0.354835 -0.119104
C98   C     C_R   0.627374 0.763332 0.273133 -0.112246
C99   C     C_R   0.629615 0.773437 0.233581 -0.104422
C100  C     C_R   0.626717 0.700845 0.208722 0.033373
C101  C     C_R   0.556431 0.739496 0.354418 -0.122078
C102  C     C_R   0.632818 0.622041 0.592294 0.031646
C103  C     C_R   0.553730 0.718344 0.393079 -0.125732
C104  C     C_R   0.702565 0.549793 0.383501 -0.123725
C105  C     C_R   0.704063 0.570366 0.344866 -0.121738
C106  C     C_R   0.629261 0.664029 0.329913 0.026247
C107  C     C_R   0.624867 0.621977 0.407673 0.023772
C108  C     C_R   0.224209 0.556731 0.393620 -0.125524
C109  C     C_R   0.699488 0.101110 0.088025 0.015148
C110  C     C_R   0.773663 0.120567 0.104137 -0.111264
C111  C     C_R   0.761122 0.159580 0.141273 -0.102703
C112  C     C_R   0.674310 0.179679 0.162839 0.022194
C113  C     C_R   0.596139 0.168658 0.145541 -0.110772
C114  C     C_R   0.719056 0.550287 0.612786 -0.168175
C115  C     C_R   0.608530 0.129859 0.108390 -0.119699
C116  C     C_R   0.578460 0.268232 0.222572 -0.112996
C117  C     C_R   0.572522 0.275020 0.262353 -0.114983
C118  C     C_R   0.659007 0.212639 0.284559 0.025016
Cl1   Cl    Cl    0.677776 0.954655 0.779932 -0.563822
Cl2   Cl    Cl    0.458309 0.816449 0.586598 -0.598765
Cl3   Cl    Cl    0.183213 0.459085 0.159851 -0.597781
Cl4   Cl    Cl    0.480597 0.861600 0.835453 -0.549520
Cr1   Cr    Cr6+3 0.421670 0.426920 0.499620 1.018315
Cr2   Cr    Cr6+3 0.427030 0.651190 0.500980 1.080996
Cr3   Cr    Cr6+3 0.651280 0.421870 0.499380 1.014520
Cr4   Cr    Cr6+3 0.910810 0.908010 0.001130 1.030954
Cr5   Cr    Cr6+3 0.682800 0.909890 0.998370 1.032374
Cr6   Cr    Cr6+3 0.908370 0.682300 0.002180 1.033306
H1    H     H_    0.774835 0.477835 0.599964 0.142926
H2    H     H_    0.873297 0.072731 0.832298 0.112524
H3    H     H_    0.769114 0.249236 0.590398 0.129007
H4    H     H_    0.119782 0.824318 0.904515 0.137757
H5    H     H_    0.071853 0.564517 0.907175 0.130224
H6    H     H_    0.187525 0.500342 0.658185 0.111615
H7    H     H_    0.270787 0.486135 0.718517 0.111332
H8    H     H_    0.254120 0.493384 0.788249 0.112450
H9    H     H_    0.161606 0.793061 0.836655 0.125974
H10   H     H_    0.050812 0.809817 0.713252 0.112864
H11   H     H_    0.036640 0.817038 0.782907 0.122180
H12   H     H_    0.881779 0.037378 0.900757 0.132906
H13   H     H_    0.179928 0.789738 0.668815 0.119856
H14   H     H_    0.850938 0.554884 0.899340 0.143632
H15   H     H_    0.236125 0.774907 0.602799 0.166554
H16   H     H_    0.114370 0.533602 0.839082 0.114885
H17   H     H_    0.246718 0.483875 0.592156 0.130011
H18   H     H_    0.591412 0.883730 0.099291 0.142585
H19   H     H_    0.761566 0.511831 0.326318 0.114377
H20   H     H_    0.613900 0.544377 0.275283 0.112507
H21   H     H_    0.614168 0.563674 0.205963 0.108772
H22   H     H_    0.545840 0.871490 0.164563 0.120108
H23   H     H_    0.815941 0.183205 0.655057 0.111392
H24   H     H_    0.632054 0.818610 0.291803 0.109994
H25   H     H_    0.795205 0.507077 0.666469 0.144816
H26   H     H_    0.637494 0.835999 0.222539 0.108121
H27   H     H_    0.498364 0.812383 0.343219 0.110460
H28   H     H_    0.492947 0.775278 0.411040 0.127779
H29   H     H_    0.732934 0.543100 0.158877 0.159227
H30   H     H_    0.758268 0.474710 0.393783 0.129918
H31   H     H_    0.844074 0.100270 0.088926 0.145194
H32   H     H_    0.549840 0.116130 0.096661 0.140181
H33   H     H_    0.511602 0.208934 0.327961 0.111519
H34   H     H_    0.736309 0.264721 0.716569 0.130341
H35   H     H_    0.500177 0.328582 0.275822 0.117689
H36   H     H_    0.510389 0.315839 0.206016 0.131662
H37   H     H_    0.520537 0.802942 0.662850 0.171143
H38   H     H_    0.821535 0.169337 0.153798 0.140017
H39   H     H_    0.819989 0.097529 0.283102 0.110050
H40   H     H_    0.830195 0.083590 0.213429 0.124960
H41   H     H_    0.788891 0.225782 0.335380 0.107570
H42   H     H_    0.761342 0.259419 0.403990 0.125782
H43   H     H_    0.528662 0.182987 0.161607 0.129636
H44   H     H_    0.483112 0.243033 0.396439 0.132399
H45   H     H_    0.749385 0.240444 0.785801 0.127106
H46   H     H_    0.105527 0.556334 0.089188 0.169671
H47   H     H_    0.070219 0.854768 0.107858 0.189686
H48   H     H_    0.227975 0.760314 0.327737 0.111508
H49   H     H_    0.815310 0.537326 0.833153 0.144384
H50   H     H_    0.346432 0.608655 0.277632 0.113444
H51   H     H_    0.325122 0.617088 0.207835 0.117901
H52   H     H_    0.050401 0.632195 0.291172 0.111018
H53   H     H_    0.028484 0.642611 0.221364 0.135884
H54   H     H_    0.186960 0.499654 0.343269 0.114640
H55   H     H_    0.226735 0.497028 0.411359 0.124188
H56   H     H_    0.557142 0.147421 0.830698 0.150588
H57   H     H_    0.266146 0.759549 0.395479 0.132580
H58   H     H_    0.566666 0.842113 0.907964 0.160430
H59   H     H_    0.564554 0.111944 0.899024 0.142583
H60   H     H_    0.786576 0.526671 0.053572 0.128369
H61   H     H_    0.145228 0.818840 0.211390 0.115764
H62   H     H_    0.669297 0.019285 0.703649 0.149861
H63   H     H_    0.543979 0.156660 0.662471 0.120422
H64   H     H_    0.497380 0.221447 0.597650 0.137964
N1    N     N_R   0.718542 0.584179 0.770737 -0.252951
N2    N     N_R   0.717665 0.578643 0.732804 -0.236245
N3    N     N_R   0.604231 0.754844 0.730288 -0.194581
N4    N     N_R   0.605643 0.760345 0.768288 -0.086187
O1    O     O_R   0.502070 0.323090 0.541280 -0.515495
O2    O     O_R   0.831550 0.656950 0.958960 -0.518960
O3    O     O_R   0.998590 0.685540 0.963930 -0.501525
O4    O     O_R   0.338340 0.520690 0.539540 -0.506864
O5    O     O_R   0.008220 0.831200 0.045060 -0.513410
O6    O     O_R   0.813270 0.997930 0.038810 -0.501153
O7    O     O_R   0.657500 0.016560 0.039940 -0.518550
O8    O     O_R   0.685680 0.820940 0.038120 -0.499297
O9    O     O_R   0.822130 0.666070 0.043610 -0.516605
O10   O     O_R   0.989860 0.694000 0.042400 -0.493900
O11   O     O_3   0.833990 0.833400 0.000560 -0.241986
O12   O     O_R   0.520720 0.641670 0.461580 -0.497540
O13   O     O_R   0.324760 0.674070 0.543580 -0.487942
O14   O     O_R   0.522400 0.640310 0.540110 -0.432481
O15   O     O_R   0.675940 0.500630 0.542210 -0.533938
O16   O     O_R   0.641790 0.337020 0.538150 -0.503977
O17   O     O_R   0.500260 0.324550 0.456580 -0.516517
O18   O     O_R   0.336660 0.522040 0.461020 -0.504026
O19   O     O_R   0.322940 0.675540 0.458880 -0.518227
O20   O     O_2   0.831109 0.443201 0.100520 -0.496443
O21   O     O_2   0.111423 0.914875 0.168539 -0.508000
O22   O     O_R   0.674120 0.502090 0.457500 -0.521868
O23   O     O_R   0.640110 0.338380 0.459630 -0.504057
O24   O     O_3   0.499990 0.499990 0.499990 -0.249838
O25   O     O_R   0.017640 0.822070 0.960410 -0.517621
O26   O     O_R   0.822000 0.989470 0.960340 -0.502647
O27   O     O_R   0.666920 0.007430 0.955290 -0.510739
O28   O     O_R   0.694410 0.812480 0.959650 -0.499634

loop_
_geom_bond_atom_site_label_1
_geom_bond_atom_site_label_2
_ccdc_geom_bond_type
C44   C49   A    
C58   C62   A    
C13   H48   S    
Cr1   O24   S    
Cr2   O24   S    
C66   O18   A    
C29   O7    A    
C73   C74   A    
C95   C96   A    
C55   C56   A    
C59   H64   S    
Cr4   O25   S    
C3    H39   S    
C97   H54   S    
C113  H43   S    
C98   H24   S    
C45   C46   A    
C116  C117  A    
C94   H21   S    
N1    N2    A    
C26   O27   A    
C27   O28   A    
C54   O1    A    
C74   C76   A    
C60   C61   A    
C60   C63   A    
C34   C40   S    
C9    C114  A    
C29   C109  S    
C36   C37   A    
C72   C79   A    
C42   C53   A    
C38   C39   A    
C64   H52   S    
C53   C64   A    
C74   C84   S    
C72   H8    S    
C54   C63   S    
C101  H27   S    
C15   C16   A    
C105  H19   S    
C99   H26   S    
C66   O19   A    
C51   C52   A    
C56   C57   A    
C13   C23   A    
C51   H34   S    
C18   C19   A    
C46   H56   S    
C32   O5    A    
C2    C13   A    
Cr5   O11   S    
C110  C111  A    
C112  C113  A    
C83   H6    S    
C35   N2    A    
C97   C108  A    
C39   Cl4   S    
C64   C75   A    
C111  C112  A    
C4    H40   S    
C16   C17   A    
C65   C67   A    
C96   C98   A    
C26   O26   A    
C70   C71   A    
Cr6   O11   S    
C91   C100  S    
C89   C91   A    
Cr5   O8    S    
C19   H47   S    
C61   C62   A    
C15   H46   S    
C52   C55   A    
Cr5   O27   S    
C72   C73   A    
Cr3   O22   S    
C54   O16   A    
C9    H25   S    
C101  C103  A    
Cr2   O12   S    
C48   H2    S    
C68   H9    S    
C69   C70   A    
C27   O2    A    
Cr6   O10   S    
C60   H3    S    
C104  C105  A    
Cr3   O16   S    
C116  H36   S    
C23   C53   S    
C20   H51   S    
Cr6   O2    S    
C77   C79   A    
Cr4   O5    S    
C1    C85   S    
C7    C12   A    
C28   O3    A    
C37   H14   S    
C36   H49   S    
C39   C40   A    
C26   C44   S    
C33   C102  A    
C55   H62   S    
C73   H7    S    
Cr1   O4    S    
C36   C40   A    
C24   C31   A    
C76   C77   A    
C49   H12   S    
C81   H15   S    
C14   C32   S    
C6    C11   A    
C109  C115  A    
C68   C69   A    
C21   C93   S    
C50   C51   A    
C58   C59   A    
C65   C71   A    
C30   O9    A    
C1    O13   A    
C117  H35   S    
C67   C68   A    
C20   C86   A    
C92   H29   S    
Cr5   O7    S    
C41   O15   A    
C37   C43   A    
C87   C88   A    
C16   Cl3   S    
C71   H5    S    
C102  C114  A    
C3    C118  A    
C47   C57   S    
C75   C86   A    
C47   C48   A    
C94   C100  A    
Cr4   O11   S    
C8    C12   A    
C17   C18   A    
C21   O20   D    
C111  H38   S    
C104  C107  A    
C22   H61   S    
C61   H23   S    
C90   O23   A    
Cr5   O28   S    
C41   O14   A    
Cr3   O23   S    
C34   N1    A    
C89   H22   S    
C23   C97   A    
C22   O21   D    
C82   C83   A    
C10   H33   S    
C17   C86   S    
C50   H45   S    
C5    C116  A    
C114  H1    S    
C31   C35   S    
C83   C84   A    
C1    O4    A    
Cr6   O9    S    
C41   C102  S    
C3    C4    A    
C75   H53   S    
C91   C92   A    
C82   H17   S    
C44   C45   A    
C21   H60   S    
C103  C107  A    
C34   N4    A    
C101  C106  A    
C96   C106  S    
C46   C47   A    
C48   C49   A    
C29   O6    A    
C108  H55   S    
C18   C22   S    
C50   C57   A    
C59   C63   A    
C14   C19   A    
Cr1   O1    S    
C45   H59   S    
C25   C66   S    
C77   H11   S    
Cr2   O19   S    
C104  H30   S    
C80   C81   A    
C12   C90   S    
C20   C42   A    
Cr4   O26   S    
C6    C7    A    
C5    C112  S    
C76   H10   S    
C82   C85   A    
C30   O8    A    
C105  C106  A    
C28   O25   A    
C70   H16   S    
C24   C33   A    
C99   C100  A    
C115  H32   S    
Cr1   O17   S    
C28   C65   S    
C2    H57   S    
C38   C43   A    
C38   H58   S    
C117  C118  A    
C78   O22   A    
C80   C84   A    
C35   N3    A    
Cr2   O14   S    
C42   H50   S    
C87   C93   A    
C92   C93   A    
C56   Cl1   S    
C67   H4    S    
C24   H37   S    
C2    C25   A    
Cr3   O15   S    
C94   C95   A    
C78   O12   A    
Cr6   O3    S    
C69   C79   S    
C10   C11   A    
C9    C31   A    
N3    N4    A    
Cr4   O6    S    
Cr3   O24   S    
C27   C43   S    
C103  H28   S    
C4    C5    A    
C95   H20   S    
C88   C89   A    
C7    H42   S    
C33   Cl2   S    
C8    C10   A    
C98   C99   A    
Cr2   O13   S    
Cr1   O18   S    
C58   H63   S    
C88   H18   S    
C14   C15   A    
C78   C107  S    
C52   C62   S    
C30   C87   S    
C109  C110  A    
C11   C118  S    
C32   O10   A    
C80   H13   S    
C90   O17   A    
C81   C85   A    
C110  H31   S    
C8    H44   S    
C25   C108  A    
C113  C115  A    
C6    H41   S    
