data_mof_unit_43921.cif
_audit_creation_date              2012-10-26T21:10:39-0400
_audit_creation_method            fapswitch 2.2
_symmetry_space_group_name_H-M    P1
_symmetry_Int_Tables_number       1
_space_group_crystal_system       triclinic
_cell_length_a                    10.826939
_cell_length_b                    14.682889
_cell_length_c                    14.694329
_cell_angle_alpha                 65.216299
_cell_angle_beta                  103.566199
_cell_angle_gamma                 102.867057
_cell_volume                      2041.07694473

loop_
_atom_site_label
_atom_site_type_symbol
_atom_type_description
_atom_site_fract_x
_atom_site_fract_y
_atom_site_fract_z
_atom_type_partial_charge
C1    C     C_R   0.478413 0.119656 0.312175 0.570451
C2    C     C_R   0.593681 0.784751 0.973715 -0.149140
C3    C     C_R   0.454971 0.149695 0.128729 -0.125040
C4    C     C_R   0.578129 0.851116 0.872214 -0.138643
C5    C     C_R   0.493080 0.291920 0.179194 -0.144731
C6    C     C_R   0.522767 0.708396 0.821293 -0.149988
C7    C     C_R   0.504368 0.360849 0.079606 0.021772
C8    C     C_R   0.542969 0.640054 0.922718 0.024902
C9    C     C_R   0.485689 0.321451 0.003456 0.045358
C10   C     C_R   0.575206 0.679716 0.999515 0.049448
C11   C     C_R   0.532095 0.467471 0.053632 0.029782
C12   C     C_R   0.522744 0.880388 0.687835 0.576599
C13   C     C_R   0.528323 0.533540 0.949681 0.030721
C14   C     C_R   0.512661 0.491069 0.876396 -0.141298
C15   C     C_R   0.566063 0.510204 0.128085 -0.142715
C16   C     C_R   0.262833 0.999185 0.502263 0.583316
C17   C     C_R   0.737236 0.000534 0.498095 0.582000
C18   C     C_R   0.492412 0.387071 0.903184 -0.136910
C19   C     C_R   0.588418 0.614290 0.101193 -0.137172
C20   C     C_R   0.707876 0.281776 0.673457 -0.163248
C21   C     C_R   0.291707 0.717980 0.326893 -0.161810
C22   C     C_R   0.676851 0.201266 0.641952 0.039892
C23   C     C_R   0.870695 0.000222 0.496768 0.024382
C24   C     C_R   0.322942 0.798614 0.358207 0.040386
C25   C     C_R   0.520305 0.286116 0.507603 0.045960
C26   C     C_R   0.479684 0.713874 0.492456 0.046721
C27   C     C_R   0.548060 0.371299 0.535207 0.004087
C28   C     C_R   0.451723 0.628569 0.465042 0.004965
C29   C     C_R   0.643465 0.366667 0.620865 0.037666
C30   C     C_R   0.356140 0.633103 0.379509 0.038629
C31   C     C_R   0.483838 0.459257 0.482592 0.012381
C32   C     C_R   0.515880 0.540571 0.517723 0.013287
C33   C     C_R   0.610712 0.531052 0.604293 -0.151918
C34   C     C_R   0.129461 0.998462 0.504729 0.025581
C35   C     C_R   0.388947 0.468744 0.396062 -0.149818
C36   C     C_R   0.673157 0.446052 0.654300 -0.138457
C37   C     C_R   0.326298 0.553640 0.346193 -0.134826
C38   C     C_R   0.359672 0.077459 0.769798 -0.090381
C39   C     C_R   0.648159 0.917821 0.229555 -0.092659
C40   C     C_R   0.265661 0.030005 0.713105 0.320205
C41   C     C_R   0.738445 0.965626 0.287723 0.318617
C42   C     C_R   0.187771 0.089967 0.626454 0.062210
C43   C     C_R   0.813074 0.906269 0.376982 0.062124
C44   C     C_R   0.199255 0.194513 0.602014 -0.149702
C45   C     C_R   0.906537 0.953393 0.442046 -0.003223
C46   C     C_R   0.801067 0.801293 0.403615 -0.148029
C47   C     C_R   0.290340 0.239928 0.660643 -0.130592
C48   C     C_R   0.713125 0.755192 0.343996 -0.132706
C49   C     C_R   0.371372 0.181691 0.743614 -0.145487
C50   C     C_R   0.635979 0.813224 0.257657 -0.150366
C51   C     C_R   0.964332 0.045372 0.554740 -0.165958
C52   C     C_R   0.035859 0.952879 0.447225 -0.166524
C53   C     C_3   0.227603 0.869867 0.834225 -0.023857
C54   C     C_3   0.184890 0.759907 0.846763 -0.360299
C55   C     C_3   0.796298 0.122907 0.170463 -0.023101
C56   C     C_R   0.093710 0.044267 0.560408 -0.002154
C57   C     C_3   0.834051 0.233723 0.155840 -0.359809
C58   C     C_R   0.472971 0.187311 0.204711 0.015118
C59   C     C_R   0.541143 0.812991 0.795569 0.012697
C60   C     C_R   0.460789 0.216445 0.028528 -0.147712
Cu1   Cu    Cu3+1 0.466270 0.918260 0.475690 0.953958
Cu2   Cu    Cu3+1 0.533730 0.081740 0.524310 0.953048
H1    H     H_    0.444377 0.217505 0.787094 0.104629
H2    H     H_    0.725245 0.135093 0.683277 0.114397
H3    H     H_    0.780998 0.277296 0.739159 0.085026
H4    H     H_    0.218392 0.722347 0.261325 0.085068
H5    H     H_    0.639031 0.588101 0.636006 0.089769
H6    H     H_    0.360691 0.411740 0.364289 0.091585
H7    H     H_    0.425071 0.034204 0.833299 0.082795
H8    H     H_    0.586878 0.961411 0.162846 0.083777
H9    H     H_    0.139162 0.241127 0.536317 0.113261
H10   H     H_    0.858865 0.755035 0.471319 0.113926
H11   H     H_    0.299797 0.320733 0.640572 0.129520
H12   H     H_    0.566088 0.777043 0.212740 0.108602
H13   H     H_    0.703599 0.674156 0.365474 0.128595
H14   H     H_    0.936687 0.079460 0.598375 0.121368
H15   H     H_    0.063456 0.918795 0.403558 0.120823
H16   H     H_    0.480976 0.357971 0.844583 0.105969
H17   H     H_    0.614786 0.643673 0.160657 0.104885
H18   H     H_    0.488815 0.681742 0.760672 0.119840
H19   H     H_    0.498281 0.317752 0.238658 0.115448
H20   H     H_    0.593727 0.931894 0.853850 0.116663
H21   H     H_    0.437551 0.068981 0.146821 0.120372
H22   H     H_    0.553705 0.718669 0.554107 0.115122
H23   H     H_    0.446910 0.185905 0.970755 0.093369
H24   H     H_    0.446414 0.281387 0.445862 0.114712
H25   H     H_    0.148349 0.896885 0.848582 0.116781
H26   H     H_    0.314151 0.872670 0.891799 0.128168
H27   H     H_    0.262166 0.729925 0.834210 0.170676
H28   H     H_    0.163098 0.713484 0.924723 0.093561
H29   H     H_    0.097378 0.754045 0.791069 0.156104
H30   H     H_    0.721679 0.118452 0.105419 0.124471
H31   H     H_    0.883291 0.093990 0.170486 0.116784
H32   H     H_    0.910253 0.240891 0.218858 0.155533
H33   H     H_    0.870768 0.277656 0.082745 0.092354
H34   H     H_    0.619987 0.815538 0.032095 0.097170
H35   H     H_    0.749585 0.265512 0.154735 0.175640
H36   H     H_    0.519407 0.536112 0.797580 0.100706
H37   H     H_    0.580175 0.465504 0.208465 0.105041
H38   H     H_    0.745311 0.442252 0.720437 0.107831
H39   H     H_    0.253928 0.557338 0.280197 0.107106
H40   H     H_    0.274487 0.864756 0.316902 0.114391
N1    N     N_R   0.584450 0.204570 0.560790 -0.230917
N2    N     N_R   0.415550 0.795430 0.439210 -0.231152
O1    O     O_R   0.455540 0.022090 0.338120 -0.500490
O2    O     O_3   0.748040 0.068642 0.262902 -0.560181
O3    O     O_R   0.544460 0.977910 0.661880 -0.499646
O4    O     O_R   0.512510 0.160150 0.379180 -0.517253
O5    O     O_R   0.487490 0.839850 0.620820 -0.517498
O6    O     O_R   0.291160 0.930970 0.479480 -0.511415
O7    O     O_R   0.708840 0.069030 0.520520 -0.511690
O8    O     O_R   0.348130 0.069020 0.520540 -0.494499
O9    O     O_R   0.651870 0.930980 0.479460 -0.493934
O10   O     O_3   0.256184 0.927415 0.735095 -0.561151

loop_
_geom_bond_atom_site_label_1
_geom_bond_atom_site_label_2
_ccdc_geom_bond_type
C16   O6    A    
C38   C40   A    
C34   C56   A    
C8    C13   A    
C23   C45   A    
C21   H4    S    
C27   C29   A    
C14   C18   A    
C55   H31   S    
Cu1   O5    S    
C17   O9    A    
C39   C41   A    
C38   C49   A    
C53   C54   S    
C7    C11   A    
C29   C36   A    
C33   H5    S    
C17   C23   S    
C5    C58   A    
C49   H1    S    
C35   C37   A    
C54   H28   S    
C50   H12   S    
Cu2   O4    S    
C33   C36   A    
C44   H9    S    
C51   C56   A    
C16   C34   S    
C15   C19   A    
C12   C59   S    
C11   C15   A    
C40   O10   S    
Cu2   O7    S    
Cu1   O1    S    
C46   H10   S    
C44   C47   A    
C26   N2    A    
C3    C60   A    
C40   C42   A    
C38   H7    S    
C13   C14   A    
C41   C43   A    
C48   H13   S    
C42   C44   A    
C53   H25   S    
Cu1   O6    S    
C17   O7    A    
C12   O5    A    
C14   H36   S    
C20   C29   A    
C46   C48   A    
C41   O2    S    
C55   O2    S    
C27   C31   A    
C20   H3    S    
C28   C32   A    
Cu1   N2    S    
C51   H14   S    
C47   H11   S    
C54   H27   S    
C47   C49   A    
C5    C7    A    
C25   N1    A    
C6    C8    A    
Cu2   O3    S    
C45   C52   A    
C22   N1    A    
C30   C37   A    
C24   N2    A    
C2    C4    A    
C55   H30   S    
C5    H19   S    
C23   C51   A    
C31   C32   A    
C10   C19   A    
C18   H16   S    
C57   H35   S    
Cu2   O8    S    
C36   H38   S    
C42   C56   S    
C48   C50   A    
C43   C45   S    
C20   C22   A    
C57   H32   S    
C55   C57   S    
C3    H21   S    
C6    H18   S    
C31   C35   A    
C52   H15   S    
C2    C10   A    
C53   O10   S    
C16   O8    A    
Cu2   N1    S    
C7    C9    A    
C26   H22   S    
C26   C28   A    
C6    C59   A    
C15   H37   S    
C12   O3    A    
C60   H23   S    
C25   C27   A    
C21   C30   A    
C34   C52   A    
C9    C60   A    
C32   C33   A    
C2    H34   S    
C54   H29   S    
C1    C58   S    
C37   H39   S    
C11   C13   A    
C35   H6    S    
C4    C59   A    
C28   C30   A    
C25   H24   S    
C39   H8    S    
C53   H26   S    
C24   H40   S    
Cu1   Cu2   S    
C43   C46   A    
C1    O4    A    
C22   H2    S    
C3    C58   A    
C9    C18   A    
C39   C50   A    
C4    H20   S    
C8    C10   A    
C57   H33   S    
C21   C24   A    
Cu1   O9    S    
C19   H17   S    
C1    O1    A    
