data_mof_unit_45477.cif
_audit_creation_date              2012-12-10T16:52:04-0500
_audit_creation_method            fapswitch 2.2
_symmetry_space_group_name_H-M    P1
_symmetry_Int_Tables_number       1
_space_group_crystal_system       triclinic
_cell_length_a                    7.737603
_cell_length_b                    8.697602
_cell_length_c                    14.937575
_cell_angle_alpha                 90.420147
_cell_angle_beta                  85.886168
_cell_angle_gamma                 93.800208
_cell_volume                      1000.47961148

loop_
_atom_site_label
_atom_site_type_symbol
_atom_type_description
_atom_site_fract_x
_atom_site_fract_y
_atom_site_fract_z
_atom_type_partial_charge
C1    C     C_R   0.545585 0.794165 0.498304 0.911659
C2    C     C_R   0.551903 0.638392 0.811106 -0.045230
C3    C     C_R   0.488902 0.503134 0.231754 -0.200405
C4    C     C_R   0.503822 0.500439 0.768339 -0.201344
C5    C     C_R   0.551080 0.636330 0.185012 -0.044894
C6    C     C_R   0.431347 0.371157 0.815468 -0.041770
C7    C     C_R   0.525280 0.647774 0.093192 0.029184
C8    C     C_R   0.399130 0.380296 0.908781 0.030682
C9    C     C_R   0.454417 0.515714 0.048374 -0.103751
C10   C     C_R   0.459308 0.515042 0.954169 -0.103100
C11   C     C_R   0.388539 0.381105 0.097065 0.032676
C12   C     C_R   0.454511 0.205814 0.502169 0.908141
C13   C     C_R   0.526655 0.648154 0.905157 0.030127
C14   C     C_R   0.569985 0.786198 0.044821 0.305741
C15   C     C_R   0.304688 0.260173 0.957403 0.295306
C16   C     C_1   0.347378 0.243150 0.245108 0.333960
C17   C     C_1   0.636074 0.764312 0.756933 0.314841
C18   C     C_1   0.648892 0.755921 0.232202 0.318228
C19   C     C_1   0.407170 0.225971 0.767661 0.336039
C20   C     C_1   0.741866 0.011552 0.454099 0.302178
C21   C     C_1   0.260135 0.988834 0.549574 0.301405
C22   C     C_R   0.560483 0.787874 0.951287 0.324439
C23   C     C_R   0.309352 0.254890 0.051029 0.317823
C24   C     C_2   0.569017 0.955680 0.490716 -0.252909
C25   C     C_2   0.431601 0.044375 0.510882 -0.248446
C26   C     C_R   0.501995 0.498929 0.672636 0.869289
C27   C     C_R   0.497492 0.500660 0.327323 0.867472
C28   C     C_R   0.405511 0.377201 0.190261 -0.049354
H1    H     H_    0.014931 0.384634 0.432653 0.206739
H2    H     H_    0.985085 0.615424 0.567316 0.206984
H3    H     H_    0.706808 0.981237 0.050727 0.350529
H4    H     H_    0.102267 0.114943 0.953312 0.357390
H5    H     H_    0.536890 0.009123 0.944074 0.353063
H6    H     H_    0.252396 0.033828 0.059127 0.357560
N1    N     N_2   0.950330 0.457950 0.475660 -0.166385
N2    N     N_2   0.049670 0.542050 0.524340 -0.166418
N3    N     N_1   0.301756 0.137116 0.289166 -0.168100
N4    N     N_1   0.703299 0.863769 0.713479 -0.171135
N5    N     N_1   0.727716 0.850735 0.269482 -0.166117
N6    N     N_1   0.388845 0.109896 0.730149 -0.166958
N7    N     N_1   0.879036 0.055151 0.425134 -0.174061
N8    N     N_1   0.124188 0.945701 0.580442 -0.176674
O1    O     O_R   0.389250 0.738570 0.505970 -0.613675
O2    O     O_3   0.203063 0.152147 0.912715 -0.759242
O3    O     O_3   0.578513 0.925363 0.904554 -0.760682
O4    O     O_3   0.238139 0.126327 0.097469 -0.754526
O5    O     O_R   0.610750 0.261430 0.494030 -0.614121
O6    O     O_R   0.678390 0.711620 0.490370 -0.624392
O7    O     O_R   0.321610 0.288380 0.509630 -0.625749
O8    O     O_R   0.355420 0.513510 0.639950 -0.605937
O9    O     O_R   0.644580 0.486490 0.360050 -0.611465
O10   O     O_R   0.644560 0.486560 0.624350 -0.625902
O11   O     O_R   0.355440 0.513440 0.375650 -0.622627
O12   O     O_3   0.618826 0.920012 0.089544 -0.766263
Zn1   Zn    Zn3+2 0.306940 0.517990 0.510420 0.986189
Zn2   Zn    Zn3+2 0.693060 0.482010 0.489580 0.983990

loop_
_geom_bond_atom_site_label_1
_geom_bond_atom_site_label_2
_ccdc_geom_bond_type
C16   C28   S    
C2    C4    A    
C18   N5    T    
C27   O11   A    
C1    O6    A    
H6    O4    S    
C26   O10   A    
H5    O3    S    
C9    C10   A    
H1    N1    S    
C4    C26   S    
N1    N2    D    
H2    N2    S    
C12   C25   S    
C14   C22   A    
C26   O8    A    
C15   C23   A    
C20   N7    T    
H4    O2    S    
C23   O4    S    
C2    C17   S    
C6    C19   S    
C9    C11   A    
O10   Zn2   S    
C11   C28   A    
C12   O5    A    
C3    C27   S    
C3    C28   A    
C14   O12   S    
C27   O9    A    
C13   C22   A    
C12   O7    A    
C8    C15   A    
C5    C7    A    
C17   N4    T    
O11   Zn1   S    
H3    O12   S    
N2    Zn1   S    
C15   O2    S    
C8    C10   A    
C4    C6    A    
C19   N6    T    
C21   N8    T    
C20   C24   S    
C22   O3    S    
C24   C25   D    
C1    C24   S    
C7    C9    A    
O9    Zn2   S    
O1    Zn1   S    
C11   C23   A    
O6    Zn2   S    
C2    C13   A    
C21   C25   S    
C6    C8    A    
C5    C18   S    
N1    Zn2   S    
O7    Zn1   S    
C1    O1    A    
C7    C14   A    
O8    Zn1   S    
C16   N3    T    
O5    Zn2   S    
C3    C5    A    
C10   C13   A    
