data_mof_unit_31608.cif
_audit_creation_date              2012-12-11T15:55:54-0500
_audit_creation_method            fapswitch 2.2
_symmetry_space_group_name_H-M    P1
_symmetry_Int_Tables_number       1
_space_group_crystal_system       triclinic
_cell_length_a                    11.111501
_cell_length_b                    11.007588
_cell_length_c                    18.698975
_cell_angle_alpha                 90.849156
_cell_angle_beta                  90.961995
_cell_angle_gamma                 59.250195
_cell_volume                      1965.21247253

loop_
_atom_site_label
_atom_site_type_symbol
_atom_type_description
_atom_site_fract_x
_atom_site_fract_y
_atom_site_fract_z
_atom_type_partial_charge
C1    C     C_R   0.360980 0.766197 0.396133 0.532147
C2    C     C_R   0.244066 0.445885 0.197315 -0.158242
C3    C     C_R   0.245333 0.448828 0.271464 -0.039766
C4    C     C_R   0.388929 0.357157 0.385984 0.545437
C5    C     C_R   0.878966 0.770851 0.378028 -0.152602
C6    C     C_R   0.885481 0.646831 0.355970 -0.112664
C7    C     C_R   0.005186 0.537624 0.322637 -0.078421
C8    C     C_R   0.116028 0.558616 0.307052 0.031267
C9    C     C_R   0.370235 0.351820 0.308396 -0.000822
C10   C     C_R   0.829013 0.352302 0.176452 0.013498
C11   C     C_R   0.836273 0.244064 0.217127 0.005095
C12   C     C_R   0.620995 0.153557 0.156537 0.055896
C13   C     C_R   0.790830 0.267816 0.286583 0.026582
C14   C     C_R   0.707300 0.514575 0.274295 -0.174053
C15   C     C_R   0.754264 0.491071 0.203562 -0.157178
C16   C     C_R   0.709954 0.417622 0.395115 0.577389
C17   C     C_3   0.959495 0.102699 0.234380 -0.228996
C18   C     C_3   0.905381 0.126462 0.310254 -0.105775
C19   C     C_R   0.735866 0.400139 0.318410 0.032515
C20   C     C_R   0.353675 0.849422 0.175588 0.023916
C21   C     C_R   0.318202 0.955561 0.226724 0.004425
C22   C     C_R   0.323304 0.929381 0.298851 0.018263
C23   C     C_R   0.360340 0.343162 0.159077 -0.014926
C24   C     C_R   0.392341 0.688060 0.270682 -0.173455
C25   C     C_R   0.383904 0.716021 0.197617 -0.164310
C26   C     C_3   0.375787 0.049467 0.237182 -0.256684
C27   C     C_3   0.387608 0.016602 0.316306 -0.264930
C28   C     C_R   0.346030 0.766729 0.604576 0.537964
C29   C     C_R   0.361186 0.795750 0.321620 0.008010
C30   C     C_R   0.300354 0.313145 0.809775 -0.030875
C31   C     C_R   0.370396 0.192341 0.766260 0.011717
C32   C     C_R   0.378556 0.200376 0.693915 -0.004503
C33   C     C_R   0.224100 0.452711 0.701911 -0.078696
C34   C     C_R   0.491737 0.262857 0.269155 -0.161584
C35   C     C_R   0.219425 0.446193 0.776822 -0.014812
C36   C     C_3   0.514583 0.065259 0.771832 -0.239651
C37   C     C_3   0.523729 0.074073 0.691558 -0.270605
C38   C     C_R   0.315893 0.331334 0.661304 -0.019947
C39   C     C_R   0.922582 0.283105 0.820305 -0.060630
C40   C     C_R   0.368913 0.350288 0.594957 0.550937
C41   C     C_R   0.923332 0.389829 0.781807 -0.032621
C42   C     C_R   0.892687 0.407355 0.710183 0.021374
C43   C     C_R   0.875293 0.196595 0.708573 0.228004
C44   C     C_R   0.909190 0.179045 0.782296 -0.136997
C45   C     C_R   0.490295 0.258168 0.194786 -0.030573
C46   C     C_3   0.849191 0.545167 0.796406 -0.179285
C47   C     C_3   0.822030 0.565939 0.717014 0.169669
C48   C     C_R   0.852274 0.321111 0.674195 -0.021324
C49   C     C_R   0.290694 0.858808 0.824413 0.040492
C50   C     C_R   0.329992 0.724746 0.799381 0.043248
C51   C     C_R   0.348201 0.696332 0.727065 0.049983
C52   C     C_R   0.768861 0.373922 0.608755 0.559854
C53   C     C_R   0.275095 0.939968 0.702836 -0.192820
C54   C     C_R   0.254369 0.968793 0.775761 -0.138612
C55   C     C_3   0.453820 0.585590 0.819241 -0.295575
C56   C     C_R   0.099103 0.691026 0.321615 -0.044581
C57   C     C_3   0.473784 0.552998 0.739744 -0.260068
C58   C     C_R   0.329339 0.801305 0.678975 0.012414
C59   C     C_R   0.909074 0.317554 0.111205 0.550208
C60   C     C_R   0.329719 0.297602 0.090749 0.533289
C61   C     C_R   0.310199 0.895632 0.103524 0.538103
C62   C     C_R   0.946882 0.280256 0.897204 0.576237
C63   C     C_R   0.294876 0.288605 0.885228 0.509505
C64   C     C_R   0.844451 0.947075 0.074639 -0.092598
C65   C     C_R   0.275718 0.893141 0.898841 0.526375
C66   C     C_R   0.816249 0.911963 0.141178 -0.133973
C67   C     C_R   0.989266 0.790011 0.363109 -0.099741
C68   C     C_R   0.706572 0.014673 0.182397 -0.112338
C69   C     C_2   0.005009 0.128170 0.365723 0.245930
C70   C     C_2   0.147373 0.579600 0.819198 0.211147
C71   C     C_3   0.958693 0.007539 0.631581 0.018976
C72   C     C_3   0.906232 0.985020 0.559462 -0.352545
C73   C     C_3   0.834048 0.712459 0.631051 -0.001322
C74   C     C_3   0.921376 0.659543 0.563744 -0.336085
C75   C     C_R   0.655262 0.188895 0.090925 -0.054589
C76   C     C_R   0.763918 0.085241 0.049600 -0.067030
Cr1   Cr    Cr6+3 0.601740 0.606840 0.505840 0.971687
Cr2   Cr    Cr6+3 0.291500 0.601560 0.495070 0.986196
Cr3   Cr    Cr6+3 0.606780 0.291630 0.499130 0.988914
Cr4   Cr    Cr6+3 0.062440 0.063060 0.008240 0.989626
Cr5   Cr    Cr6+3 0.062950 0.375000 0.998920 0.992018
Cr6   Cr    Cr6+3 0.374550 0.061770 0.992470 1.012038
H1    H     H_    0.589722 0.195476 0.296772 0.136039
H2    H     H_    0.419896 0.583303 0.287788 0.122308
H3    H     H_    0.784638 0.111847 0.997717 0.139257
H4    H     H_    0.400759 0.634711 0.158919 0.119507
H5    H     H_    0.295237 0.160360 0.224651 0.159998
H6    H     H_    0.476937 0.006595 0.209814 0.155610
H7    H     H_    0.497794 0.952259 0.335696 0.127459
H8    H     H_    0.319117 0.110467 0.349836 0.189745
H9    H     H_    0.173176 0.555856 0.677263 0.202016
H10   H     H_    0.513999 0.969223 0.788805 0.155900
H11   H     H_    0.588721 0.087179 0.801954 0.160156
H12   H     H_    0.788521 0.851909 0.406298 0.096975
H13   H     H_    0.605201 0.098535 0.676488 0.208998
H14   H     H_    0.990752 0.880326 0.384136 0.096287
H15   H     H_    0.527455 0.983594 0.662291 0.122934
H16   H     H_    0.917121 0.089414 0.809930 0.171766
H17   H     H_    0.918348 0.580818 0.818732 0.201134
H18   H     H_    0.751611 0.583318 0.827240 0.095558
H19   H     H_    0.707696 0.626951 0.705456 0.097368
H20   H     H_    0.251057 0.024223 0.665720 0.114453
H21   H     H_    0.213963 0.075949 0.794722 0.126857
H22   H     H_    0.424591 0.517511 0.848484 0.129336
H23   H     H_    0.796476 0.638906 0.365702 0.163025
H24   H     H_    0.928973 0.867399 0.042582 0.111391
H25   H     H_    0.538835 0.596108 0.844922 0.131370
H26   H     H_    0.571248 0.541779 0.719101 0.123464
H27   H     H_    0.457058 0.465684 0.723293 0.146970
H28   H     H_    0.879679 0.805218 0.161038 0.111967
H29   H     H_    0.687342 0.983740 0.233619 0.094066
H30   H     H_    0.171476 0.717454 0.302235 0.134869
H31   H     H_    0.593500 0.295196 0.070235 0.091674
H32   H     H_    0.146374 0.516444 0.169803 0.140275
H33   H     H_    0.038472 0.056702 0.410674 0.104511
H34   H     H_    0.009763 0.440259 0.307427 0.179109
H35   H     H_    0.164063 0.579409 0.876455 0.117441
H36   H     H_    0.015237 0.904883 0.660013 0.187438
H37   H     H_    0.035035 0.041875 0.620122 0.115409
H38   H     H_    0.884388 0.071712 0.522359 0.159567
H39   H     H_    0.987719 0.884988 0.534505 0.106677
H40   H     H_    0.809121 0.981243 0.565776 0.141045
H41   H     H_    0.822648 0.814996 0.647453 0.156047
H42   H     H_    0.727082 0.733597 0.617548 0.131384
H43   H     H_    0.941142 0.552944 0.548734 0.193522
H44   H     H_    0.863922 0.733374 0.519570 0.075253
H45   H     H_    0.653708 0.621378 0.294816 0.123814
H46   H     H_    0.022870 0.654274 0.572364 0.162127
H47   H     H_    0.740222 0.579475 0.172231 0.139239
H48   H     H_    0.056951 0.104676 0.228029 0.171491
H49   H     H_    0.958353 0.013990 0.206603 0.145948
H50   H     H_    0.858334 0.062594 0.323985 0.078020
O1    O     O_R   0.748670 0.497520 0.427970 -0.521847
O2    O     O_R   0.417470 0.174910 0.067830 -0.503446
O3    O     O_R   0.375160 0.946380 0.070880 -0.495574
O4    O     O_R   0.476470 0.723930 0.429450 -0.525572
O5    O     O_R   0.160500 0.919670 0.926690 -0.517464
O6    O     O_R   0.933140 0.190380 0.936050 -0.523704
O7    O     O_R   0.909010 0.403210 0.925030 -0.523062
O8    O     O_R   0.179590 0.361290 0.918480 -0.534170
O9    O     O_R   0.391360 0.170840 0.907510 -0.515752
O10   O     O_R   0.350950 0.942600 0.922260 -0.512535
O11   O     O_3   0.166650 0.166610 0.999880 -0.266935
O12   O     O_R   0.300170 0.471020 0.567120 -0.516431
O13   O     O_R   0.264730 0.744140 0.416740 -0.539764
O14   O     O_R   0.309440 0.472410 0.418220 -0.484934
O15   O     O_R   0.501630 0.260530 0.414310 -0.545333
O16   O     O_R   0.727920 0.305730 0.428950 -0.521102
O17   O     O_R   0.738670 0.496020 0.588600 -0.538882
O18   O     O_R   0.467190 0.722540 0.578350 -0.510840
O19   O     O_R   0.254720 0.742640 0.577370 -0.539082
O20   O     O_2   0.049184 0.208909 0.360866 -0.539054
O21   O     O_2   0.069572 0.692755 0.790346 -0.509042
O22   O     O_3   0.844058 0.103864 0.674097 -0.560663
O23   O     O_R   0.491630 0.259030 0.574940 -0.511733
O24   O     O_3   0.904901 0.615028 0.686720 -0.530288
O25   O     O_R   0.718640 0.304340 0.577850 -0.458048
O26   O     O_3   0.500010 0.500010 0.500020 -0.272045
O27   O     O_R   0.186620 0.923750 0.087000 -0.523215
O28   O     O_R   0.957350 0.194160 0.084660 -0.498275
O29   O     O_R   0.935120 0.407280 0.085350 -0.522108
O30   O     O_R   0.203800 0.365060 0.067090 -0.509417

loop_
_geom_bond_atom_site_label_1
_geom_bond_atom_site_label_2
_ccdc_geom_bond_type
Cr5   O8    S    
C66   C68   A    
C46   H17   S    
C41   C42   A    
C28   O18   A    
C23   C45   A    
C22   C29   A    
C72   H39   S    
C17   H49   S    
C70   O21   D    
C2    H32   S    
C63   O8    A    
C18   H50   S    
Cr6   O10   S    
C8    C56   A    
Cr3   O26   S    
C37   H15   S    
C5    H12   S    
C7    C8    A    
C39   C41   A    
C74   H44   S    
C53   C54   A    
C12   C68   A    
C26   C27   S    
C49   C65   S    
C13   C18   S    
C59   O29   A    
C36   C37   S    
C10   C15   A    
C61   O27   A    
C5    C6    A    
Cr4   O28   S    
C74   H43   S    
C20   C25   A    
C70   H35   S    
C49   C54   A    
Cr6   O3    S    
C37   H13   S    
C27   H8    S    
C73   C74   S    
C20   C61   S    
C4    O15   A    
C24   C29   A    
Cr2   O13   S    
C1    O13   A    
C36   H11   S    
Cr2   O26   S    
Cr5   O30   S    
C57   H27   S    
C35   C70   S    
C26   H5    S    
C73   H41   S    
C73   H42   S    
C60   O30   A    
C41   C46   S    
C40   O23   A    
C75   H31   S    
Cr1   O4    S    
C32   C38   A    
C62   O7    A    
C43   O22   S    
C43   C48   A    
C5    C67   A    
Cr1   O26   S    
C65   O5    A    
C36   H10   S    
C18   C69   S    
C47   H19   S    
C21   C22   A    
Cr1   O1    S    
Cr6   O9    S    
C16   O1    A    
C21   C26   S    
Cr2   O19   S    
C50   C51   A    
C6    C7    A    
C64   C76   A    
C23   C60   S    
C74   H46   S    
C13   C19   A    
C54   H21   S    
C24   C25   A    
C3    C8    S    
Cr1   O17   S    
C51   C58   A    
C52   O17   A    
Cr4   O27   S    
Cr3   O15   S    
C69   H33   S    
C71   O22   S    
Cr3   O23   S    
C55   H22   S    
C66   H28   S    
C14   H45   S    
C55   H25   S    
C68   H29   S    
C64   C66   A    
C7    H34   S    
Cr6   O2    S    
C75   C76   A    
C3    C9    A    
Cr2   O12   S    
C59   O28   A    
C31   C32   A    
C15   H47   S    
Cr5   O11   S    
C53   H20   S    
Cr4   O11   S    
C4    O14   A    
C72   H38   S    
C1    C29   S    
C17   C18   S    
C63   O9    A    
C34   C45   A    
C42   C48   A    
C32   C37   S    
C62   O6    A    
C39   C44   A    
C51   C57   S    
C30   C35   A    
C22   C27   S    
C55   C57   S    
C43   C44   A    
C67   H14   S    
C34   H1    S    
C1    O4    A    
C60   O2    A    
C61   O3    A    
C52   O25   A    
Cr5   O7    S    
C39   C62   S    
C46   H18   S    
C46   C47   S    
C11   C17   S    
C71   H36   S    
C72   H40   S    
C17   H48   S    
C31   C36   S    
C69   O20   D    
Cr5   O29   S    
C14   C19   A    
C33   C38   A    
Cr6   O11   S    
Cr1   O18   S    
Cr3   O25   S    
C53   C58   A    
C64   H24   S    
Cr3   O16   S    
C12   C45   S    
C28   C58   S    
C56   C67   A    
C50   C55   S    
C71   H37   S    
C16   O16   A    
C40   O12   A    
C2    C3    A    
C24   H2    S    
C71   C72   S    
C38   C40   S    
C65   O10   A    
C11   C13   A    
C30   C31   A    
C16   C19   S    
Cr4   O6    S    
C73   O24   S    
C25   H4    S    
C33   C35   A    
C6    H23   S    
C9    C34   A    
C27   H7    S    
C42   C47   S    
C10   C11   A    
Cr2   O14   S    
C44   H16   S    
C48   C52   S    
C57   H26   S    
C20   C21   A    
C28   O19   A    
C26   H6    S    
C49   C50   A    
C47   O24   S    
C12   C75   A    
C2    C23   A    
C14   C15   A    
C4    C9    S    
C30   C63   S    
C10   C59   S    
C76   H3    S    
C56   H30   S    
Cr4   O5    S    
C33   H9    S    
