data_mof_unit_13126.cif
_audit_creation_date              2012-12-10T18:04:36-0500
_audit_creation_method            fapswitch 2.2
_symmetry_space_group_name_H-M    P1
_symmetry_Int_Tables_number       1
_space_group_crystal_system       triclinic
_cell_length_a                    10.82763
_cell_length_b                    9.593522
_cell_length_c                    15.982675
_cell_angle_alpha                 90.734719
_cell_angle_beta                  91.882906
_cell_angle_gamma                 89.981116
_cell_volume                      1659.16923535

loop_
_atom_site_label
_atom_site_type_symbol
_atom_type_description
_atom_site_fract_x
_atom_site_fract_y
_atom_site_fract_z
_atom_type_partial_charge
C1    C     C_R   0.871550 0.501031 0.496497 -0.018013
C2    C     C_R   0.128304 0.500611 0.497557 -0.012857
C3    C     C_R   0.262281 0.500065 0.499208 0.777907
C4    C     C_R   0.737673 0.500142 0.498865 0.779000
C5    C     C_R   0.499870 0.499239 0.341475 0.801117
C6    C     C_R   0.501305 0.500736 0.658626 0.816601
C7    C     C_R   0.531857 0.623079 0.958852 0.156832
C8    C     C_R   0.494386 0.369056 0.042478 0.154089
C9    C     C_R   0.521512 0.622995 0.046501 0.159348
C10   C     C_R   0.494872 0.370888 0.953896 0.156110
C11   C     C_R   0.514410 0.498053 0.913055 -0.012387
C12   C     C_R   0.505132 0.495967 0.087654 -0.011389
C13   C     C_1   0.510110 0.501281 0.823022 0.072844
C14   C     C_1   0.501384 0.496378 0.177441 0.071677
C15   C     C_1   0.500166 0.497530 0.252439 -0.215186
C16   C     C_1   0.505747 0.502040 0.747872 -0.200194
C17   C     C_R   0.417945 0.073383 0.449370 0.231522
C18   C     C_R   0.580371 0.926287 0.551597 0.242585
C19   C     C_R   0.580932 0.076076 0.551366 0.252690
C20   C     C_R   0.414953 0.924229 0.451752 0.241826
C21   C     C_R   0.062770 0.379028 0.475650 -0.182839
C22   C     C_R   0.937087 0.623432 0.516685 -0.182351
C23   C     C_R   0.934888 0.379730 0.474087 -0.208084
C24   C     C_R   0.064899 0.623316 0.517195 -0.187449
Cu1   Cu    Cu3+1 0.500000 0.640660 0.500000 0.977284
Cu2   Cu    Cu3+1 0.500000 0.359340 0.500000 0.977025
H1    H     H_    0.109932 0.283844 0.459231 0.143599
H2    H     H_    0.890070 0.718815 0.532901 0.136890
H3    H     H_    0.885773 0.285636 0.455294 0.149972
H4    H     H_    0.113839 0.718529 0.534155 0.143359
N1    N     N_R   0.500000 0.852070 0.500000 -0.207326
N2    N     N_R   0.500000 0.147930 0.500000 -0.210639
O1    O     O_R   0.319640 0.618740 0.499990 -0.560310
O2    O     O_R   0.680360 0.381260 0.500010 -0.555349
O3    O     O_R   0.680360 0.618740 0.500010 -0.569280
O4    O     O_R   0.319640 0.381260 0.499990 -0.563717
O5    O     O_R   0.499970 0.618750 0.380310 -0.553674
O6    O     O_R   0.500030 0.381250 0.619690 -0.561445
O7    O     O_R   0.500030 0.618750 0.619690 -0.548005
O8    O     O_R   0.499970 0.381250 0.380310 -0.554414
N3    N     N_2   0.330687 0.145944 0.397499 -0.376738
H5    H     H_    0.240151 0.117241 0.405041 0.212793
C25   C     C_3   0.360929 0.159791 0.310210 -0.590149
H6    H     H_    0.461031 0.142626 0.300325 0.227526
H7    H     H_    0.334703 0.265535 0.288850 0.227864
H8    H     H_    0.306633 0.086157 0.270054 0.183506
N4    N     N_2   0.660531 0.851773 0.607023 -0.369236
H9    H     H_    0.753069 0.864395 0.596831 0.229855
C26   C     C_3   0.630356 0.856077 0.694550 -0.640265
H10   H     H_    0.677645 0.944590 0.727190 0.187150
H11   H     H_    0.663212 0.758518 0.724273 0.238202
H12   H     H_    0.528959 0.864742 0.702437 0.235003
N5    N     N_2   0.657673 0.152942 0.609285 -0.360772
H13   H     H_    0.626718 0.158215 0.669518 0.246339
C27   C     C_3   0.790319 0.141285 0.602629 -0.694539
H14   H     H_    0.829493 0.073997 0.652817 0.199673
H15   H     H_    0.832313 0.245972 0.611564 0.242985
H16   H     H_    0.815587 0.098403 0.540560 0.208870
N6    N     N_2   0.313219 0.850830 0.413598 -0.374120
H17   H     H_    0.227542 0.882065 0.433011 0.213218
C28   C     C_3   0.317081 0.817083 0.325248 -0.607296
H18   H     H_    0.241793 0.871930 0.290377 0.179212
H19   H     H_    0.299205 0.704119 0.315803 0.226408
H20   H     H_    0.407883 0.843860 0.299201 0.232785
N7    N     N_2   0.528493 0.749773 0.094090 -0.416290
H21   H     H_    0.592486 0.820745 0.074544 0.259141
C29   C     C_3   0.409633 0.812635 0.109105 -0.731579
H22   H     H_    0.363893 0.844497 0.049116 0.217370
H23   H     H_    0.422368 0.906502 0.149714 0.222728
H24   H     H_    0.349016 0.738319 0.141192 0.240993
N8    N     N_2   0.472058 0.247668 0.904766 -0.414291
H25   H     H_    0.404676 0.181917 0.925310 0.241108
C30   C     C_3   0.580659 0.176178 0.875971 -0.695665
H26   H     H_    0.631857 0.127712 0.929261 0.222860
H27   H     H_    0.642493 0.249239 0.843945 0.232895
H28   H     H_    0.552078 0.092703 0.830656 0.219287
N9    N     N_2   0.558400 0.748487 0.916091 -0.420481
H29   H     H_    0.513165 0.835620 0.937771 0.260740
C31   C     C_3   0.689072 0.772085 0.906236 -0.736734
H30   H     H_    0.702933 0.871329 0.872995 0.222812
H31   H     H_    0.729688 0.685746 0.869195 0.239550
H32   H     H_    0.738217 0.779560 0.968243 0.220990
N10   N     N_2   0.482497 0.241739 0.086998 -0.422138
H33   H     H_    0.427563 0.166061 0.058833 0.246872
C32   C     C_3   0.596963 0.186778 0.122511 -0.688320
H34   H     H_    0.659991 0.155852 0.072239 0.220117
H35   H     H_    0.577258 0.093752 0.160390 0.216126
H36   H     H_    0.644024 0.265020 0.164153 0.236269

loop_
_geom_bond_atom_site_label_1
_geom_bond_atom_site_label_2
_ccdc_geom_bond_type
Cu1   N1    S    
C27   H14   S    
Cu2   N2    S    
C5    O5    A    
C8    N10   S    
C30   H27   S    
C30   H26   S    
C18   N4    S    
N4    C26   S    
N9    H29   S    
C7    C11   A    
C23   H3    S    
C9    N7    S    
C3    O1    A    
C17   C20   A    
C18   C19   A    
N3    H5    S    
C28   H19   S    
Cu1   O5    S    
Cu2   O2    S    
N10   H33   S    
C26   H11   S    
C6    O6    A    
C7    N9    S    
C10   N8    S    
C19   N5    S    
N5    C27   S    
C21   H1    S    
C4    O3    A    
N6    H17   S    
C22   H2    S    
N3    C25   S    
C19   N2    A    
C9    C12   A    
C17   N3    S    
C32   H35   S    
C4    O2    A    
N6    C28   S    
C29   H22   S    
N8    C30   S    
Cu2   O6    S    
N7    C29   S    
Cu1   Cu2   S    
C32   H34   S    
C29   H23   S    
C28   H20   S    
C25   H6    S    
N4    H9    S    
C8    C12   A    
C26   H12   S    
C2    C21   A    
N9    C31   S    
C20   N6    S    
C25   H7    S    
Cu1   O3    S    
Cu2   O4    S    
N10   C32   S    
C12   C14   S    
C1    C23   A    
C27   H15   S    
C2    C24   A    
C30   H28   S    
C22   C24   A    
C5    O8    A    
C31   H31   S    
C32   H36   S    
C7    C9    A    
C14   C15   T    
C31   H32   S    
N5    H13   S    
C1    C4    S    
C29   H24   S    
C21   C23   A    
C2    C3    S    
N8    H25   S    
Cu1   O7    S    
C11   C13   S    
Cu2   O8    S    
C27   H16   S    
C3    O4    A    
N7    H21   S    
C28   H18   S    
C25   H8    S    
C24   H4    S    
C5    C15   S    
C10   C11   A    
C6    C16   S    
C31   H30   S    
C1    C22   A    
C8    C10   A    
C26   H10   S    
C13   C16   T    
C17   N2    A    
C6    O7    A    
C18   N1    A    
Cu1   O1    S    
C20   N1    A    
