data_mof_unit_68087.cif
_audit_creation_date              2012-12-11T15:26:44-0500
_audit_creation_method            fapswitch 2.2
_symmetry_space_group_name_H-M    P1
_symmetry_Int_Tables_number       1
_space_group_crystal_system       triclinic
_cell_length_a                    7.439333
_cell_length_b                    11.94812
_cell_length_c                    28.888965
_cell_angle_alpha                 90.000127
_cell_angle_beta                  90.001619
_cell_angle_gamma                 89.998927
_cell_volume                      2567.8257954

loop_
_atom_site_label
_atom_site_type_symbol
_atom_type_description
_atom_site_fract_x
_atom_site_fract_y
_atom_site_fract_z
_atom_type_partial_charge
O1    O     O_R   0.647170 0.849180 0.201220 -0.536110
O2    O     O_R   0.352830 0.150820 0.798780 -0.532835
O3    O     O_R   0.352830 0.150820 0.701220 -0.536111
O4    O     O_R   0.647170 0.849180 0.298780 -0.532837
O5    O     O_R   0.147170 0.650820 0.298780 -0.536111
O6    O     O_R   0.852830 0.349180 0.701220 -0.532836
O7    O     O_R   0.852830 0.349180 0.798780 -0.536108
O8    O     O_R   0.147170 0.650820 0.201220 -0.532833
O9    O     O_R   0.317430 0.862210 0.298450 -0.543040
O10   O     O_R   0.682570 0.137790 0.701550 -0.542048
O11   O     O_R   0.682570 0.137790 0.798450 -0.543041
O12   O     O_R   0.317430 0.862210 0.201550 -0.542049
O13   O     O_R   0.817430 0.637790 0.201550 -0.543042
O14   O     O_R   0.182570 0.362210 0.798450 -0.542051
O15   O     O_R   0.182570 0.362210 0.701550 -0.543041
O16   O     O_R   0.817430 0.637790 0.298450 -0.542049
C1    C     C_R   0.485574 0.888216 0.313016 0.680457
C2    C     C_R   0.514966 0.110642 0.687432 0.684250
C3    C     C_R   0.514430 0.111784 0.813017 0.680459
C4    C     C_R   0.485031 0.889358 0.187431 0.684252
C5    C     C_R   0.985571 0.611784 0.186983 0.680459
C6    C     C_R   0.014968 0.389357 0.812569 0.684252
C7    C     C_R   0.014425 0.388215 0.686983 0.680457
C8    C     C_R   0.985036 0.610642 0.312568 0.684249
H1    H     H_    0.030980 0.609425 0.693088 0.089125
H2    H     H_    0.031812 0.388617 0.307808 0.091919
H3    H     H_    0.969021 0.390573 0.193087 0.089128
H4    H     H_    0.968181 0.611382 0.807809 0.091918
H5    H     H_    0.531002 0.890572 0.806913 0.089131
H6    H     H_    0.531799 0.111382 0.192192 0.091915
H7    H     H_    0.468999 0.109428 0.306913 0.089129
H8    H     H_    0.468206 0.888617 0.692192 0.091916
H9    H     H_    0.012224 0.342308 0.599004 0.175865
H10   H     H_    0.930187 0.655960 0.398957 0.209338
H11   H     H_    0.987760 0.657694 0.099003 0.175859
H12   H     H_    0.069840 0.344042 0.898960 0.209349
H13   H     H_    0.512209 0.157691 0.900997 0.175869
H14   H     H_    0.430184 0.844042 0.101040 0.209349
H15   H     H_    0.487803 0.842308 0.400995 0.175866
H16   H     H_    0.569793 0.155958 0.601043 0.209337
O17   O     O_3   0.480630 0.680630 0.250000 -0.401097
O18   O     O_3   0.519370 0.319370 0.750000 -0.401097
O19   O     O_3   0.980630 0.819370 0.250000 -0.401097
O20   O     O_3   0.019370 0.180630 0.750000 -0.401096
V1    V     V_3+5 0.205800 0.762860 0.250000 1.331051
V2    V     V_3+5 0.794200 0.237140 0.750000 1.331052
V3    V     V_3+5 0.705800 0.737140 0.250000 1.331045
V4    V     V_3+5 0.294200 0.262860 0.750000 1.331046
C9    C     C_R   0.987680 0.529783 0.350969 -0.102299
C10   C     C_R   0.005431 0.469467 0.648761 -0.084968
C11   C     C_R   0.012332 0.470216 0.850969 -0.102297
C12   C     C_R   0.994558 0.530532 0.148761 -0.084968
C13   C     C_R   0.487665 0.970217 0.149031 -0.102295
C14   C     C_R   0.505443 0.030532 0.851239 -0.084973
C15   C     C_R   0.512323 0.029782 0.649031 -0.102297
C16   C     C_R   0.494568 0.969468 0.351239 -0.084972
C17   C     C_R   0.987993 0.336560 0.379249 0.066454
C18   C     C_R   0.999925 0.663640 0.621578 0.064168
C19   C     C_R   0.012011 0.663440 0.879250 0.066458
C20   C     C_R   0.000071 0.336359 0.121578 0.064162
C21   C     C_R   0.487981 0.163440 0.120750 0.066456
C22   C     C_R   0.499931 0.836359 0.878422 0.064157
C23   C     C_R   0.512014 0.836559 0.620751 0.066454
C24   C     C_R   0.500073 0.163640 0.378422 0.064166
C25   C     C_R   0.005110 0.415324 0.342920 -0.196936
C26   C     C_R   0.010722 0.583782 0.657553 -0.194789
C27   C     C_R   0.994891 0.584676 0.842921 -0.196934
C28   C     C_R   0.989274 0.416217 0.157553 -0.194795
C29   C     C_R   0.505096 0.084676 0.157079 -0.196925
C30   C     C_R   0.510738 0.916217 0.842447 -0.194800
C31   C     C_R   0.494902 0.915323 0.657080 -0.196929
C32   C     C_R   0.489266 0.083783 0.342447 -0.194797
C33   C     C_R   0.962943 0.568640 0.395725 -0.071322
C34   C     C_R   0.994456 0.431067 0.603550 -0.096956
C35   C     C_R   0.037075 0.431360 0.895726 -0.071313
C36   C     C_R   0.005531 0.568932 0.103550 -0.096954
C37   C     C_R   0.462934 0.931361 0.104274 -0.071332
C38   C     C_R   0.494454 0.068932 0.896449 -0.096963
C39   C     C_R   0.537048 0.068639 0.604275 -0.071340
C40   C     C_R   0.505557 0.931067 0.396449 -0.096959
C41   C     C_R   0.972788 0.496442 0.434296 0.039623
C42   C     C_R   0.977426 0.505108 0.565663 0.052426
C43   C     C_R   0.027222 0.503558 0.934297 0.039619
C44   C     C_R   0.022567 0.494891 0.065663 0.052427
C45   C     C_R   0.472775 0.003558 0.065703 0.039620
C46   C     C_R   0.477422 0.994892 0.934337 0.052424
C47   C     C_R   0.527212 0.996441 0.565704 0.039623
C48   C     C_R   0.522582 0.005107 0.434337 0.052422
C49   C     C_R   0.965746 0.378643 0.425885 -0.127687
C50   C     C_R   0.984372 0.623115 0.574441 -0.097540
C51   C     C_R   0.034259 0.621358 0.925887 -0.127675
C52   C     C_R   0.015621 0.376884 0.074441 -0.097542
C53   C     C_R   0.465733 0.121358 0.074113 -0.127671
C54   C     C_R   0.484371 0.876885 0.925558 -0.097546
C55   C     C_R   0.534258 0.878641 0.574114 -0.127678
C56   C     C_R   0.515633 0.123114 0.425559 -0.097540
C57   C     C_R   0.981148 0.538524 0.480914 -0.189380
C58   C     C_R   0.960553 0.464009 0.518992 -0.204380
C59   C     C_R   0.018854 0.461476 0.980915 -0.189376
C60   C     C_R   0.039446 0.535990 0.018993 -0.204379
C61   C     C_R   0.481138 0.961475 0.019085 -0.189377
C62   C     C_R   0.460543 0.035990 0.981007 -0.204377
C63   C     C_R   0.518855 0.038523 0.519086 -0.189384
C64   C     C_R   0.539454 0.964008 0.481008 -0.204377
C65   C     C_R   0.918700 0.351345 0.509006 0.664582
C66   C     C_R   0.007876 0.652901 0.490999 0.648441
C67   C     C_R   0.081304 0.648654 0.009008 0.664565
C68   C     C_R   0.992122 0.347098 0.990998 0.648440
C69   C     C_R   0.418682 0.148654 0.990992 0.664570
C70   C     C_R   0.507869 0.847096 0.009000 0.648432
C71   C     C_R   0.581309 0.851343 0.490994 0.664585
C72   C     C_R   0.492130 0.152902 0.509000 0.648430
C73   C     C_R   0.928462 0.309250 0.464244 0.554207
C74   C     C_R   0.984254 0.694176 0.535312 0.573459
C75   C     C_R   0.071542 0.690750 0.964247 0.554202
C76   C     C_R   0.015739 0.305823 0.035312 0.573452
C77   C     C_R   0.428446 0.190750 0.035754 0.554197
C78   C     C_R   0.484250 0.805823 0.964687 0.573463
C79   C     C_R   0.571545 0.809248 0.535756 0.554202
C80   C     C_R   0.515752 0.194175 0.464688 0.573469
F1    F     F_    0.876691 0.201593 0.459293 -0.669297
F2    F     F_    0.943439 0.804230 0.537337 -0.661306
F3    F     F_    0.123310 0.798408 0.959298 -0.669301
F4    F     F_    0.056551 0.195769 0.037339 -0.661311
F5    F     F_    0.376675 0.298409 0.040702 -0.669306
F6    F     F_    0.443435 0.695771 0.962659 -0.661308
F7    F     F_    0.623318 0.701591 0.540707 -0.669302
F8    F     F_    0.556568 0.304227 0.462662 -0.661304
C81   C     C_R   0.004751 0.213788 0.366782 0.138706
C82   C     C_R   0.940696 0.173024 0.323953 -0.179437
C83   C     C_R   0.934330 0.058327 0.314730 -0.131885
C84   C     C_R   0.997103 0.981992 0.347390 -0.023515
C85   C     C_R   0.076869 0.020813 0.387881 -0.066970
C86   C     C_R   0.088651 0.135736 0.396309 -0.029887
H17   H     H_    0.894251 0.228723 0.297281 0.098605
H18   H     H_    0.877806 0.028870 0.282460 0.131817
H19   H     H_    0.988004 0.892987 0.340922 0.145877
H20   H     H_    0.130778 0.961888 0.412697 0.162283
H21   H     H_    0.157333 0.162915 0.427231 0.095154
C87   C     C_R   0.013996 0.785570 0.635733 0.128008
C88   C     C_R   0.941058 0.823113 0.678158 -0.177025
C89   C     C_R   0.939382 0.936570 0.689703 -0.128264
C90   C     C_R   0.011674 0.015203 0.659346 -0.048266
C91   C     C_R   0.096506 0.979481 0.619193 -0.081814
C92   C     C_R   0.107287 0.865411 0.609211 -0.016976
H22   H     H_    0.886084 0.765725 0.703035 0.100158
H23   H     H_    0.879419 0.963176 0.721981 0.132817
H24   H     H_    0.006435 0.103524 0.667207 0.152999
H25   H     H_    0.158006 0.040037 0.596312 0.149374
H26   H     H_    0.187048 0.840433 0.579911 0.117007
C93   C     C_R   0.995253 0.786212 0.866783 0.138695
C94   C     C_R   0.059306 0.826974 0.823954 -0.179432
C95   C     C_R   0.065674 0.941671 0.814731 -0.131887
C96   C     C_R   0.002906 0.018007 0.847390 -0.023514
C97   C     C_R   0.923141 0.979188 0.887879 -0.066967
C98   C     C_R   0.911358 0.864266 0.896308 -0.029888
H27   H     H_    0.105749 0.771274 0.797284 0.098608
H28   H     H_    0.122196 0.971127 0.782462 0.131817
H29   H     H_    0.012006 0.107012 0.840922 0.145880
H30   H     H_    0.869235 0.038115 0.912694 0.162289
H31   H     H_    0.842676 0.837089 0.927229 0.095162
C99   C     C_R   0.986001 0.214428 0.135733 0.128018
C100  C     C_R   0.058942 0.176886 0.178158 -0.177028
C101  C     C_R   0.060614 0.063430 0.189704 -0.128264
C102  C     C_R   0.988315 0.984797 0.159347 -0.048267
C103  C     C_R   0.903483 0.020518 0.119193 -0.081818
C104  C     C_R   0.892704 0.134588 0.109209 -0.016971
H32   H     H_    0.113919 0.234275 0.203036 0.100156
H33   H     H_    0.120577 0.036824 0.221984 0.132815
H34   H     H_    0.993550 0.896476 0.167209 0.153002
H35   H     H_    0.841980 0.959962 0.096310 0.149372
H36   H     H_    0.812941 0.159567 0.079908 0.117003
C105  C     C_R   0.504743 0.286212 0.133217 0.138697
C106  C     C_R   0.440695 0.326979 0.176045 -0.179435
C107  C     C_R   0.434334 0.441676 0.185268 -0.131885
C108  C     C_R   0.497101 0.518009 0.152607 -0.023511
C109  C     C_R   0.576860 0.479185 0.112118 -0.066968
C110  C     C_R   0.588639 0.364262 0.103690 -0.029892
H37   H     H_    0.394251 0.271281 0.202716 0.098604
H38   H     H_    0.377818 0.471135 0.217537 0.131821
H39   H     H_    0.488005 0.607014 0.159075 0.145876
H40   H     H_    0.630765 0.538108 0.087302 0.162286
H41   H     H_    0.657318 0.337079 0.072770 0.095157
C111  C     C_R   0.514001 0.714429 0.864267 0.128022
C112  C     C_R   0.441060 0.676888 0.821841 -0.177028
C113  C     C_R   0.439383 0.563431 0.810296 -0.128265
C114  C     C_R   0.511681 0.484797 0.840653 -0.048267
C115  C     C_R   0.596513 0.520517 0.880807 -0.081820
C116  C     C_R   0.607294 0.634586 0.890790 -0.016972
H42   H     H_    0.386088 0.734277 0.796962 0.100158
H43   H     H_    0.379417 0.536826 0.778017 0.132814
H44   H     H_    0.506443 0.396476 0.832792 0.153000
H45   H     H_    0.658015 0.459960 0.903690 0.149375
H46   H     H_    0.687053 0.659562 0.920093 0.117003
C117  C     C_R   0.495253 0.713787 0.633217 0.138706
C118  C     C_R   0.559304 0.673020 0.676046 -0.179437
C119  C     C_R   0.565663 0.558323 0.685269 -0.131882
C120  C     C_R   0.502892 0.481991 0.652608 -0.023513
C121  C     C_R   0.423131 0.520815 0.612117 -0.066971
C122  C     C_R   0.411352 0.635738 0.603689 -0.029890
H47   H     H_    0.605752 0.728718 0.702718 0.098602
H48   H     H_    0.622183 0.528863 0.717539 0.131821
H49   H     H_    0.511988 0.392985 0.659075 0.145875
H50   H     H_    0.369224 0.461891 0.587300 0.162284
H51   H     H_    0.342671 0.662921 0.572768 0.095150
C123  C     C_R   0.486004 0.285571 0.364267 0.128013
C124  C     C_R   0.558943 0.323111 0.321843 -0.177022
C125  C     C_R   0.560621 0.436568 0.310297 -0.128265
C126  C     C_R   0.488328 0.515203 0.340653 -0.048268
C127  C     C_R   0.403497 0.479484 0.380806 -0.081819
C128  C     C_R   0.392716 0.365415 0.390789 -0.016977
H52   H     H_    0.613912 0.265721 0.296965 0.100159
H53   H     H_    0.620585 0.463172 0.278019 0.132813
H54   H     H_    0.493565 0.603523 0.332791 0.153001
H55   H     H_    0.341996 0.540042 0.403687 0.149376
H56   H     H_    0.312958 0.340441 0.420090 0.117013
F9    F     F_    0.848488 0.281603 0.541371 -0.653740
F10   F     F_    0.059561 0.728997 0.458830 -0.688381
F11   F     F_    0.151526 0.718392 0.041375 -0.653738
F12   F     F_    0.940439 0.271004 0.958827 -0.688381
F13   F     F_    0.348458 0.218393 0.958625 -0.653749
F14   F     F_    0.559552 0.770998 0.041171 -0.688383
F15   F     F_    0.651527 0.781600 0.458630 -0.653747
F16   F     F_    0.440446 0.229002 0.541169 -0.688381

loop_
_geom_bond_atom_site_label_1
_geom_bond_atom_site_label_2
_ccdc_geom_bond_type
C48   C56   A    
O9    V1    S    
C102  C103  A    
C42   C58   A    
C4    C13   S    
C100  C101  A    
C52   C76   A    
C71   F15   S    
C24   C32   A    
C13   C29   A    
C36   C44   A    
C39   C47   A    
C57   C58   A    
C69   C77   A    
C112  H42   S    
C105  C106  A    
C59   C68   A    
O11   C3    A    
C125  H53   S    
C58   C65   A    
C9    C25   A    
C66   C74   A    
C105  C110  A    
C65   C73   A    
C101  C102  A    
C11   C35   A    
H5    C30   S    
C10   C34   A    
C21   C53   A    
C90   C91   A    
C21   C29   A    
C127  H55   S    
C122  H51   S    
C23   C55   A    
O3    V4    S    
C95   H28   S    
C111  C112  A    
C22   C30   A    
O3    C2    A    
C71   C79   A    
C17   C81   S    
C113  H43   S    
C106  C107  A    
C45   C61   A    
H3    C28   S    
C46   C54   A    
C19   C27   A    
O8    V1    S    
C45   C53   A    
C123  C128  A    
C18   C26   A    
C82   H17   S    
C23   C117  S    
C84   C85   A    
C16   C32   A    
C63   C64   A    
C47   C55   A    
O10   V2    S    
C20   C99   S    
C93   C94   A    
C118  H47   S    
C120  C121  A    
O6    V2    S    
C92   H26   S    
C12   C28   A    
C41   C49   A    
C38   C46   A    
O15   C7    A    
C128  H56   S    
C97   H30   S    
C37   C45   A    
C121  C122  A    
O16   C8    A    
C43   C59   A    
C72   F16   S    
C70   C78   A    
C101  H33   S    
C108  H39   S    
C53   C77   A    
O15   V4    S    
C34   C42   A    
C116  H46   S    
O16   V3    S    
C33   C41   A    
C48   C64   A    
O20   V2    S    
O8    C5    A    
H8    C31   S    
C20   C52   A    
C90   H24   S    
C49   C73   A    
H11   C36   S    
C75   F3    S    
C124  C125  A    
C44   C60   A    
C61   C62   A    
H4    C27   S    
C21   C105  S    
C87   C88   A    
C24   C56   A    
C83   H18   S    
C86   H21   S    
O13   V3    S    
C123  C124  A    
C125  C126  A    
C7    C10   S    
C19   C51   A    
C55   C79   A    
C84   H19   S    
C24   C123  S    
C99   C104  A    
C115  C116  A    
C74   F2    S    
O18   V4    S    
C13   C37   A    
O7    V2    S    
C91   H25   S    
H12   C35   S    
C15   C39   A    
H9    C34   S    
C107  C108  A    
C14   C30   A    
O12   C4    A    
C126  C127  A    
O17   V3    S    
H16   C39   S    
O13   C5    A    
C119  H48   S    
C11   C27   A    
C93   C98   A    
C44   C52   A    
C10   C26   A    
C1    C16   S    
C67   C75   A    
C114  H44   S    
C104  H36   S    
C17   C49   A    
C88   H22   S    
C18   C50   A    
C47   C63   A    
C57   C66   A    
C2    C15   S    
C3    C14   S    
O9    C1    A    
C108  C109  A    
C66   F10   S    
C23   C31   A    
C115  H45   S    
C109  C110  A    
C65   F9    S    
C22   C54   A    
C12   C36   A    
C85   C86   A    
C67   F11   S    
O4    C1    A    
C83   C84   A    
C46   C62   A    
C120  H49   S    
H6    C29   S    
C69   F13   S    
C72   C80   A    
C81   C82   A    
C18   C87   S    
C102  H34   S    
C94   H27   S    
H7    C32   S    
C60   C67   A    
C76   F4    S    
O2    C3    A    
C89   C90   A    
H2    C25   S    
C62   C69   A    
C89   H23   S    
C56   C80   A    
O1    V3    S    
H1    C26   S    
C110  H41   S    
C17   C25   A    
C118  C119  A    
O1    C4    A    
C16   C40   A    
C87   C92   A    
C98   H31   S    
C64   C71   A    
O14   V4    S    
C124  H52   S    
C80   F8    S    
C107  H38   S    
O12   V1    S    
H14   C37   S    
C19   C93   S    
C99   C100  A    
O7    C6    A    
C43   C51   A    
H13   C38   S    
C126  H54   S    
C42   C50   A    
C59   C60   A    
C91   C92   A    
O2    V4    S    
H15   C40   S    
O14   C6    A    
C100  H32   S    
C61   C70   A    
C96   H29   S    
O19   V1    S    
C88   C89   A    
C54   C78   A    
C68   C76   A    
C112  C113  A    
C103  C104  A    
O5    C8    A    
O5    V1    S    
C121  H50   S    
O10   C2    A    
O6    C7    A    
C8    C9    S    
C41   C57   A    
C51   C75   A    
C82   C83   A    
C9    C33   A    
C35   C43   A    
C50   C74   A    
C119  C120  A    
C117  C122  A    
C81   C86   A    
C103  H35   S    
H10   C33   S    
C22   C111  S    
C117  C118  A    
C68   F12   S    
C96   C97   A    
C85   H20   S    
C73   F1    S    
C94   C95   A    
C20   C28   A    
C40   C48   A    
C127  C128  A    
C97   C98   A    
C111  C116  A    
C63   C72   A    
O11   V2    S    
C114  C115  A    
C78   F6    S    
C14   C38   A    
C113  C114  A    
C77   F5    S    
C106  H37   S    
C5    C12   S    
C15   C31   A    
C109  H40   S    
C79   F7    S    
C6    C11   S    
C95   C96   A    
O4    V3    S    
C70   F14   S    
