data_mof_unit_60812.cif
_audit_creation_date              2012-12-10T18:26:47-0500
_audit_creation_method            fapswitch 2.2
_symmetry_space_group_name_H-M    P1
_symmetry_Int_Tables_number       1
_space_group_crystal_system       triclinic
_cell_length_a                    25.842911
_cell_length_b                    25.829952
_cell_length_c                    22.124454
_cell_angle_alpha                 90.000031
_cell_angle_beta                  54.4262
_cell_angle_gamma                 90.0
_cell_volume                      12012.2419175

loop_
_atom_site_label
_atom_site_type_symbol
_atom_type_description
_atom_site_fract_x
_atom_site_fract_y
_atom_site_fract_z
_atom_type_partial_charge
C1    C     C_R   0.849414 0.750055 0.301072 0.530396
C2    C     C_3   0.550824 0.248677 0.499887 0.027627
C3    C     C_3   0.292246 0.969798 0.417645 0.135109
C4    C     C_3   0.777746 0.530250 0.542128 0.086405
C5    C     C_3   0.777749 0.469750 0.542125 0.086400
C6    C     C_3   0.277752 0.030250 0.542122 0.086403
C7    C     C_3   0.277744 0.969750 0.542130 0.086405
C8    C     C_3   0.681970 0.529704 0.538565 -0.277826
C9    C     C_3   0.681970 0.470296 0.538568 -0.277814
C10   C     C_3   0.181970 0.029704 0.538570 -0.277831
C11   C     C_3   0.181970 0.970296 0.538563 -0.277836
C12   C     C_3   0.750775 0.550994 0.499188 -0.012597
C13   C     C_3   0.050825 0.251320 0.499884 0.027588
C14   C     C_3   0.750775 0.449006 0.499188 -0.012606
C15   C     C_3   0.250776 0.050994 0.499188 -0.012591
C16   C     C_3   0.250775 0.949006 0.499188 -0.012585
C17   C     C_R   0.750040 0.891333 0.499903 0.590877
C18   C     C_R   0.750040 0.108667 0.499903 0.590877
C19   C     C_R   0.250058 0.391333 0.499888 0.590793
C20   C     C_R   0.250058 0.608667 0.499888 0.590795
C21   C     C_R   0.891231 0.750103 0.500108 0.551946
C22   C     C_R   0.891230 0.249897 0.500109 0.551933
C23   C     C_R   0.391228 0.250100 0.500113 0.551944
C24   C     C_3   0.050826 0.748681 0.499884 0.027589
C25   C     C_R   0.391231 0.749897 0.500108 0.551980
C26   C     C_R   0.608580 0.750310 0.500081 0.615043
C27   C     C_R   0.608579 0.249689 0.500082 0.615039
C28   C     C_R   0.108580 0.250310 0.500081 0.615057
C29   C     C_R   0.108580 0.749690 0.500081 0.615058
C30   C     C_3   0.515344 0.805413 0.528704 0.396733
C31   C     C_3   0.515416 0.194544 0.528560 0.396692
C32   C     C_3   0.015354 0.305420 0.528683 0.396740
C33   C     C_3   0.015341 0.694588 0.528709 0.396742
C34   C     C_3   0.458399 0.805718 0.521612 0.155677
C35   C     C_3   0.448177 0.750619 0.501347 -0.071320
C36   C     C_3   0.458433 0.194261 0.521536 0.155635
C37   C     C_3   0.958404 0.305721 0.521601 0.155661
C38   C     C_3   0.958397 0.694283 0.521616 0.155664
C39   C     C_3   0.568757 0.737631 0.420001 0.368912
C40   C     C_3   0.568736 0.262472 0.420043 0.368976
C41   C     C_3   0.068754 0.237616 0.420007 0.368922
C42   C     C_3   0.068758 0.762365 0.420000 0.368910
C43   C     C_3   0.448172 0.249374 0.501355 -0.071327
C44   C     C_3   0.948176 0.250621 0.501349 -0.071304
C45   C     C_3   0.948177 0.749380 0.501347 -0.071305
C46   C     C_3   0.507282 0.735851 0.422976 -0.223971
C47   C     C_3   0.507266 0.264199 0.423007 -0.223924
C48   C     C_3   0.007279 0.235844 0.422981 -0.223970
C49   C     C_R   0.849414 0.249945 0.301072 0.530397
C50   C     C_3   0.007283 0.764146 0.422975 -0.223976
C51   C     C_3   0.441547 0.710657 0.557910 -0.260317
C52   C     C_3   0.441509 0.289292 0.557983 -0.260257
C53   C     C_3   0.941541 0.210665 0.557921 -0.260320
C54   C     C_3   0.941548 0.789345 0.557907 -0.260328
C55   C     C_3   0.467577 0.734845 0.956585 -0.214905
C56   C     C_3   0.468188 0.267180 0.956586 -0.215049
C57   C     C_3   0.966949 0.237287 0.956585 -0.214738
C58   C     C_3   0.967223 0.763833 0.956585 -0.214817
C59   C     C_3   0.535300 0.804577 0.957063 -0.213967
C60   C     C_R   0.349414 0.250055 0.301072 0.530337
C61   C     C_3   0.533247 0.194940 0.957052 -0.213869
C62   C     C_3   0.037724 0.303898 0.957076 -0.214088
C63   C     C_3   0.036621 0.695779 0.957070 -0.214041
C64   C     C_3   0.492133 0.804515 0.043257 -0.212311
C65   C     C_3   0.490080 0.195001 0.043246 -0.212158
C66   C     C_3   0.994556 0.303837 0.043270 -0.212491
C67   C     C_3   0.993453 0.695841 0.043264 -0.212410
C68   C     C_1   0.389038 0.749916 0.221634 0.050173
C69   C     C_1   0.389038 0.250083 0.221634 0.050166
C70   C     C_1   0.889038 0.249916 0.221634 0.050236
C71   C     C_R   0.349414 0.749945 0.301072 0.530336
C72   C     C_1   0.889039 0.750085 0.221633 0.050233
C73   C     C_3   0.536586 0.750103 0.926821 0.046768
C74   C     C_3   0.536586 0.249897 0.926821 0.046743
C75   C     C_3   0.036586 0.250101 0.926821 0.046824
C76   C     C_3   0.036587 0.749899 0.926820 0.046801
C77   C     C_R   0.650592 0.750036 0.698930 0.532398
C78   C     C_R   0.650592 0.249964 0.698930 0.532381
C79   C     C_R   0.150593 0.250036 0.698930 0.532308
C80   C     C_R   0.150592 0.749965 0.698930 0.532341
C81   C     C_3   0.424410 0.734783 0.042780 -0.210196
C82   C     C_3   0.502605 0.708906 0.554363 -0.284024
C83   C     C_3   0.425020 0.267242 0.042780 -0.210301
C84   C     C_3   0.923781 0.237225 0.042780 -0.210073
C85   C     C_3   0.924056 0.763895 0.042780 -0.210131
C86   C     C_3   0.463282 0.749998 0.073191 0.042597
C87   C     C_3   0.463282 0.250002 0.073191 0.042585
C88   C     C_3   0.963282 0.249996 0.073191 0.042607
C89   C     C_3   0.963282 0.750004 0.073191 0.042596
C90   C     C_3   0.518505 0.710762 0.043272 -0.213837
C91   C     C_3   0.519947 0.287695 0.043282 -0.213874
C92   C     C_3   0.016710 0.208994 0.043259 -0.213777
C93   C     C_3   0.502543 0.291013 0.554489 -0.283991
C94   C     C_3   0.017541 0.790209 0.043265 -0.213798
C95   C     C_3   0.561670 0.710825 0.957083 -0.212567
C96   C     C_3   0.563112 0.287633 0.957093 -0.212482
C97   C     C_3   0.059876 0.209057 0.957070 -0.212680
C98   C     C_3   0.060707 0.790147 0.957076 -0.212624
C99   C     C_1   0.422438 0.749940 0.154789 -0.041906
C100  C     C_1   0.422438 0.250060 0.154789 -0.041910
C101  C     C_1   0.922439 0.249938 0.154789 -0.041872
C102  C     C_1   0.922440 0.750062 0.154789 -0.041872
C103  C     C_1   0.577453 0.750142 0.845220 -0.052582
C104  C     C_3   0.002596 0.208919 0.554382 -0.284024
C105  C     C_1   0.577453 0.249858 0.845220 -0.052601
C106  C     C_1   0.077453 0.250141 0.845220 -0.052620
C107  C     C_1   0.077452 0.749859 0.845220 -0.052608
C108  C     C_1   0.610903 0.750123 0.778373 0.031759
C109  C     C_1   0.610903 0.249877 0.778373 0.031737
C110  C     C_1   0.110903 0.250122 0.778373 0.031674
C111  C     C_1   0.110902 0.749877 0.778373 0.031700
C112  C     C_3   0.740638 0.970327 0.440911 -0.208390
C113  C     C_3   0.740621 0.029672 0.440925 -0.208374
C114  C     C_3   0.241040 0.470327 0.440586 -0.208516
C115  C     C_3   0.002607 0.791096 0.554359 -0.284030
C116  C     C_3   0.241016 0.529673 0.440605 -0.208495
C117  C     C_3   0.694997 0.969738 0.577917 0.089749
C118  C     C_3   0.695005 0.030261 0.577922 0.089747
C119  C     C_3   0.194799 0.469737 0.577769 0.089718
C120  C     C_3   0.194811 0.530261 0.577777 0.089722
C121  C     C_3   0.814543 0.969757 0.481182 0.098789
C122  C     C_3   0.814548 0.030244 0.481166 0.098781
C123  C     C_3   0.314430 0.469758 0.481582 0.098840
C124  C     C_3   0.314437 0.530243 0.481558 0.098822
C125  C     C_R   0.750061 0.608717 0.500030 0.580376
C126  C     C_3   0.550826 0.751319 0.499884 0.027614
C127  C     C_R   0.750061 0.391283 0.500030 0.580380
C128  C     C_R   0.250061 0.108717 0.500030 0.580368
C129  C     C_R   0.250061 0.891283 0.500030 0.580388
C130  C     C_3   0.750022 0.949034 0.499736 -0.013270
C131  C     C_3   0.750021 0.050966 0.499737 -0.013271
C132  C     C_3   0.250051 0.449034 0.499713 -0.013233
C133  C     C_3   0.250050 0.550966 0.499714 -0.013230
C134  C     C_3   0.792244 0.530201 0.417645 0.135103
C135  C     C_3   0.792242 0.469798 0.417644 0.135106
C136  C     C_3   0.292240 0.030202 0.417644 0.135114
Cl1   Cl    Cl    0.564974 0.860582 0.479368 -0.364392
Cl2   Cl    Cl    0.490460 0.183545 0.622633 -0.421991
Cl3   Cl    Cl    0.990326 0.316289 0.622809 -0.422267
Cl4   Cl    Cl    0.990299 0.683747 0.622846 -0.422286
Cl5   Cl    Cl    0.619596 0.941177 0.608883 -0.398053
Cl6   Cl    Cl    0.619602 0.058840 0.608930 -0.398120
Cl7   Cl    Cl    0.119511 0.441182 0.608268 -0.397401
Cl8   Cl    Cl    0.119520 0.558843 0.608336 -0.397468
Cl9   Cl    Cl    0.881523 0.941161 0.397114 -0.498521
Cl10  Cl    Cl    0.881515 0.058821 0.397067 -0.498529
Cl11  Cl    Cl    0.381627 0.441156 0.397716 -0.498495
Cl12  Cl    Cl    0.565107 0.139445 0.479015 -0.364677
Cl13  Cl    Cl    0.381616 0.558818 0.397648 -0.498549
Cl14  Cl    Cl    0.385823 0.832414 0.601373 -0.425761
Cl15  Cl    Cl    0.385883 0.167538 0.601305 -0.425805
Cl16  Cl    Cl    0.885832 0.332422 0.601363 -0.425786
Cl17  Cl    Cl    0.885820 0.667589 0.601379 -0.425769
Cl18  Cl    Cl    0.768881 0.558762 0.362460 -0.458913
Cl19  Cl    Cl    0.768870 0.441242 0.362466 -0.458845
Cl20  Cl    Cl    0.268862 0.058755 0.362470 -0.458966
Cl21  Cl    Cl    0.268889 0.941236 0.362455 -0.458967
Cl22  Cl    Cl    0.853804 0.558389 0.509507 -0.407355
Cl23  Cl    Cl    0.064994 0.360578 0.479315 -0.363947
Cl24  Cl    Cl    0.853811 0.441615 0.509494 -0.407357
Cl25  Cl    Cl    0.353817 0.058382 0.509482 -0.407366
Cl26  Cl    Cl    0.353798 0.941607 0.509518 -0.407369
Cl27  Cl    Cl    0.623795 0.782106 0.348354 -0.447344
Cl28  Cl    Cl    0.623894 0.218130 0.348254 -0.447324
Cl29  Cl    Cl    0.123809 0.282071 0.348339 -0.447348
Cl30  Cl    Cl    0.123792 0.717886 0.348357 -0.447360
Cl31  Cl    Cl    0.064969 0.639417 0.479378 -0.363918
Cl32  Cl    Cl    0.608237 0.675870 0.388766 -0.493149
Cl33  Cl    Cl    0.608067 0.324301 0.389018 -0.493108
Cl34  Cl    Cl    0.108212 0.175845 0.388803 -0.493230
Cl35  Cl    Cl    0.108241 0.824124 0.388758 -0.493253
Cl36  Cl    Cl    0.490303 0.816259 0.622840 -0.422293
H1    H     H_    0.432135 0.671357 0.545649 0.165803
H2    H     H_    0.384043 0.240679 0.063294 0.151058
H3    H     H_    0.203502 0.543299 0.619122 0.108608
H4    H     H_    0.651317 0.543606 0.597099 0.132635
H5    H     H_    0.651320 0.456397 0.597103 0.132626
H6    H     H_    0.151322 0.043601 0.597106 0.132622
H7    H     H_    0.151315 0.956392 0.597096 0.132637
H8    H     H_    0.400588 0.721046 0.615214 0.202086
H9    H     H_    0.400533 0.278879 0.615266 0.202018
H10   H     H_    0.900580 0.221058 0.615223 0.202077
H11   H     H_    0.900590 0.778958 0.615212 0.202091
H12   H     H_    0.885088 0.266229 0.063309 0.151419
H13   H     H_    0.884777 0.735480 0.063305 0.151339
H14   H     H_    0.448295 0.762573 0.935812 0.145501
H15   H     H_    0.447889 0.240588 0.935805 0.145059
H16   H     H_    0.948935 0.266320 0.935821 0.145932
H17   H     H_    0.948622 0.735389 0.935818 0.145734
H18   H     H_    0.517261 0.833582 0.936296 0.144802
H19   H     H_    0.514142 0.167025 0.936277 0.145243
H20   H     H_    0.021008 0.334151 0.936318 0.144173
H21   H     H_    0.432106 0.328607 0.545753 0.165857
H22   H     H_    0.019293 0.666089 0.936309 0.144437
H23   H     H_    0.520505 0.816366 0.064142 0.138786
H24   H     H_    0.517978 0.181698 0.064130 0.138902
H25   H     H_    0.023421 0.313933 0.064154 0.138661
H26   H     H_    0.022103 0.684939 0.064147 0.138712
H27   H     H_    0.562920 0.671262 0.936327 0.135401
H28   H     H_    0.565852 0.327512 0.936346 0.135818
H29   H     H_    0.059365 0.169944 0.936305 0.134924
H30   H     H_    0.060997 0.829475 0.936315 0.135150
H31   H     H_    0.611205 0.720985 0.936677 0.140563
H32   H     H_    0.932130 0.171363 0.545666 0.165667
H33   H     H_    0.612238 0.276001 0.936687 0.140311
H34   H     H_    0.109826 0.217442 0.936665 0.140820
H35   H     H_    0.110477 0.780949 0.936669 0.140719
H36   H     H_    0.467098 0.695723 0.935821 0.131817
H37   H     H_    0.469184 0.306684 0.935830 0.131623
H38   H     H_    0.964730 0.198693 0.935812 0.132080
H39   H     H_    0.965796 0.802677 0.935817 0.131964
H40   H     H_    0.547361 0.720892 0.064156 0.140752
H41   H     H_    0.548394 0.276094 0.064166 0.140603
H42   H     H_    0.045982 0.217349 0.064144 0.140938
H43   H     H_    0.932137 0.828645 0.545643 0.165670
H44   H     H_    0.046633 0.781042 0.064149 0.140863
H45   H     H_    0.694969 0.956198 0.452582 0.222710
H46   H     H_    0.694935 0.043787 0.452629 0.222739
H47   H     H_    0.195486 0.456198 0.451938 0.222591
H48   H     H_    0.195437 0.543780 0.452006 0.222625
H49   H     H_    0.819227 0.956767 0.525779 0.116019
H50   H     H_    0.819255 0.043248 0.525740 0.116061
H51   H     H_    0.318841 0.456774 0.526390 0.116087
H52   H     H_    0.318881 0.543248 0.526334 0.116138
H53   H     H_    0.842203 0.543108 0.390648 0.179673
H54   H     H_    0.500030 0.696535 0.408468 0.179818
H55   H     H_    0.842200 0.456889 0.390643 0.179668
H56   H     H_    0.342198 0.043113 0.390639 0.179677
H57   H     H_    0.342205 0.956894 0.390651 0.179678
H58   H     H_    0.660322 0.544069 0.510563 0.217121
H59   H     H_    0.660317 0.455929 0.510571 0.217156
H60   H     H_    0.160314 0.044073 0.510577 0.217094
H61   H     H_    0.160325 0.955933 0.510556 0.217093
H62   H     H_    0.745235 0.543311 0.600920 0.130338
H63   H     H_    0.745242 0.456685 0.600916 0.130344
H64   H     H_    0.245248 0.043317 0.600913 0.130345
H65   H     H_    0.499966 0.303509 0.408530 0.179868
H66   H     H_    0.245229 0.956691 0.600923 0.130334
H67   H     H_    0.470434 0.831834 0.475081 0.198656
H68   H     H_    0.470440 0.168171 0.474991 0.198654
H69   H     H_    0.970435 0.331834 0.475067 0.198640
H70   H     H_    0.970432 0.668165 0.475087 0.198642
H71   H     H_    0.511321 0.762476 0.380866 0.173824
H72   H     H_    0.511346 0.237577 0.380870 0.173750
H73   H     H_    0.011324 0.262468 0.380867 0.173827
H74   H     H_    0.011320 0.737519 0.380867 0.173838
H75   H     H_    0.523856 0.669601 0.536761 0.189650
H76   H     H_    0.000020 0.196529 0.408478 0.179737
H77   H     H_    0.523749 0.330341 0.537034 0.189674
H78   H     H_    0.023840 0.169610 0.536802 0.189619
H79   H     H_    0.023860 0.830401 0.536753 0.189616
H80   H     H_    0.490040 0.713709 0.611368 0.188224
H81   H     H_    0.489958 0.286107 0.611489 0.188173
H82   H     H_    0.990028 0.213737 0.611387 0.188205
H83   H     H_    0.990042 0.786296 0.611365 0.188216
H84   H     H_    0.584352 0.816455 0.936656 0.133873
H85   H     H_    0.581825 0.181609 0.936645 0.133878
H86   H     H_    0.087268 0.314022 0.936669 0.133875
H87   H     H_    0.000032 0.803461 0.408464 0.179739
H88   H     H_    0.085950 0.684850 0.936661 0.133863
H89   H     H_    0.453414 0.833492 0.063784 0.149587
H90   H     H_    0.450295 0.167115 0.063765 0.149927
H91   H     H_    0.957161 0.334061 0.063806 0.149136
H92   H     H_    0.955446 0.666179 0.063797 0.149339
H93   H     H_    0.499075 0.671169 0.063806 0.139977
H94   H     H_    0.502008 0.327605 0.063824 0.140139
H95   H     H_    0.995520 0.169852 0.063784 0.139858
H96   H     H_    0.997152 0.829566 0.063793 0.139946
H97   H     H_    0.403253 0.695631 0.063308 0.140692
H98   H     H_    0.384449 0.762482 0.063300 0.151242
H99   H     H_    0.405339 0.306775 0.063317 0.140387
H100  H     H_    0.900886 0.198601 0.063299 0.141104
H101  H     H_    0.901952 0.802769 0.063303 0.140932
H102  H     H_    0.779165 0.956165 0.384471 0.192290
H103  H     H_    0.779125 0.043850 0.384484 0.192282
H104  H     H_    0.279744 0.456165 0.384229 0.192078
H105  H     H_    0.279687 0.543857 0.384247 0.192067
H106  H     H_    0.703923 0.956685 0.619057 0.108770
H107  H     H_    0.703955 0.043300 0.619047 0.108734
H108  H     H_    0.203456 0.456679 0.619135 0.108658
O1    O     O_3   0.750010 0.750010 0.500000 -0.480202
O2    O     O_R   0.740870 0.133130 0.457020 -0.505669
O3    O     O_R   0.240870 0.366870 0.457020 -0.505708
O4    O     O_R   0.240870 0.633130 0.457020 -0.505703
O5    O     O_R   0.862620 0.719400 0.336030 -0.530250
O6    O     O_R   0.862620 0.280600 0.336030 -0.530254
O7    O     O_R   0.362620 0.219400 0.336030 -0.530230
O8    O     O_R   0.362620 0.780600 0.336030 -0.530230
O9    O     O_R   0.698690 0.780630 0.663960 -0.527538
O10   O     O_R   0.698690 0.219370 0.663960 -0.527528
O11   O     O_R   0.198690 0.280630 0.663960 -0.527650
O12   O     O_3   0.750010 0.249990 0.500000 -0.480199
O13   O     O_R   0.198690 0.719370 0.663960 -0.527615
O14   O     O_R   0.801340 0.780670 0.336040 -0.511914
O15   O     O_R   0.801340 0.219330 0.336040 -0.511906
O16   O     O_R   0.301340 0.280670 0.336040 -0.512020
O17   O     O_R   0.301340 0.719330 0.336040 -0.512022
O18   O     O_R   0.637410 0.719360 0.663970 -0.534835
O19   O     O_R   0.637410 0.280640 0.663970 -0.534871
O20   O     O_R   0.137410 0.219360 0.663970 -0.534832
O21   O     O_R   0.137410 0.780640 0.663970 -0.534825
O22   O     O_R   0.802130 0.633170 0.457010 -0.476647
O23   O     O_3   0.250010 0.250010 0.500000 -0.480183
O24   O     O_R   0.802130 0.366830 0.457010 -0.476655
O25   O     O_R   0.302130 0.133170 0.457010 -0.476651
O26   O     O_R   0.302130 0.866830 0.457010 -0.476636
O27   O     O_R   0.759170 0.866860 0.542980 -0.543646
O28   O     O_R   0.759170 0.133140 0.542980 -0.543650
O29   O     O_R   0.259170 0.366860 0.542980 -0.543608
O30   O     O_R   0.259170 0.633140 0.542980 -0.543624
O31   O     O_R   0.888360 0.719380 0.456990 -0.522355
O32   O     O_R   0.888360 0.280620 0.456990 -0.522356
O33   O     O_R   0.388360 0.219380 0.456990 -0.522372
O34   O     O_3   0.250010 0.749990 0.500000 -0.480191
O35   O     O_R   0.388360 0.780620 0.456990 -0.522364
O36   O     O_R   0.654640 0.780660 0.457030 -0.440575
O37   O     O_R   0.654640 0.219340 0.457030 -0.440570
O38   O     O_R   0.154640 0.280660 0.457030 -0.440528
O39   O     O_R   0.154640 0.719340 0.457030 -0.440528
O40   O     O_R   0.845390 0.780640 0.542970 -0.532012
O41   O     O_R   0.845390 0.219360 0.542970 -0.532030
O42   O     O_R   0.345390 0.280640 0.542970 -0.531948
O43   O     O_R   0.345390 0.719360 0.542970 -0.531932
O44   O     O_R   0.611660 0.719380 0.543010 -0.542706
O45   O     O_R   0.697880 0.633160 0.542990 -0.550785
O46   O     O_R   0.611660 0.280620 0.543010 -0.542712
O47   O     O_R   0.111660 0.219380 0.543010 -0.542715
O48   O     O_R   0.111660 0.780620 0.543010 -0.542714
O49   O     O_R   0.697880 0.366840 0.542990 -0.550757
O50   O     O_R   0.197880 0.133160 0.542990 -0.550778
O51   O     O_R   0.197880 0.866840 0.542990 -0.550786
O52   O     O_R   0.740870 0.866870 0.457020 -0.505674
Zn1   Zn    Zn3+2 0.675530 0.706240 0.561430 1.001051
Zn2   Zn    Zn3+2 0.763090 0.206230 0.561410 0.995316
Zn3   Zn    Zn3+2 0.263090 0.293770 0.561410 0.995289
Zn4   Zn    Zn3+2 0.263090 0.706230 0.561410 0.995319
Zn5   Zn    Zn3+2 0.736940 0.793790 0.438590 1.082427
Zn6   Zn    Zn3+2 0.736940 0.206210 0.438590 1.082436
Zn7   Zn    Zn3+2 0.236940 0.293790 0.438590 1.082350
Zn8   Zn    Zn3+2 0.236940 0.706210 0.438590 1.082350
Zn9   Zn    Zn3+2 0.675530 0.293760 0.561430 1.001043
Zn10  Zn    Zn3+2 0.175530 0.206240 0.561430 1.001017
Zn11  Zn    Zn3+2 0.175530 0.793760 0.561430 1.001037
Zn12  Zn    Zn3+2 0.824490 0.706250 0.438570 1.038297
Zn13  Zn    Zn3+2 0.824490 0.293750 0.438570 1.038295
Zn14  Zn    Zn3+2 0.324490 0.206250 0.438570 1.038289
Zn15  Zn    Zn3+2 0.324490 0.793750 0.438570 1.038299
Zn16  Zn    Zn3+2 0.763090 0.793770 0.561410 0.995334

loop_
_geom_bond_atom_site_label_1
_geom_bond_atom_site_label_2
_ccdc_geom_bond_type
C22   O41   A    
C87   C91   S    
O4    Zn8   S    
C119  Cl7   S    
C65   H90   S    
C120  Cl8   S    
O23   Zn3   S    
C90   C95   S    
C55   H36   S    
C124  C133  S    
O8    Zn15  S    
C63   C76   S    
C76   C98   S    
C64   H23   S    
C23   C43   S    
C34   C35   S    
C26   C126  S    
C89   C94   S    
C23   O33   A    
C38   C45   S    
C118  C131  S    
C91   C96   S    
C44   C53   S    
C4    C12   S    
C62   H86   S    
C81   C86   S    
O34   Zn4   S    
C136  H56   S    
O2    Zn6   S    
C127  O49   A    
C113  H103  S    
C46   H71   S    
O28   Zn2   S    
C13   C41   S    
C40   Cl33  S    
C80   O21   A    
C78   O10   A    
O22   Zn12  S    
C104  H78   S    
C32   Cl3   S    
C86   C90   S    
C30   C34   S    
C64   H89   S    
C116  C133  S    
C123  H51   S    
C29   O39   A    
C120  H3    S    
C10   H60   S    
O50   Zn10  S    
C86   C99   S    
C1    O14   A    
C76   C107  S    
O24   Zn13  S    
C35   C51   S    
O12   Zn9   S    
C62   C75   S    
C11   H7    S    
C73   C95   S    
C66   H91   S    
C9    H5    S    
C56   C83   S    
C6    H64   S    
C27   O37   A    
O23   Zn10  S    
C4    H62   S    
O43   Zn4   S    
C84   C88   S    
C4    C5    S    
C6    C7    S    
C61   C74   S    
C19   O3    A    
C33   C38   S    
C19   O29   A    
C37   C44   S    
O3    Zn7   S    
C56   H37   S    
C91   H41   S    
C45   C50   S    
C81   H98   S    
C49   O15   A    
C122  Cl10  S    
C69   C100  T    
C61   C65   S    
C73   C103  S    
C48   H76   S    
C122  H50   S    
C61   H19   S    
C31   C36   S    
C50   H74   S    
C43   C47   S    
C44   C48   S    
C11   H61   S    
C124  Cl13  S    
C123  C132  S    
C13   C32   S    
C121  C130  S    
C67   H26   S    
O34   Zn11  S    
C70   C101  T    
C58   C76   S    
C123  C124  S    
C58   H39   S    
O42   Zn3   S    
C27   O46   A    
C135  H55   S    
O1    Zn1   S    
C82   H80   S    
O29   Zn3   S    
C120  C133  S    
C66   C88   S    
C47   H72   S    
C43   C52   S    
C115  H79   S    
C14   C135  S    
C53   C104  S    
C95   H31   S    
C3    C136  S    
O31   Zn12  S    
O5    Zn12  S    
C124  H52   S    
O12   Zn6   S    
C56   H15   S    
C2    C40   S    
O23   Zn7   S    
C97   H34   S    
C116  H48   S    
C65   H24   S    
C5    Cl24  S    
C12   C134  S    
C71   O8    A    
O16   Zn7   S    
O6    Zn13  S    
O20   Zn10  S    
C92   C97   S    
C21   C45   S    
C85   H13   S    
C49   O6    A    
C1    C72   S    
C37   H69   S    
O33   Zn14  S    
C62   C66   S    
C134  H53   S    
C74   C96   S    
C84   H12   S    
C90   H93   S    
C127  O24   A    
C15   C136  S    
C71   O17   A    
C117  H106  S    
O34   Zn8   S    
C25   O43   A    
C6    Cl25  S    
C8    C12   S    
O7    Zn14  S    
C63   H22   S    
C125  O45   A    
C52   C93   S    
C32   C37   S    
C30   Cl36  S    
C42   C50   S    
O14   Zn5   S    
C37   Cl16  S    
C113  H46   S    
C87   C100  S    
C19   C132  S    
C96   H28   S    
C105  C109  T    
C17   C130  S    
C54   H11   S    
C107  C111  T    
C77   C108  S    
C52   H21   S    
C97   H29   S    
C36   C43   S    
O52   Zn5   S    
C17   O52   A    
C114  C116  S    
C8    H4    S    
C134  C135  S    
O39   Zn8   S    
C29   O48   A    
C57   C75   S    
O12   Zn2   S    
C53   H10   S    
O10   Zn2   S    
C74   C105  S    
C96   H33   S    
C72   C102  T    
C60   C69   S    
C85   H101  S    
C78   C109  S    
C59   C73   S    
C42   Cl35  S    
C55   C73   S    
C80   O13   A    
C83   H2    S    
C30   Cl1   S    
C38   Cl17  S    
C112  C130  S    
C3    C16   S    
O12   Zn13  S    
C83   C87   S    
C24   C42   S    
C122  C131  S    
C61   H85   S    
O38   Zn7   S    
C3    H57   S    
C1    O5    A    
C34   Cl14  S    
C114  H104  S    
O21   Zn11  S    
C112  H102  S    
O37   Zn6   S    
C118  H107  S    
C93   H81   S    
C28   O47   A    
C94   C98   S    
C75   C97   S    
C55   H14   S    
C39   Cl32  S    
C24   C29   S    
C82   C126  S    
C47   H65   S    
O1    Zn16  S    
C13   C28   S    
C92   H42   S    
C2    C27   S    
O34   Zn15  S    
C114  H47   S    
C32   Cl23  S    
C26   O44   A    
C39   C126  S    
C128  O50   A    
O1    Zn5   S    
C18   C131  S    
C33   Cl31  S    
C64   C86   S    
C88   C101  S    
C54   H43   S    
O13   Zn4   S    
C56   C74   S    
O19   Zn9   S    
C52   H9    S    
O9    Zn16  S    
C119  H108  S    
C85   C89   S    
C12   C125  S    
O17   Zn8   S    
O1    Zn12  S    
C14   C127  S    
C117  Cl5   S    
C9    C14   S    
C48   H73   S    
O27   Zn16  S    
O47   Zn10  S    
C129  O26   A    
C7    H66   S    
C54   C115  S    
C81   H97   S    
C57   C84   S    
O35   Zn15  S    
C13   C104  S    
C83   H99   S    
C34   H67   S    
O49   Zn9   S    
C5    C14   S    
C25   C35   S    
C31   Cl12  S    
C23   O42   A    
O32   Zn13  S    
C49   C70   S    
O23   Zn14  S    
C98   H35   S    
C39   Cl27  S    
O48   Zn11  S    
O44   Zn1   S    
C57   H38   S    
C22   C44   S    
C128  O25   A    
C79   C110  S    
C59   H84   S    
O15   Zn6   S    
C119  C120  S    
C40   Cl28  S    
C94   H96   S    
C41   Cl34  S    
C24   C33   S    
C60   O7    A    
C90   H40   S    
C134  Cl18  S    
C68   C71   S    
C80   C111  S    
C75   C106  S    
C20   O30   A    
C21   O31   A    
C121  H49   S    
C59   H18   S    
C22   O32   A    
C20   O4    A    
C117  C118  S    
C35   C46   S    
C42   Cl30  S    
C79   O11   A    
C77   O18   A    
C36   H68   S    
C40   C47   S    
C30   C126  S    
C89   C102  S    
O45   Zn1   S    
O25   Zn14  S    
C67   H92   S    
C104  H82   S    
C59   C64   S    
C82   H75   S    
C116  H105  S    
C10   C15   S    
C77   O9    A    
C136  Cl20  S    
C50   H87   S    
C33   Cl4   S    
C67   C89   S    
C135  Cl19  S    
C11   C16   S    
C51   H1    S    
C57   H16   S    
C6    C15   S    
C92   H95   S    
C8    H58   S    
C4    Cl22  S    
C88   C92   S    
C8    C9    S    
C41   Cl29  S    
C112  H45   S    
C103  C108  T    
C20   C133  S    
C91   H94   S    
C112  C113  S    
C93   H77   S    
O30   Zn4   S    
C38   H70   S    
C7    Cl26  S    
C63   C67   S    
C53   H32   S    
C84   H100  S    
C10   H6    S    
C10   C11   S    
C62   H20   S    
C25   O35   A    
C26   O36   A    
C2    C31   S    
C31   Cl2   S    
C28   O38   A    
C16   C129  S    
O36   Zn5   S    
C18   O2    A    
C17   O27   A    
C58   H17   S    
C119  C132  S    
C121  C122  S    
C18   O28   A    
C65   C87   S    
C117  C130  S    
C51   C82   S    
O18   Zn1   S    
C39   C46   S    
C125  O22   A    
O51   Zn11  S    
C78   O19   A    
C123  Cl11  S    
C45   C54   S    
C121  Cl9   S    
C55   C81   S    
O40   Zn16  S    
C51   H8    S    
C129  O51   A    
C58   C85   S    
C3    Cl21  S    
C106  C110  T    
C15   C128  S    
C7    C16   S    
C21   O40   A    
O41   Zn2   S    
C113  C131  S    
C114  C132  S    
C98   H30   S    
C2    C93   S    
C118  Cl6   S    
C79   O20   A    
C36   Cl15  S    
C94   H44   S    
C9    H59   S    
C46   H54   S    
C68   C99   T    
C63   H88   S    
C60   O16   A    
O11   Zn3   S    
C41   C48   S    
C66   H25   S    
O26   Zn15  S    
C115  H83   S    
C24   C115  S    
C95   H27   S    
C5    H63   S    
O46   Zn9   S    
