data_mof_unit_11158.cif
_audit_creation_date              2012-12-10T16:54:04-0500
_audit_creation_method            fapswitch 2.2
_symmetry_space_group_name_H-M    P1
_symmetry_Int_Tables_number       1
_space_group_crystal_system       triclinic
_cell_length_a                    9.710264
_cell_length_b                    10.912008
_cell_length_c                    13.454596
_cell_angle_alpha                 90.402325
_cell_angle_beta                  72.685761
_cell_angle_gamma                 89.6406
_cell_volume                      1360.94305599

loop_
_atom_site_label
_atom_site_type_symbol
_atom_type_description
_atom_site_fract_x
_atom_site_fract_y
_atom_site_fract_z
_atom_type_partial_charge
C1    C     C_R   0.500393 0.734667 0.497401 0.858573
C2    C     C_R   0.435768 0.483200 0.979129 0.087639
C3    C     C_R   0.472636 0.454819 0.871271 0.087702
C4    C     C_R   0.542398 0.468030 0.031397 0.080617
C5    C     C_R   0.678422 0.414871 0.977977 0.170892
C6    C     C_R   0.705533 0.374047 0.875722 -0.201907
C7    C     C_R   0.603352 0.391481 0.823782 -0.185347
C8    C     C_R   0.518487 0.504961 0.135165 -0.245075
C9    C     C_R   0.755905 0.433209 0.132776 -0.154454
C10   C     C_R   0.376458 0.489103 0.814490 -0.104481
C11   C     C_2   0.623473 0.063925 0.450356 0.034414
C12   C     C_R   0.422937 0.493818 0.699867 0.773380
C13   C     C_2   0.504610 0.132655 0.496410 -0.330373
C14   C     C_2   0.621659 0.931336 0.468912 -0.254104
C15   C     C_2   0.500610 0.866380 0.485896 -0.313779
C16   C     C_2   0.045164 0.532539 0.579530 -0.055483
C17   C     C_2   0.894254 0.553145 0.572584 0.046805
C18   C     C_R   0.502341 0.265339 0.496124 0.896717
C19   C     C_R   0.577267 0.498271 0.300190 0.829345
C20   C     C_R   0.784791 0.400091 0.028416 -0.191293
C21   C     C_R   0.621022 0.482846 0.187010 -0.052829
C22   C     C_R   0.236828 0.530530 0.868195 -0.181714
C23   C     C_R   0.194847 0.544752 0.975514 -0.147312
C24   C     C_R   0.293238 0.524128 0.030517 -0.178697
Cu1   Cu    Cu3+1 0.361370 0.499980 0.499980 0.948443
Cu2   Cu    Cu3+1 0.638630 0.500020 0.500020 0.949716
H1    H     H_    0.836662 0.415677 0.171864 0.176594
H2    H     H_    0.406082 0.091258 0.544108 0.129333
H3    H     H_    0.723650 0.885379 0.462500 0.161947
H4    H     H_    0.400085 0.908669 0.483850 0.157181
H5    H     H_    0.066798 0.554002 0.652212 0.194387
H6    H     H_    0.133973 0.491574 0.430171 0.196192
H7    H     H_    0.913658 0.438707 0.452295 0.202675
H8    H     H_    0.806260 0.328082 0.835590 0.143468
H9    H     H_    0.888870 0.359790 0.987894 0.141532
H10   H     H_    0.419912 0.550332 0.178398 0.146697
H11   H     H_    0.160387 0.554782 0.826964 0.165473
H12   H     H_    0.252863 0.538368 0.113457 0.126921
H13   H     H_    0.086356 0.575717 0.016142 0.151081
H14   H     H_    0.627498 0.351399 0.746867 0.169897
N1    N     N_2   0.152660 0.501340 0.501130 -0.305019
N2    N     N_2   0.846520 0.501370 0.501160 -0.336355
O1    O     O_R   0.382960 0.678040 0.499980 -0.569913
O2    O     O_R   0.617100 0.678080 0.500020 -0.603392
O3    O     O_R   0.325800 0.499940 0.650950 -0.583077
O4    O     O_R   0.559930 0.499980 0.650990 -0.606192
O5    O     O_R   0.382900 0.321920 0.499980 -0.576193
O6    O     O_R   0.617040 0.321960 0.500020 -0.547821
O7    O     O_R   0.440070 0.500020 0.349010 -0.589199
O8    O     O_R   0.674200 0.500060 0.349050 -0.562269
C25   C     C_2   0.801374 0.636956 0.652560 0.408310
H15   H     H_    0.706637 0.679934 0.642317 0.133075
O9    O     O_2   0.831751 0.661244 0.732236 -0.585277
C26   C     C_2   0.759491 0.113541 0.379464 0.397033
H16   H     H_    0.860546 0.065148 0.370425 0.047968
O10   O     O_2   0.759448 0.203467 0.325969 -0.552451

loop_
_geom_bond_atom_site_label_1
_geom_bond_atom_site_label_2
_ccdc_geom_bond_type
C24   H12   S    
H6    N1    S    
C13   H2    S    
C6    C7    A    
C1    C15   S    
Cu1   O5    S    
C9    C20   A    
C2    C4    A    
C14   C15   D    
Cu2   O6    S    
C4    C8    A    
C1    O2    A    
C18   O5    A    
C17   C25   S    
C2    C3    A    
Cu2   O2    S    
C3    C10   A    
C10   C22   A    
C16   H5    S    
C11   C13   D    
C19   O8    A    
C9    C21   A    
C16   C17   S    
C11   C26   S    
C10   C12   S    
C13   C18   S    
C23   H13   S    
H7    N2    S    
Cu1   O1    S    
C19   C21   S    
C1    O1    A    
C8    C21   A    
C3    C7    A    
Cu2   O8    S    
Cu2   N2    S    
C2    C24   A    
C5    C6    A    
C11   C14   S    
C26   O10   D    
Cu2   O4    S    
C23   C24   A    
C25   H15   S    
Cu1   O3    S    
C17   N2    D    
C9    H1    S    
C15   H4    S    
C12   O4    A    
C8    H10   S    
Cu1   N1    S    
C5    C20   A    
C19   O7    A    
C26   H16   S    
C4    C5    A    
C14   H3    S    
Cu1   Cu2   S    
C7    H14   S    
C22   H11   S    
C16   N1    D    
C20   H9    S    
C22   C23   A    
C6    H8    S    
C12   O3    A    
C25   O9    D    
Cu1   O7    S    
C18   O6    A    
