data_mof_unit_32004.cif
_audit_creation_date              2012-12-11T16:07:19-0500
_audit_creation_method            fapswitch 2.2
_symmetry_space_group_name_H-M    P1
_symmetry_Int_Tables_number       1
_space_group_crystal_system       triclinic
_cell_length_a                    17.045584
_cell_length_b                    17.045492
_cell_length_c                    17.472234
_cell_angle_alpha                 89.998177
_cell_angle_beta                  89.996571
_cell_angle_gamma                 89.999316
_cell_volume                      5076.5639664

loop_
_atom_site_label
_atom_site_type_symbol
_atom_type_description
_atom_site_fract_x
_atom_site_fract_y
_atom_site_fract_z
_atom_type_partial_charge
C1    C     C_R   0.388945 0.702364 0.586488 0.633898
C2    C     C_R   0.586951 0.679654 0.638891 0.553381
C3    C     C_3   0.801952 0.197956 0.630289 0.715834
C4    C     C_3   0.802053 0.801938 0.369715 0.716112
C5    C     C_3   0.253093 0.253196 0.735106 0.698798
C6    C     C_3   0.746892 0.253236 0.264901 0.698819
C7    C     C_3   0.197623 0.801634 0.630251 0.715893
C8    C     C_3   0.698049 0.697962 0.869704 0.715777
C9    C     C_3   0.246772 0.246870 0.235061 0.698708
C10   C     C_3   0.753242 0.246879 0.764915 0.698735
C11   C     C_3   0.301647 0.697620 0.130258 0.715705
C12   C     C_3   0.302055 0.301928 0.869706 0.715963
C13   C     C_R   0.679670 0.413032 0.361115 0.553278
C14   C     C_3   0.753079 0.753225 0.235113 0.698886
C15   C     C_3   0.247153 0.753560 0.764883 0.698713
C16   C     C_3   0.697948 0.301947 0.130285 0.715875
C17   C     C_3   0.375217 0.825734 0.528638 -0.194374
C18   C     C_3   0.567051 0.188482 0.339033 -0.171148
C19   C     C_3   0.811495 0.567004 0.660984 -0.171251
C20   C     C_3   0.173963 0.375301 0.470794 -0.194654
C21   C     C_3   0.624703 0.173837 0.529381 -0.195179
C22   C     C_3   0.433582 0.811334 0.338359 -0.172897
C23   C     C_3   0.188504 0.433086 0.661151 -0.171713
C24   C     C_R   0.297590 0.610960 0.586502 0.634124
C25   C     C_3   0.826182 0.624690 0.470640 -0.195786
C26   C     C_3   0.375295 0.173848 0.470623 -0.194922
C27   C     C_3   0.566824 0.811457 0.661144 -0.171512
C28   C     C_3   0.811473 0.433146 0.338830 -0.171738
C29   C     C_3   0.173545 0.624634 0.529840 -0.196427
C30   C     C_3   0.624751 0.826071 0.470860 -0.195936
C31   C     C_3   0.432959 0.188466 0.660969 -0.171174
C32   C     C_3   0.188412 0.567395 0.339451 -0.170071
C33   C     C_3   0.826038 0.375281 0.529160 -0.195154
C34   C     C_3   0.875271 0.326033 0.029124 -0.195256
C35   C     C_R   0.611018 0.702387 0.413556 0.634511
C36   C     C_3   0.067446 0.688382 0.839500 -0.169942
C37   C     C_3   0.311506 0.067017 0.160963 -0.170839
C38   C     C_3   0.673971 0.875270 0.970828 -0.195164
C39   C     C_3   0.124586 0.673513 0.029910 -0.195445
C40   C     C_3   0.933177 0.311462 0.838817 -0.171837
C41   C     C_3   0.688512 0.933128 0.161161 -0.171707
C42   C     C_3   0.326203 0.124721 0.970644 -0.196396
C43   C     C_3   0.875324 0.673853 0.970603 -0.194583
C44   C     C_3   0.066852 0.311470 0.161135 -0.171570
C45   C     C_3   0.311294 0.933710 0.838160 -0.173833
C46   C     C_R   0.412996 0.320313 0.638863 0.553172
C47   C     C_3   0.673829 0.124703 0.029367 -0.195447
C48   C     C_3   0.124720 0.326070 0.970828 -0.195320
C49   C     C_3   0.932914 0.688463 0.160976 -0.171229
C50   C     C_3   0.688495 0.067025 0.839024 -0.171149
C51   C     C_3   0.325528 0.875199 0.028382 -0.194345
C52   C     C_3   0.116702 0.116948 0.438698 -0.317885
C53   C     C_3   0.828637 0.828860 0.667568 -0.301931
C54   C     C_3   0.172458 0.829906 0.332387 -0.301432
C55   C     C_3   0.883121 0.116747 0.561292 -0.318760
C56   C     C_3   0.883531 0.882858 0.438679 -0.319722
C57   C     C_R   0.320359 0.587010 0.361115 0.553168
C58   C     C_3   0.170954 0.171399 0.667689 -0.300688
C59   C     C_3   0.828988 0.171415 0.332351 -0.301348
C60   C     C_3   0.114127 0.880425 0.561229 -0.319187
C61   C     C_3   0.616909 0.616742 0.938723 -0.318782
C62   C     C_3   0.328631 0.328909 0.167579 -0.301357
C63   C     C_3   0.671404 0.328946 0.832383 -0.301351
C64   C     C_3   0.382534 0.616160 0.061227 -0.318960
C65   C     C_3   0.383316 0.383074 0.938661 -0.318698
C66   C     C_3   0.670967 0.671402 0.167693 -0.301285
C67   C     C_3   0.329923 0.672435 0.832352 -0.301336
C68   C     C_R   0.702381 0.388988 0.586510 0.633855
C69   C     C_3   0.616667 0.383053 0.061304 -0.318756
C70   C     C_R   0.888983 0.202383 0.086488 0.633969
C71   C     C_R   0.087022 0.820342 0.861129 0.553309
C72   C     C_R   0.179661 0.086984 0.138877 0.553311
C73   C     C_R   0.586995 0.320334 0.361123 0.553204
C74   C     C_R   0.797621 0.888990 0.913470 0.633873
C75   C     C_R   0.110932 0.797586 0.086538 0.633857
C76   C     C_R   0.913041 0.179664 0.861111 0.553313
C77   C     C_R   0.820316 0.913019 0.138873 0.553205
C78   C     C_R   0.202395 0.111001 0.913558 0.634721
C79   C     C_R   0.889006 0.797616 0.913445 0.633399
C80   C     C_R   0.086965 0.179664 0.138882 0.553357
C81   C     C_R   0.179647 0.913098 0.861074 0.552934
C82   C     C_R   0.797609 0.110999 0.086494 0.633998
C83   C     C_R   0.111020 0.202384 0.913532 0.633944
C84   C     C_R   0.679652 0.586978 0.638887 0.553325
C85   C     C_R   0.912988 0.820317 0.138868 0.553166
C86   C     C_R   0.820340 0.086988 0.861120 0.553240
C87   C     C_R   0.202351 0.888928 0.086532 0.633622
C88   C     C_3   0.260571 0.260568 0.355179 0.082177
C89   C     C_3   0.684154 0.684177 0.748440 0.118323
C90   C     C_3   0.315880 0.684164 0.251525 0.118300
C91   C     C_3   0.739439 0.260565 0.644795 0.082125
C92   C     C_3   0.739427 0.739437 0.355243 0.082017
C93   C     C_3   0.315792 0.315786 0.748428 0.118464
C94   C     C_3   0.684195 0.315826 0.251557 0.118389
C95   C     C_R   0.297623 0.388992 0.413454 0.633413
C96   C     C_3   0.260546 0.739440 0.644764 0.082100
C97   C     C_3   0.760562 0.760567 0.855181 0.082162
C98   C     C_3   0.184172 0.184188 0.248427 0.118331
C99   C     C_3   0.815836 0.184187 0.751558 0.118367
C100  C     C_3   0.239421 0.760517 0.144780 0.082167
C101  C     C_3   0.239437 0.239419 0.855237 0.082049
C102  C     C_3   0.815785 0.815807 0.248437 0.118441
C103  C     C_3   0.184154 0.815846 0.751522 0.118303
C104  C     C_3   0.760564 0.239437 0.144777 0.082083
C105  C     C_R   0.309117 0.690797 0.594247 -0.384855
C106  C     C_R   0.610998 0.297611 0.586517 0.633828
C107  C     C_R   0.649190 0.350830 0.319683 -0.276316
C108  C     C_R   0.649143 0.649162 0.680331 -0.276356
C109  C     C_R   0.309177 0.309164 0.405690 -0.384737
C110  C     C_R   0.690830 0.309158 0.594276 -0.384803
C111  C     C_R   0.350895 0.649165 0.319646 -0.276218
C112  C     C_R   0.350789 0.350791 0.680295 -0.276319
C113  C     C_R   0.690851 0.690840 0.405799 -0.384891
C114  C     C_R   0.809152 0.190833 0.094244 -0.384822
C115  C     C_R   0.149174 0.850873 0.819657 -0.276108
C116  C     C_R   0.149162 0.149175 0.180317 -0.276382
C117  C     C_R   0.413101 0.679642 0.361077 0.553330
C118  C     C_R   0.809177 0.809165 0.905683 -0.384732
C119  C     C_R   0.190766 0.809105 0.094295 -0.384734
C120  C     C_R   0.850842 0.149179 0.819678 -0.276308
C121  C     C_R   0.850785 0.850806 0.180301 -0.276305
C122  C     C_R   0.190857 0.190836 0.905803 -0.384929
C123  C     C_3   0.736334 0.644276 0.809154 -0.357058
C124  C     C_3   0.207687 0.299749 0.294372 -0.370783
C125  C     C_3   0.700258 0.207798 0.705700 -0.370982
C126  C     C_3   0.355807 0.735872 0.190428 -0.357175
C127  C     C_3   0.263759 0.355716 0.809248 -0.357128
C128  C     C_R   0.320314 0.413006 0.638871 0.553199
C129  C     C_3   0.792169 0.700240 0.294327 -0.371026
C130  C     C_3   0.299682 0.792688 0.705282 -0.371335
C131  C     C_3   0.644283 0.263651 0.190850 -0.357150
C132  C     C_3   0.736237 0.355744 0.190735 -0.357134
C133  C     C_3   0.208122 0.700230 0.705943 -0.370588
C134  C     C_3   0.700237 0.792328 0.294448 -0.371147
C135  C     C_3   0.355712 0.263620 0.809143 -0.357219
C136  C     C_3   0.263344 0.644287 0.191096 -0.356973
C137  C     C_3   0.792330 0.299745 0.705591 -0.370905
C138  C     C_3   0.299749 0.207789 0.294286 -0.370994
C139  C     C_R   0.702392 0.611002 0.413526 0.634020
C140  C     C_3   0.644248 0.736242 0.809249 -0.357186
C141  C     C_3   0.236338 0.144282 0.309148 -0.356968
C142  C     C_3   0.707667 0.799741 0.794381 -0.370819
C143  C     C_3   0.200244 0.708095 0.205971 -0.371092
C144  C     C_3   0.855749 0.236240 0.690742 -0.357162
C145  C     C_3   0.763758 0.855736 0.309264 -0.357036
C146  C     C_3   0.292185 0.200220 0.794328 -0.371085
C147  C     C_3   0.799749 0.292329 0.205571 -0.370970
C148  C     C_3   0.144282 0.763312 0.691088 -0.358552
C149  C     C_3   0.235855 0.855782 0.690429 -0.355621
C150  C     C_R   0.389005 0.297614 0.413470 0.633833
C151  C     C_3   0.707807 0.200251 0.205688 -0.371010
C152  C     C_3   0.200245 0.292301 0.794435 -0.371074
C153  C     C_3   0.855703 0.763632 0.309145 -0.357315
C154  C     C_3   0.763661 0.144280 0.690848 -0.357074
C155  C     C_3   0.292681 0.799678 0.205289 -0.370507
C156  C     C_3   0.799736 0.707789 0.794284 -0.370952
C157  C     C_3   0.144260 0.236255 0.309230 -0.357249
C158  C     C_3   0.198049 0.197971 0.369692 0.715654
C159  C     C_3   0.746748 0.746864 0.735066 0.698799
C160  C     C_3   0.253578 0.747142 0.264898 0.698626
H1    H     H_    0.745600 0.580282 0.816409 0.165313
H2    H     H_    0.197287 0.636412 0.713096 0.175859
H3    H     H_    0.685655 0.870805 0.142854 0.138245
H4    H     H_    0.651731 0.967732 0.121454 0.180115
H5    H     H_    0.298805 0.166240 0.011884 0.166450
H6    H     H_    0.360101 0.156190 0.926375 0.155180
H7    H     H_    0.369517 0.088898 0.002358 0.133702
H8    H     H_    0.843654 0.639929 0.926494 0.155070
H9    H     H_    0.833973 0.701362 0.011936 0.165727
H10   H     H_    0.911207 0.630547 0.002263 0.133424
H11   H     H_    0.032262 0.348234 0.121403 0.180169
H12   H     H_    0.129183 0.314322 0.142845 0.138234
H13   H     H_    0.636455 0.803589 0.287635 0.175970
H14   H     H_    0.061249 0.339707 0.217970 0.127231
H15   H     H_    0.339181 0.939528 0.781176 0.127688
H16   H     H_    0.314479 0.871370 0.856334 0.138564
H17   H     H_    0.348165 0.968338 0.877772 0.180206
H18   H     H_    0.630518 0.088851 0.997682 0.133570
H19   H     H_    0.701285 0.166134 0.988076 0.166090
H20   H     H_    0.639918 0.156277 0.073554 0.155112
H21   H     H_    0.156453 0.359996 0.926756 0.155109
H22   H     H_    0.166024 0.298504 0.012166 0.165927
H23   H     H_    0.088843 0.369376 0.002499 0.133701
H24   H     H_    0.419707 0.254348 0.816375 0.165347
H25   H     H_    0.967458 0.651717 0.121191 0.180005
H26   H     H_    0.870572 0.685723 0.142702 0.138121
H27   H     H_    0.938486 0.660128 0.217768 0.127161
H28   H     H_    0.660166 0.061458 0.782231 0.127120
H29   H     H_    0.685736 0.129363 0.857313 0.138115
H30   H     H_    0.651758 0.032464 0.878806 0.180166
H31   H     H_    0.368845 0.911207 0.996856 0.134227
H32   H     H_    0.297345 0.834644 0.986731 0.164800
H33   H     H_    0.359500 0.842573 0.071802 0.155303
H34   H     H_    0.138654 0.063677 0.408849 0.143646
H35   H     H_    0.253813 0.580311 0.184013 0.165543
H36   H     H_    0.063161 0.139811 0.409993 0.143668
H37   H     H_    0.099335 0.098784 0.497181 0.157243
H38   H     H_    0.881884 0.806127 0.696907 0.152101
H39   H     H_    0.806035 0.881974 0.697237 0.152426
H40   H     H_    0.846353 0.846853 0.609253 0.202323
H41   H     H_    0.118972 0.807573 0.303169 0.152227
H42   H     H_    0.195458 0.882776 0.302594 0.152345
H43   H     H_    0.155022 0.848173 0.390703 0.202410
H44   H     H_    0.860860 0.063420 0.590827 0.143870
H45   H     H_    0.936610 0.139305 0.590317 0.143821
H46   H     H_    0.803580 0.363527 0.712424 0.176057
H47   H     H_    0.900691 0.098785 0.502808 0.157070
H48   H     H_    0.861415 0.936262 0.409175 0.144091
H49   H     H_    0.936934 0.860144 0.409612 0.144021
H50   H     H_    0.901200 0.900738 0.497156 0.156936
H51   H     H_    0.117829 0.194192 0.697199 0.152175
H52   H     H_    0.193520 0.118187 0.697216 0.152598
H53   H     H_    0.153040 0.153557 0.609389 0.202256
H54   H     H_    0.882107 0.194142 0.302782 0.152310
H55   H     H_    0.806367 0.118187 0.302895 0.152360
H56   H     H_    0.846930 0.153621 0.390657 0.202275
H57   H     H_    0.363539 0.196631 0.287373 0.175987
H58   H     H_    0.133229 0.933331 0.593492 0.143192
H59   H     H_    0.060495 0.854794 0.587422 0.144785
H60   H     H_    0.098111 0.900062 0.502831 0.157157
H61   H     H_    0.639208 0.563404 0.909239 0.143845
H62   H     H_    0.563424 0.639257 0.909655 0.143782
H63   H     H_    0.599316 0.598815 0.997211 0.157056
H64   H     H_    0.381859 0.306246 0.197004 0.152251
H65   H     H_    0.305953 0.382036 0.197169 0.152164
H66   H     H_    0.346405 0.346855 0.109266 0.202391
H67   H     H_    0.618173 0.306300 0.802952 0.152269
H68   H     H_    0.580248 0.745420 0.816564 0.165135
H69   H     H_    0.694101 0.382067 0.802796 0.152282
H70   H     H_    0.653627 0.346895 0.890693 0.202336
H71   H     H_    0.360903 0.563276 0.091950 0.143713
H72   H     H_    0.436448 0.639308 0.089030 0.144029
H73   H     H_    0.399111 0.597236 0.002757 0.157153
H74   H     H_    0.360809 0.436549 0.909569 0.143940
H75   H     H_    0.436644 0.360748 0.909177 0.143808
H76   H     H_    0.401254 0.400691 0.997137 0.157064
H77   H     H_    0.617859 0.694127 0.197283 0.152469
H78   H     H_    0.693599 0.618171 0.197139 0.152369
H79   H     H_    0.245591 0.080286 0.316410 0.165275
H80   H     H_    0.652999 0.653615 0.109393 0.202167
H81   H     H_    0.382739 0.695373 0.802422 0.152307
H82   H     H_    0.307524 0.618903 0.803264 0.152376
H83   H     H_    0.348310 0.655110 0.890662 0.202315
H84   H     H_    0.639114 0.436521 0.090450 0.143875
H85   H     H_    0.563322 0.360676 0.090724 0.143843
H86   H     H_    0.598777 0.400702 0.002823 0.157066
H87   H     H_    0.696424 0.863523 0.787537 0.176050
H88   H     H_    0.136430 0.697235 0.213134 0.175849
H89   H     H_    0.196446 0.363531 0.287528 0.176105
H90   H     H_    0.919750 0.245417 0.683430 0.165204
H91   H     H_    0.754601 0.919739 0.316578 0.165291
H92   H     H_    0.303325 0.136427 0.787419 0.175938
H93   H     H_    0.863530 0.303583 0.212394 0.176038
H94   H     H_    0.080308 0.753709 0.684109 0.165269
H95   H     H_    0.244660 0.919804 0.682824 0.165365
H96   H     H_    0.696664 0.136460 0.212608 0.175972
H97   H     H_    0.136463 0.303558 0.787617 0.176027
H98   H     H_    0.919698 0.754346 0.316365 0.165385
H99   H     H_    0.754394 0.080284 0.683602 0.165338
H100  H     H_    0.636468 0.196649 0.712621 0.175985
H101  H     H_    0.304229 0.863433 0.211882 0.176266
H102  H     H_    0.863525 0.696633 0.787362 0.176022
H103  H     H_    0.080260 0.245448 0.316528 0.165203
H104  H     H_    0.343029 0.859759 0.572331 0.155427
H105  H     H_    0.334281 0.797793 0.487191 0.165409
H106  H     H_    0.411157 0.868985 0.496954 0.134070
H107  H     H_    0.532478 0.151737 0.378799 0.180114
H108  H     H_    0.629383 0.185733 0.357343 0.138123
H109  H     H_    0.561509 0.160157 0.282235 0.127118
H110  H     H_    0.839821 0.561435 0.717779 0.127162
H111  H     H_    0.419826 0.744783 0.182941 0.165007
H112  H     H_    0.814258 0.629341 0.642691 0.138075
H113  H     H_    0.848232 0.532440 0.621206 0.180173
H114  H     H_    0.201592 0.334069 0.512163 0.165573
H115  H     H_    0.140011 0.343482 0.426805 0.155027
H116  H     H_    0.130673 0.411204 0.502459 0.133602
H117  H     H_    0.656295 0.139914 0.573546 0.155109
H118  H     H_    0.666119 0.201312 0.488089 0.165985
H119  H     H_    0.588845 0.130535 0.497692 0.133540
H120  H     H_    0.468296 0.848218 0.377885 0.180146
H121  H     H_    0.371297 0.814442 0.356727 0.138585
H122  H     H_    0.254587 0.419719 0.816546 0.165360
H123  H     H_    0.439194 0.839263 0.281378 0.127519
H124  H     H_    0.160282 0.438666 0.717996 0.127265
H125  H     H_    0.185663 0.370760 0.642848 0.138217
H126  H     H_    0.151721 0.467679 0.621439 0.180024
H127  H     H_    0.869493 0.588834 0.502324 0.133550
H128  H     H_    0.798741 0.666130 0.511929 0.166139
H129  H     H_    0.860088 0.656253 0.426440 0.155055
H130  H     H_    0.343676 0.139934 0.426474 0.155158
H131  H     H_    0.333903 0.201337 0.511930 0.165938
H132  H     H_    0.411155 0.130536 0.502302 0.133545
H133  H     H_    0.803307 0.636448 0.287411 0.175990
H134  H     H_    0.532209 0.848226 0.621436 0.180249
H135  H     H_    0.629146 0.814317 0.642825 0.138251
H136  H     H_    0.561246 0.839679 0.717989 0.127160
H137  H     H_    0.839689 0.438736 0.281982 0.127239
H138  H     H_    0.814331 0.370820 0.357133 0.138243
H139  H     H_    0.848251 0.467746 0.378539 0.180122
H140  H     H_    0.130200 0.588833 0.498149 0.133275
H141  H     H_    0.200683 0.666385 0.488658 0.166560
H142  H     H_    0.139704 0.655802 0.574343 0.154768
H143  H     H_    0.656415 0.860003 0.426746 0.155172
H144  H     H_    0.363430 0.804259 0.711886 0.176129
H145  H     H_    0.666112 0.798522 0.512154 0.166177
H146  H     H_    0.588901 0.869370 0.502570 0.133832
H147  H     H_    0.467514 0.151731 0.621183 0.180122
H148  H     H_    0.370618 0.185709 0.642694 0.138162
H149  H     H_    0.438536 0.160133 0.717762 0.127071
H150  H     H_    0.159805 0.561849 0.282787 0.126876
H151  H     H_    0.185892 0.629772 0.357678 0.137824
H152  H     H_    0.151779 0.532943 0.379410 0.180196
H153  H     H_    0.798426 0.334017 0.487814 0.165785
H154  H     H_    0.859986 0.343501 0.573180 0.155080
H155  H     H_    0.580288 0.254379 0.183614 0.165336
H156  H     H_    0.869330 0.411168 0.497478 0.133699
H157  H     H_    0.843480 0.359964 0.073151 0.155137
H158  H     H_    0.834019 0.298421 0.987768 0.165849
H159  H     H_    0.911154 0.369340 0.997459 0.133720
H160  H     H_    0.032991 0.651749 0.879454 0.180130
H161  H     H_    0.129819 0.685885 0.857744 0.137840
H162  H     H_    0.061927 0.659759 0.782842 0.126833
H163  H     H_    0.339828 0.061470 0.217762 0.127048
H164  H     H_    0.314265 0.129348 0.142650 0.138070
H165  H     H_    0.348245 0.032442 0.121196 0.180279
H166  H     H_    0.745408 0.419746 0.183424 0.165268
H167  H     H_    0.701596 0.834013 0.012174 0.165763
H168  H     H_    0.640021 0.843484 0.926816 0.155101
H169  H     H_    0.630679 0.911154 0.002511 0.133729
H170  H     H_    0.155719 0.639668 0.074431 0.155130
H171  H     H_    0.166362 0.700627 0.988738 0.166531
H172  H     H_    0.088778 0.630178 0.998216 0.133096
H173  H     H_    0.967755 0.348224 0.878560 0.180197
H174  H     H_    0.870836 0.314327 0.857076 0.138268
H175  H     H_    0.938815 0.339686 0.781976 0.127251
H176  H     H_    0.660300 0.938711 0.218011 0.127200
N1    N     N_R   0.424590 0.632770 0.578330 -0.135087
N2    N     N_R   0.575410 0.632770 0.578330 -0.138054
N3    N     N_R   0.632770 0.424590 0.421670 -0.138053
N4    N     N_R   0.367230 0.575410 0.578330 -0.135147
N5    N     N_R   0.575410 0.632770 0.421670 -0.134992
N6    N     N_R   0.424590 0.367230 0.578330 -0.138014
N7    N     N_R   0.367230 0.575410 0.421670 -0.137944
N8    N     N_R   0.632770 0.424590 0.578330 -0.135160
N9    N     N_R   0.924590 0.132770 0.078330 -0.135110
N10   N     N_R   0.075410 0.867230 0.921670 -0.137951
N11   N     N_R   0.132770 0.075410 0.078330 -0.138029
N12   N     N_R   0.575410 0.367230 0.421670 -0.138019
N13   N     N_R   0.867230 0.924590 0.921670 -0.135162
N14   N     N_R   0.075410 0.867230 0.078330 -0.135192
N15   N     N_R   0.924590 0.132770 0.921670 -0.138057
N16   N     N_R   0.867230 0.924590 0.078330 -0.138042
N17   N     N_R   0.132770 0.075410 0.921670 -0.134950
N18   N     N_R   0.924590 0.867230 0.921670 -0.135266
N19   N     N_R   0.075410 0.132770 0.078330 -0.138066
N20   N     N_R   0.132770 0.924590 0.921670 -0.138163
N21   N     N_R   0.867230 0.075410 0.078330 -0.135114
N22   N     N_R   0.075410 0.132770 0.921670 -0.135081
N23   N     N_R   0.632770 0.575410 0.578330 -0.138034
N24   N     N_R   0.924590 0.867230 0.078330 -0.138015
N25   N     N_R   0.867230 0.075410 0.921670 -0.138022
N26   N     N_R   0.132770 0.924590 0.078330 -0.135146
N27   N     N_R   0.367230 0.424590 0.421670 -0.135264
N28   N     N_R   0.575410 0.367230 0.578330 -0.135161
N29   N     N_R   0.424590 0.632770 0.421670 -0.138138
N30   N     N_R   0.367230 0.424590 0.578330 -0.138045
N31   N     N_R   0.632770 0.575410 0.421670 -0.135113
N32   N     N_R   0.424590 0.367230 0.421670 -0.135168
Ni1   Ni    Ni4+2 0.500000 0.631570 0.500000 0.257382
Ni2   Ni    Ni4+2 0.500000 0.368430 0.500000 0.257407
Ni3   Ni    Ni4+2 0.631570 0.500000 0.500000 0.257450
Ni4   Ni    Ni4+2 0.368430 0.500000 0.500000 0.257462
Ni5   Ni    Ni4+2 0.000000 0.131570 0.000000 0.257445
Ni6   Ni    Ni4+2 0.000000 0.868430 0.000000 0.257451
Ni7   Ni    Ni4+2 0.131570 0.000000 0.000000 0.257308
Ni8   Ni    Ni4+2 0.868430 0.000000 0.000000 0.257418
O1    O     O_3   0.426205 0.770997 0.563232 -0.583168
O2    O     O_3   0.534055 0.735233 0.664381 -0.605836
O3    O     O_3   0.735251 0.465925 0.335619 -0.605774
O4    O     O_3   0.229060 0.573577 0.563112 -0.582561
O5    O     O_3   0.573704 0.770948 0.436954 -0.583138
O6    O     O_3   0.465817 0.264647 0.664311 -0.605710
O7    O     O_3   0.264498 0.534346 0.335787 -0.605686
O8    O     O_3   0.770981 0.426296 0.563222 -0.582814
O9    O     O_3   0.926292 0.270974 0.063174 -0.582914
O10   O     O_3   0.034375 0.764458 0.835815 -0.605625
O11   O     O_3   0.235325 0.034161 0.164322 -0.605728
O12   O     O_3   0.534182 0.264660 0.335680 -0.605718
O13   O     O_3   0.729014 0.926290 0.936750 -0.582832
O14   O     O_3   0.073538 0.729054 0.063156 -0.582640
O15   O     O_3   0.965943 0.235234 0.835610 -0.605797
O16   O     O_3   0.764733 0.965908 0.164369 -0.605739
O17   O     O_3   0.270933 0.073661 0.936988 -0.583189
O18   O     O_3   0.926332 0.729007 0.936682 -0.582595
O19   O     O_3   0.034076 0.235249 0.164374 -0.605808
O20   O     O_3   0.234936 0.966215 0.835400 -0.605854
O21   O     O_3   0.729039 0.073667 0.063156 -0.582847
O22   O     O_3   0.073700 0.270966 0.936853 -0.582914
O23   O     O_3   0.735312 0.534151 0.664337 -0.605757
O24   O     O_3   0.965792 0.764637 0.164319 -0.605661
O25   O     O_3   0.764677 0.034167 0.835672 -0.605739
O26   O     O_3   0.271043 0.926153 0.063407 -0.583050
O27   O     O_3   0.175321 0.175068 0.444056 -0.631378
O28   O     O_3   0.770397 0.770624 0.661179 -0.655717
O29   O     O_3   0.230203 0.771176 0.338782 -0.655787
O30   O     O_3   0.824697 0.175065 0.555928 -0.631359
O31   O     O_3   0.824931 0.824720 0.444065 -0.631330
O32   O     O_3   0.229312 0.229512 0.661243 -0.655830
O33   O     O_3   0.770668 0.229569 0.338774 -0.655767
O34   O     O_3   0.229002 0.426299 0.436678 -0.582630
O35   O     O_3   0.174694 0.824332 0.555893 -0.631355
O36   O     O_3   0.675307 0.675086 0.944071 -0.631356
O37   O     O_3   0.270438 0.270627 0.161179 -0.655750
O38   O     O_3   0.729580 0.270646 0.838793 -0.655767
O39   O     O_3   0.323970 0.674338 0.055891 -0.631323
O40   O     O_3   0.324961 0.324690 0.944054 -0.631337
O41   O     O_3   0.729285 0.729554 0.161249 -0.655768
O42   O     O_3   0.271204 0.730189 0.838759 -0.655807
O43   O     O_3   0.675057 0.324701 0.055929 -0.631347
O44   O     O_3   0.573672 0.229028 0.563210 -0.582787
O45   O     O_3   0.466161 0.735013 0.335465 -0.605917
O46   O     O_3   0.264718 0.465881 0.664368 -0.605705
O47   O     O_3   0.770956 0.573661 0.436871 -0.582773
O48   O     O_3   0.426326 0.229024 0.436771 -0.582850

loop_
_geom_bond_atom_site_label_1
_geom_bond_atom_site_label_2
_ccdc_geom_bond_type
C157  C158  S    
C46   C112  A    
C131  C151  S    
C52   H36   S    
C9    O37   S    
C40   H175  S    
C43   H8    S    
N3    N12   A    
C85   N24   A    
C95   N27   A    
C26   H132  S    
C33   H156  S    
C80   N19   A    
C59   H55   S    
C2    N2    A    
C61   O36   S    
C3    O30   S    
C16   C104  S    
C49   H26   S    
C80   C116  A    
C73   N12   A    
C31   H147  S    
C6    C94   S    
C12   C135  S    
C57   O7    S    
N2    N23   A    
C85   C121  A    
C88   C158  S    
C10   C125  S    
C28   H139  S    
C95   O34   S    
C4    C153  S    
C141  H79   S    
C104  C147  S    
C71   N10   A    
C106  N28   A    
C74   C118  A    
C37   H163  S    
N10   N20   A    
C43   H10   S    
N16   Ni8   S    
C123  C156  S    
C65   H74   S    
C11   C126  S    
N2    Ni1   S    
C136  H35   S    
C95   C109  A    
C60   H59   S    
C63   H67   S    
C23   H124  S    
C94   C132  S    
C75   N14   A    
C99   C144  S    
N23   Ni3   S    
C44   H12   S    
C21   H117  S    
C9    C138  S    
C98   C157  S    
C129  H133  S    
C135  C146  S    
C53   H40   S    
C41   H176  S    
C90   C126  S    
C75   C119  A    
C8    C123  S    
C68   C110  A    
C25   O47   S    
C102  C153  S    
C26   O48   S    
C63   H70   S    
C156  H102  S    
C6    C151  S    
C100  C155  S    
C69   H85   S    
C157  H103  S    
C76   N15   A    
C13   O3    S    
C24   O4    S    
N1    N4    A    
C42   H7    S    
C127  H122  S    
C17   O1    S    
C10   O38   S    
C91   C125  S    
C66   H80   S    
C26   H130  S    
C27   H135  S    
N5    N31   A    
C138  C141  S    
C64   H71   S    
C69   H84   S    
C106  O44   S    
C47   H18   S    
C62   H65   S    
C14   C134  S    
C101  C122  S    
C8    C140  S    
C25   H128  S    
C30   H146  S    
C56   H49   S    
C21   O44   S    
C11   C136  S    
C128  O46   S    
C57   C111  A    
C15   C130  S    
C89   C108  S    
C32   H150  S    
C147  H93   S    
C35   C113  A    
C16   O43   S    
C10   C99   S    
C97   C142  S    
C44   H11   S    
C14   C102  S    
C93   C112  S    
C155  H101  S    
C41   H4    S    
C84   O23   S    
C15   C103  S    
C33   O8    S    
C1    C105  A    
C148  H94   S    
C9    C98   S    
N27   N32   A    
C65   H76   S    
C88   C124  S    
C50   H28   S    
C61   H63   S    
C143  C160  S    
C58   H51   S    
C12   O40   S    
C86   C120  A    
C76   C120  A    
C44   H14   S    
C136  C143  S    
C45   H15   S    
C68   N8    A    
C22   H120  S    
C86   N25   A    
C54   H43   S    
C79   C118  A    
C143  H88   S    
C72   O11   S    
C97   C156  S    
C2    C108  A    
C16   C131  S    
C61   H62   S    
C19   O23   S    
N15   N25   A    
C152  H97   S    
C69   O43   S    
C113  C139  A    
C81   N20   A    
C62   H64   S    
C102  C121  S    
C13   N3    A    
C42   H5    S    
N29   Ni1   S    
C29   H142  S    
C132  H166  S    
C24   N4    A    
C66   H78   S    
C90   C111  S    
C50   H30   S    
C159  O28   S    
C28   H138  S    
C34   H159  S    
C67   H82   S    
C89   C159  S    
C137  H46   S    
C8    O36   S    
C94   C107  S    
C140  H68   S    
C53   H39   S    
C79   O18   S    
C7    O35   S    
C51   H33   S    
C133  C148  S    
C84   N23   A    
C32   H152  S    
C3    C154  S    
C87   C119  A    
C47   H20   S    
C60   H58   S    
C38   H168  S    
C69   H86   S    
C79   N18   A    
C18   O12   S    
C89   C140  S    
C59   O33   S    
C28   O3    S    
C11   O39   S    
C100  C119  S    
C33   H154  S    
C5    O32   S    
C20   O34   S    
C137  C144  S    
N16   N24   A    
C36   H162  S    
C139  N31   A    
C74   O13   S    
C51   H31   S    
C125  C154  S    
C38   O13   S    
C123  H1    S    
N14   N26   A    
N9    N21   A    
C132  C147  S    
C145  H91   S    
C92   C134  S    
C93   C135  S    
C149  H95   S    
C54   H41   S    
C55   H47   S    
C68   O8    S    
N6    Ni2   S    
C17   H104  S    
C109  C150  A    
C158  O27   S    
C66   H77   S    
C42   O17   S    
C129  C153  S    
C6    C147  S    
C4    C145  S    
C85   O24   S    
C58   O32   S    
C54   O29   S    
C150  N32   A    
C83   C122  A    
C17   H106  S    
C77   C121  A    
C23   H126  S    
C30   H143  S    
C49   H25   S    
C142  H87   S    
N31   Ni3   S    
N12   Ni2   S    
N13   N18   A    
C34   H157  S    
C160  O29   S    
C151  H96   S    
C96   C105  S    
C49   O24   S    
C36   O10   S    
C23   O46   S    
C142  C159  S    
C133  H2    S    
N32   Ni2   S    
C43   H9    S    
C48   O22   S    
C39   H172  S    
C31   H149  S    
C139  O47   S    
C7    C96   S    
C125  H100  S    
C73   O12   S    
C91   C110  S    
N6    N30   A    
C140  C142  S    
C44   O19   S    
C60   H60   S    
C102  C145  S    
C18   H107  S    
C73   C107  A    
C86   O25   S    
C55   O30   S    
C3    C91   S    
C4    O31   S    
C38   H167  S    
C46   O6    S    
C138  H57   S    
C83   O22   S    
N25   Ni8   S    
N13   Ni8   S    
C92   C113  S    
C27   H136  S    
C63   H69   S    
C130  H144  S    
C126  C155  S    
C60   O35   S    
C33   H153  S    
C22   O45   S    
C67   O42   S    
C87   N26   A    
C153  H98   S    
C82   N21   A    
N18   Ni6   S    
C55   H45   S    
C62   O37   S    
N3    Ni3   S    
C26   H131  S    
C64   H72   S    
C67   H83   S    
C59   H56   S    
C31   O6    S    
C36   H160  S    
C41   O16   S    
N15   Ni5   S    
C146  H92   S    
C46   N6    A    
C38   H169  S    
C25   H127  S    
C103  C115  S    
C56   H50   S    
C83   N22   A    
C37   H165  S    
N19   Ni5   S    
C126  H111  S    
C49   H27   S    
C31   H148  S    
C124  C157  S    
C75   O14   S    
C117  N29   A    
N7    N29   A    
C32   O7    S    
N9    Ni5   S    
C41   H3    S    
N11   Ni7   S    
C37   H164  S    
N30   Ni4   S    
C96   C130  S    
C39   H170  S    
C35   O5    S    
C134  C145  S    
C144  H90   S    
C65   H75   S    
C3    C144  S    
C15   O42   S    
C100  C143  S    
C48   H23   S    
C19   H112  S    
C58   H52   S    
C52   O27   S    
C72   C116  A    
C101  C152  S    
C94   C131  S    
C63   O38   S    
C111  C117  A    
C18   H109  S    
N8    Ni3   S    
C21   H119  S    
C92   C129  S    
C20   H115  S    
C62   H66   S    
C21   H118  S    
C74   N13   A    
C82   O21   S    
N8    N28   A    
C55   H44   S    
C84   C108  A    
C76   O15   S    
C40   H174  S    
C90   C160  S    
C16   C132  S    
C40   O15   S    
C61   H61   S    
N27   Ni4   S    
C112  C128  A    
C103  C149  S    
C128  N30   A    
C58   H53   S    
C141  C158  S    
C12   C101  S    
C72   N11   A    
C52   H37   S    
N11   N19   A    
C53   O28   S    
C154  H99   S    
C42   H6    S    
C66   O41   S    
C29   H141  S    
C4    C92   S    
C14   C129  S    
C48   H22   S    
C99   C154  S    
N17   Ni7   S    
C134  H13   S    
N26   Ni7   S    
C48   H21   S    
C13   C107  A    
C150  O48   S    
C78   N17   A    
C20   H116  S    
C67   H81   S    
C59   H54   S    
C12   C127  S    
C70   C114  A    
C56   O31   S    
C5    C152  S    
C53   H38   S    
N10   Ni6   S    
C104  C151  S    
C30   H145  S    
C22   H123  S    
C29   H140  S    
C70   N9    A    
C78   O17   S    
C9    C124  S    
N28   Ni2   S    
C97   C118  S    
C50   H29   S    
C17   H105  S    
C56   H48   S    
C99   C120  S    
C91   C137  S    
C131  H155  S    
C47   H19   S    
C10   C137  S    
C80   O19   S    
C47   O21   S    
C77   N16   A    
N17   N22   A    
C45   H17   S    
C14   O41   S    
C2    O2    S    
N4    Ni4   S    
C7    C149  S    
C71   O10   S    
C35   N5    A    
C135  H24   S    
C64   O39   S    
C103  C148  S    
C19   H110  S    
N24   Ni6   S    
C1    O1    S    
C101  C146  S    
C6    O33   S    
C52   H34   S    
C82   C114  A    
C45   H16   S    
C40   H173  S    
C89   C123  S    
C54   H42   S    
C25   H129  S    
C11   C100  S    
C39   O14   S    
C81   O20   S    
C8    C97   S    
C93   C127  S    
C124  H89   S    
C87   O26   S    
C127  C152  S    
C90   C136  S    
C98   C116  S    
C88   C138  S    
C81   C115  A    
C130  C149  S    
C71   C115  A    
N20   Ni7   S    
N7    Ni4   S    
N22   Ni5   S    
C50   O25   S    
C104  C114  S    
C23   H125  S    
C98   C141  S    
C88   C109  S    
C27   H134  S    
C1    N1    A    
C29   O4    S    
C28   H137  S    
C34   H158  S    
C43   O18   S    
C7    C148  S    
C106  C110  A    
C5    C146  S    
C155  C160  S    
N21   Ni8   S    
C156  C159  S    
C34   O9    S    
C117  O45   S    
C22   H121  S    
C5    C93   S    
C96   C133  S    
C15   C133  S    
C77   O16   S    
C39   H171  S    
C32   H151  S    
N5    Ni1   S    
C30   O5    S    
C64   H73   S    
C18   H108  S    
N14   Ni6   S    
C19   H113  S    
C65   O40   S    
C27   O2    S    
C70   O9    S    
C78   C122  A    
C20   H114  S    
C37   O11   S    
N1    Ni1   S    
C36   H161  S    
C24   C105  A    
C51   O26   S    
C45   O20   S    
C51   H32   S    
C57   N7    A    
