data_mof_unit_35875.cif
_audit_creation_date              2012-12-11T15:17:42-0500
_audit_creation_method            fapswitch 2.2
_symmetry_space_group_name_H-M    P1
_symmetry_Int_Tables_number       1
_space_group_crystal_system       triclinic
_cell_length_a                    7.016149
_cell_length_b                    19.930395
_cell_length_c                    22.362388
_cell_angle_alpha                 90.01209
_cell_angle_beta                  90.449644
_cell_angle_gamma                 89.677301
_cell_volume                      3126.89011831

loop_
_atom_site_label
_atom_site_type_symbol
_atom_type_description
_atom_site_fract_x
_atom_site_fract_y
_atom_site_fract_z
_atom_type_partial_charge
O1    O     O_R   0.620180 0.810610 0.187990 -0.549374
O2    O     O_R   0.379820 0.189390 0.812010 -0.541523
O3    O     O_R   0.379820 0.189390 0.687990 -0.543158
O4    O     O_R   0.620180 0.810610 0.312010 -0.536373
O5    O     O_R   0.120180 0.689390 0.312010 -0.541127
O6    O     O_R   0.879820 0.310610 0.687990 -0.530482
O7    O     O_R   0.879820 0.310610 0.812010 -0.542814
O8    O     O_R   0.120180 0.689390 0.187990 -0.533063
O9    O     O_R   0.290420 0.818570 0.311590 -0.552112
O10   O     O_R   0.709580 0.181430 0.688410 -0.535390
O11   O     O_R   0.709580 0.181430 0.811590 -0.549129
O12   O     O_R   0.290420 0.818570 0.188410 -0.531991
O13   O     O_R   0.790420 0.681430 0.188410 -0.544268
O14   O     O_R   0.209580 0.318570 0.811590 -0.544266
O15   O     O_R   0.209580 0.318570 0.688410 -0.549492
O16   O     O_R   0.790420 0.681430 0.311590 -0.545587
C1    C     C_R   0.458310 0.830309 0.334746 0.722462
C2    C     C_R   0.540632 0.166448 0.667496 0.728960
C3    C     C_R   0.542376 0.169749 0.834809 0.718118
C4    C     C_R   0.458422 0.833515 0.167230 0.743567
C5    C     C_R   0.958724 0.666950 0.167062 0.725522
C6    C     C_R   0.041605 0.331186 0.834019 0.715807
C7    C     C_R   0.040424 0.332969 0.666856 0.736867
C8    C     C_R   0.959513 0.668803 0.333896 0.717347
H1    H     H_    0.089773 0.463750 0.675770 0.139719
H2    H     H_    0.936475 0.540519 0.327548 0.143724
H3    H     H_    0.026211 0.539562 0.175497 0.136427
H4    H     H_    0.972808 0.457781 0.825719 0.137698
H5    H     H_    0.497440 0.041163 0.826088 0.136040
H6    H     H_    0.568448 0.959735 0.175995 0.140197
H7    H     H_    0.392928 0.958047 0.329344 0.144718
H8    H     H_    0.562162 0.037084 0.676444 0.133904
H9    H     H_    0.019207 0.668458 0.565693 0.145972
H10   H     H_    0.981984 0.338251 0.439473 0.145877
H11   H     H_    0.137128 0.339596 0.062683 0.151149
H12   H     H_    0.866417 0.657447 0.937418 0.147810
H13   H     H_    0.388240 0.841897 0.940544 0.145461
H14   H     H_    0.643518 0.161925 0.062261 0.148628
H15   H     H_    0.396462 0.160861 0.441782 0.149348
H16   H     H_    0.535249 0.832450 0.564996 0.142745
O17   O     O_3   0.453640 0.707610 0.250000 -0.369145
O18   O     O_3   0.546360 0.292390 0.750000 -0.369969
O19   O     O_3   0.953640 0.792390 0.250000 -0.372888
O20   O     O_3   0.046360 0.207610 0.750000 -0.371112
V1    V     V_3+5 0.178800 0.757860 0.250000 1.400463
V2    V     V_3+5 0.821200 0.242140 0.750000 1.402865
V3    V     V_3+5 0.678800 0.742140 0.250000 1.389408
V4    V     V_3+5 0.321200 0.257860 0.750000 1.386937
C9    C     C_R   0.989594 0.361982 0.557607 0.243360
C10   C     C_R   0.997899 0.646921 0.446068 0.247541
C11   C     C_R   0.944835 0.641049 0.054788 0.258637
C12   C     C_R   0.052607 0.356002 0.946293 0.236933
C13   C     C_R   0.550077 0.144215 0.946891 0.242852
C14   C     C_R   0.421437 0.864761 0.058223 0.242793
C15   C     C_R   0.499686 0.854313 0.446493 0.250463
C16   C     C_R   0.498942 0.140555 0.556425 0.255439
C17   C     C_R   0.031005 0.381830 0.617005 -0.097113
C18   C     C_R   0.970336 0.624124 0.386028 -0.103751
C19   C     C_R   0.967756 0.620539 0.115653 -0.090415
C20   C     C_R   0.032540 0.376992 0.885507 -0.099633
C21   C     C_R   0.536214 0.123179 0.886062 -0.100954
C22   C     C_R   0.469613 0.882473 0.117555 -0.099354
C23   C     C_R   0.463057 0.876008 0.386713 -0.106995
C24   C     C_R   0.528975 0.119540 0.616656 -0.088055
C25   C     C_R   0.059863 0.449840 0.629830 -0.265289
C26   C     C_R   0.958457 0.555677 0.373643 -0.261551
C27   C     C_R   0.008793 0.553342 0.128895 -0.268466
C28   C     C_R   0.993904 0.444216 0.872241 -0.252727
C29   C     C_R   0.508098 0.055369 0.872744 -0.262480
C30   C     C_R   0.535107 0.947281 0.129950 -0.265571
C31   C     C_R   0.425667 0.943688 0.375035 -0.258308
C32   C     C_R   0.543235 0.051103 0.629985 -0.273504
C33   C     C_R   0.040897 0.499458 0.585089 0.049620
C34   C     C_R   0.976511 0.507244 0.418698 0.051034
C35   C     C_R   0.028866 0.504653 0.083787 0.046339
C36   C     C_R   0.976974 0.492932 0.917247 0.049880
C37   C     C_R   0.487339 0.007073 0.918053 0.041134
C38   C     C_R   0.548457 0.996197 0.084581 0.050239
C39   C     C_R   0.435911 0.992528 0.420181 0.051423
C40   C     C_R   0.531651 0.001606 0.585167 0.043146
C41   C     C_R   0.014065 0.479403 0.524950 -0.013294
C42   C     C_R   0.001689 0.528153 0.478688 -0.017814
C43   C     C_R   0.995181 0.523176 0.023585 -0.015842
C44   C     C_R   0.007249 0.474122 0.977536 -0.016970
C45   C     C_R   0.519788 0.026194 0.978217 -0.014262
C46   C     C_R   0.508142 0.977848 0.024631 -0.016489
C47   C     C_R   0.476116 0.972436 0.479646 -0.017542
C48   C     C_R   0.491956 0.021480 0.525601 -0.014021
C49   C     C_R   0.995292 0.410452 0.511097 0.001160
C50   C     C_R   0.010559 0.597598 0.492603 0.004189
C51   C     C_R   0.949987 0.590782 0.009246 -0.000574
C52   C     C_R   0.049214 0.406267 0.991868 0.003044
C53   C     C_R   0.557869 0.094121 0.992284 0.003968
C54   C     C_R   0.451430 0.911509 0.011204 -0.002181
C55   C     C_R   0.501526 0.903417 0.493158 0.002586
C56   C     C_R   0.470988 0.090548 0.511644 0.003108
C57   C     C_R   0.046781 0.568499 0.599500 0.304898
C58   C     C_R   0.967693 0.438213 0.404554 0.304294
C59   C     C_R   0.080772 0.437746 0.098046 0.305735
C60   C     C_R   0.927241 0.559820 0.902817 0.301219
C61   C     C_R   0.436871 0.940067 0.904163 0.306656
C62   C     C_R   0.598449 0.063182 0.098218 0.303318
C63   C     C_R   0.404733 0.061017 0.406743 0.298336
C64   C     C_R   0.553813 0.932639 0.599218 0.305005
C65   C     C_R   0.027430 0.616305 0.553341 -0.225745
C66   C     C_R   0.979661 0.390907 0.450859 -0.239629
C67   C     C_R   0.090267 0.389798 0.051880 -0.222706
C68   C     C_R   0.910540 0.607210 0.949028 -0.230093
C69   C     C_R   0.422475 0.893230 0.951039 -0.230893
C70   C     C_R   0.600957 0.111181 0.051972 -0.229041
C71   C     C_R   0.421723 0.108808 0.452614 -0.232865
C72   C     C_R   0.530393 0.884797 0.553366 -0.220713
N1    N     N_2   0.061670 0.588724 0.660871 -0.521592
H17   H     H_    0.956667 0.570214 0.688248 0.255567
C73   C     C_3   0.124775 0.655727 0.675918 -0.571828
H18   H     H_    0.161873 0.657766 0.724242 0.201892
H19   H     H_    0.008860 0.692717 0.667175 0.186824
H20   H     H_    0.253941 0.668855 0.650063 0.206031
N2    N     N_2   0.950707 0.417358 0.343479 -0.518703
H21   H     H_    0.063462 0.430534 0.316684 0.256074
C74   C     C_3   0.864573 0.353354 0.329408 -0.566729
H22   H     H_    0.823567 0.352475 0.281371 0.211129
H23   H     H_    0.733627 0.345878 0.356188 0.204706
H24   H     H_    0.967842 0.311908 0.337823 0.181146
N3    N     N_2   0.129345 0.420433 0.158569 -0.517900
H25   H     H_    0.233346 0.450041 0.177717 0.254358
C75   C     C_3   0.137831 0.350762 0.176839 -0.576426
H26   H     H_    0.150734 0.347988 0.226270 0.203767
H27   H     H_    0.264864 0.325708 0.157382 0.189987
H28   H     H_    0.005435 0.324335 0.163173 0.202118
N4    N     N_2   0.899222 0.578682 0.841511 -0.522779
H29   H     H_    0.017795 0.572605 0.815034 0.252730
C76   C     C_3   0.783057 0.636670 0.826603 -0.568037
H30   H     H_    0.748375 0.635756 0.778081 0.204637
H31   H     H_    0.862174 0.683587 0.836355 0.182870
H32   H     H_    0.647113 0.635705 0.851746 0.209086
N5    N     N_2   0.391252 0.921955 0.843554 -0.510906
H33   H     H_    0.296882 0.954245 0.822549 0.257380
C77   C     C_3   0.361431 0.852346 0.827577 -0.566990
H34   H     H_    0.341115 0.848266 0.778455 0.210091
H35   H     H_    0.230836 0.832993 0.849261 0.186708
H36   H     H_    0.487707 0.821555 0.840451 0.199950
N6    N     N_2   0.646258 0.081082 0.158494 -0.522031
H37   H     H_    0.762514 0.055898 0.176154 0.254532
C78   C     C_3   0.626431 0.150031 0.177999 -0.568933
H38   H     H_    0.632801 0.151929 0.227598 0.201374
H39   H     H_    0.486599 0.170996 0.163334 0.204523
H40   H     H_    0.744673 0.180829 0.160237 0.186230
N7    N     N_2   0.364102 0.081062 0.346444 -0.518937
H41   H     H_    0.472235 0.071327 0.316633 0.256690
C79   C     C_3   0.259783 0.142704 0.335079 -0.565090
H42   H     H_    0.207891 0.142910 0.288047 0.206141
H43   H     H_    0.354308 0.186683 0.341510 0.181029
H44   H     H_    0.134172 0.146483 0.364887 0.205899
N8    N     N_2   0.606264 0.912800 0.658947 -0.509965
H45   H     H_    0.717772 0.939737 0.677027 0.257379
C80   C     C_3   0.612868 0.842484 0.675296 -0.571256
H46   H     H_    0.646940 0.837788 0.723681 0.206680
H47   H     H_    0.726399 0.816038 0.649983 0.188161
H48   H     H_    0.472156 0.818771 0.667076 0.200360
N9    N     N_2   0.907369 0.297886 0.546069 -0.546690
H49   H     H_    0.807763 0.298472 0.512104 0.257874
C81   C     C_3   0.032542 0.240416 0.542753 -0.548588
H50   H     H_    0.153596 0.250953 0.512629 0.218846
H51   H     H_    0.953297 0.196963 0.524136 0.196040
H52   H     H_    0.079827 0.225575 0.588195 0.211626
N10   N     N_2   0.018596 0.716863 0.461832 -0.560899
H53   H     H_    0.121223 0.727993 0.493356 0.258588
C82   C     C_3   0.970728 0.773291 0.423567 -0.508643
H54   H     H_    0.951503 0.818931 0.451406 0.193128
H55   H     H_    0.838913 0.764820 0.398083 0.228464
H56   H     H_    0.084985 0.784013 0.391979 0.199766
N11   N     N_2   0.929368 0.710180 0.036247 -0.560137
H57   H     H_    0.010132 0.722778 0.999749 0.248754
C83   C     C_3   0.894909 0.766098 0.075929 -0.519334
H58   H     H_    0.867319 0.812130 0.049159 0.183106
H59   H     H_    0.019645 0.775426 0.105231 0.233342
H60   H     H_    0.767683 0.757058 0.102621 0.213353
N12   N     N_2   0.060617 0.286540 0.964594 -0.558933
H61   H     H_    0.977288 0.274041 0.000631 0.254333
C84   C     C_3   0.101439 0.230437 0.925581 -0.486424
H62   H     H_    0.130438 0.185033 0.953008 0.194218
H63   H     H_    0.227861 0.240580 0.898758 0.231681
H64   H     H_    0.980756 0.218592 0.895737 0.182939
N13   N     N_2   0.516343 0.212598 0.964697 -0.558919
H65   H     H_    0.441797 0.221413 0.003502 0.269492
C85   C     C_3   0.598380 0.270991 0.936703 -0.502818
H66   H     H_    0.670970 0.301699 0.971204 0.194178
H67   H     H_    0.484894 0.302823 0.916643 0.200303
H68   H     H_    0.700176 0.257748 0.901875 0.205009
N14   N     N_2   0.318605 0.804491 0.047100 -0.544077
H69   H     H_    0.212249 0.809849 0.015489 0.256104
C86   C     C_3   0.429350 0.743750 0.039814 -0.547823
H70   H     H_    0.552082 0.752444 0.009804 0.215662
H71   H     H_    0.339828 0.704018 0.019399 0.194423
H72   H     H_    0.475730 0.724740 0.084130 0.210766
N15   N     N_2   0.560097 0.786820 0.459917 -0.560849
H73   H     H_    0.659152 0.778855 0.493384 0.274313
C87   C     C_3   0.474698 0.726672 0.435578 -0.506557
H74   H     H_    0.425879 0.694396 0.472763 0.189718
H75   H     H_    0.582088 0.697528 0.410381 0.204555
H76   H     H_    0.354674 0.737308 0.405528 0.202054
N16   N     N_2   0.512065 0.209333 0.537326 -0.564513
H77   H     H_    0.595171 0.216946 0.500217 0.249011
C88   C     C_3   0.494177 0.267201 0.576050 -0.511976
H78   H     H_    0.482532 0.313383 0.548449 0.183089
H79   H     H_    0.619425 0.271993 0.605935 0.235720
H80   H     H_    0.364345 0.264435 0.602618 0.210798

loop_
_geom_bond_atom_site_label_1
_geom_bond_atom_site_label_2
_ccdc_geom_bond_type
N16   H77   S    
C48   C56   A    
O9    V1    S    
C80   H46   S    
C30   C38   A    
C77   H35   S    
C82   H54   S    
C29   C37   A    
C81   H50   S    
C47   C48   A    
C24   C32   A    
C35   C43   A    
O11   V2    S    
C36   C44   A    
C31   C39   A    
N9    H49   S    
C60   N4    S    
C25   C33   A    
C58   N2    S    
H8    C32   S    
C16   N16   S    
C15   N15   S    
N11   H57   S    
C33   C57   A    
N5    C77   S    
O11   C3    A    
N9    C81   S    
C10   C50   A    
C40   C64   A    
C88   H80   S    
C81   H51   S    
O10   C2    A    
C5    C19   S    
N2    C74   S    
C55   C72   A    
N7    C79   S    
C6    C20   S    
C77   H36   S    
N13   C85   S    
C38   C62   A    
C61   C69   A    
C73   H18   S    
C26   C34   A    
N6    C78   S    
O3    V4    S    
C9    C17   A    
C22   C30   A    
O3    C2    A    
C63   C71   A    
O18   V2    S    
C79   H44   S    
C11   N11   S    
C13   N13   S    
O8    V1    S    
C85   H68   S    
C12   C20   A    
C11   C51   A    
C13   C21   A    
C18   C26   A    
C83   H58   S    
C73   H19   S    
C47   C55   A    
C49   C66   A    
O10   V2    S    
C76   H32   S    
C79   H42   S    
C16   C24   A    
H14   C70   S    
C46   C54   A    
H13   C69   S    
O6    V2    S    
C53   C70   A    
C41   C49   A    
C38   C46   A    
O15   C7    A    
C37   C45   A    
C87   H74   S    
C80   H47   S    
C39   C47   A    
C82   H55   S    
C39   C63   A    
C45   C53   A    
O15   V4    S    
C34   C42   A    
O16   V3    S    
C33   C41   A    
H6    C30   S    
O20   V2    S    
C78   H38   S    
C83   H60   S    
H5    C29   S    
C88   H79   S    
C56   C71   A    
C60   C68   A    
C85   H67   S    
C14   N14   S    
C78   H39   S    
C13   C53   A    
N14   H69   S    
H2    C26   S    
O7    V2    S    
C36   C60   A    
C81   H52   S    
H9    C65   S    
C75   H28   S    
C83   H59   S    
C84   H63   S    
C17   C25   A    
N10   H53   S    
O13   V3    S    
C61   N5    S    
O1    V3    S    
O14   V4    S    
C14   C22   A    
C86   H71   S    
C45   C46   A    
O5    V1    S    
C41   C42   A    
C32   C40   A    
N10   C82   S    
C15   C23   A    
C10   C18   A    
C84   H62   S    
N14   C86   S    
C14   C54   A    
C87   H76   S    
N16   C88   S    
C19   C27   A    
C43   C44   A    
C77   H34   S    
C73   H20   S    
O12   C4    A    
C75   H27   S    
C35   C59   A    
O8    C5    A    
O17   V3    S    
O13   C5    A    
H3    C27   S    
O18   V4    S    
N3    C75   S    
N8    C80   S    
O19   V1    S    
C74   H22   S    
N11   C83   S    
C74   H24   S    
C7    C17   S    
O4    C1    A    
C15   C55   A    
C23   C31   A    
C86   H70   S    
C80   H48   S    
C76   H30   S    
C82   H56   S    
C62   C70   A    
C27   C35   A    
C62   N6    S    
C57   N1    S    
C75   H26   S    
C10   N10   S    
C78   H40   S    
C59   C67   A    
C64   C72   A    
N1    H17   S    
C84   H64   S    
O9    C1    A    
C16   C56   A    
C88   H78   S    
O1    C4    A    
C34   C58   A    
H4    C28   S    
O2    C3    A    
C9    N9    S    
C51   C68   A    
C50   C65   A    
C9    C49   A    
O12   V1    S    
N4    C76   S    
C58   C66   A    
N2    H21   S    
C28   C36   A    
O7    C6    A    
C43   C51   A    
N5    H33   S    
C54   C69   A    
C42   C50   A    
C21   C29   A    
O14   C6    A    
N15   C87   S    
N6    H37   S    
C12   N12   S    
C57   C65   A    
C85   H66   S    
C40   C48   A    
N7    H41   S    
C1    C23   S    
C86   H72   S    
H16   C72   S    
C2    C24   S    
N13   H65   S    
N3    H25   S    
O5    C8    A    
C3    C21   S    
O6    C7    A    
H15   C71   S    
C37   C61   A    
H10   C66   S    
C79   H43   S    
C64   N8    S    
C4    C22   S    
N15   H73   S    
C8    C18   S    
C87   H75   S    
C74   H23   S    
H11   C67   S    
C63   N7    S    
N12   H61   S    
O20   V4    S    
C11   C19   A    
H12   C68   S    
C20   C28   A    
O16   C8    A    
O2    V4    S    
C59   N3    S    
N8    H45   S    
C76   H31   S    
H1    C25   S    
O17   V1    S    
C52   C67   A    
C44   C52   A    
N1    C73   S    
O19   V3    S    
C12   C52   A    
N4    H29   S    
H7    C31   S    
N12   C84   S    
O4    V3    S    
