data_mof_unit_46739.cif
_audit_creation_date              2012-10-26T19:23:09-0400
_audit_creation_method            fapswitch 2.2
_symmetry_space_group_name_H-M    P1
_symmetry_Int_Tables_number       1
_space_group_crystal_system       triclinic
_cell_length_a                    17.287526
_cell_length_b                    13.05177
_cell_length_c                    11.689557
_cell_angle_alpha                 100.634044
_cell_angle_beta                  90.093889
_cell_angle_gamma                 91.817139
_cell_volume                      2590.87114823

loop_
_atom_site_label
_atom_site_type_symbol
_atom_type_description
_atom_site_fract_x
_atom_site_fract_y
_atom_site_fract_z
_atom_type_partial_charge
C1    C     C_R   0.498522 0.298764 0.477788 0.563648
C2    C     C_R   0.520347 0.862003 0.441080 0.339573
C3    C     C_R   0.485459 0.030301 0.551544 -0.113793
C4    C     C_R   0.513609 0.969258 0.448338 -0.116336
C5    C     C_R   0.421139 0.409179 0.029341 0.396974
C6    C     C_R   0.575191 0.595825 0.971947 0.369206
C7    C     C_R   0.428323 0.419023 0.150743 0.432722
C8    C     C_R   0.567351 0.587095 0.850745 0.468313
C9    C     C_R   0.534028 0.539382 0.154442 0.517889
C10   C     C_R   0.466152 0.460146 0.845424 0.532686
C11   C     C_R   0.527585 0.534464 0.032101 -0.167567
C12   C     C_R   0.501654 0.701174 0.522092 0.603295
C13   C     C_R   0.471270 0.466789 0.968254 -0.167474
C14   C     C_R   0.351166 0.501876 0.514863 0.605411
C15   C     C_R   0.649810 0.495465 0.484305 0.581809
C16   C     C_R   0.267773 0.508653 0.521280 -0.053604
C17   C     C_R   0.734547 0.480972 0.473466 -0.076759
C18   C     C_R   0.233038 0.595805 0.490219 0.213787
C19   C     C_R   0.781343 0.486708 0.574406 0.210817
C20   C     C_R   0.152069 0.600671 0.491901 0.352710
C21   C     C_R   0.859199 0.461299 0.562435 0.336844
C22   C     C_R   0.106963 0.516022 0.515029 0.009524
C23   C     C_R   0.500521 0.815113 0.536081 -0.056545
C24   C     C_R   0.894418 0.448322 0.453692 0.015242
C25   C     C_R   0.142158 0.428958 0.544534 0.368840
C26   C     C_R   0.849706 0.444759 0.353541 0.346503
C27   C     C_R   0.222618 0.424407 0.546591 0.225779
C28   C     C_R   0.769241 0.455309 0.361976 0.214643
C29   C     C_2   0.022668 0.520883 0.512314 0.501641
C30   C     C_2   0.978944 0.445116 0.446904 0.508016
C31   C     C_3   0.264915 0.697974 0.354469 0.047201
C32   C     C_3   0.337678 0.747136 0.310118 -0.258697
C33   C     C_3   0.322958 0.782109 0.194681 -0.467194
C34   C     C_R   0.498929 0.184686 0.463586 -0.074612
C35   C     C_3   0.783828 0.602323 0.749557 0.073888
C36   C     C_3   0.793052 0.589743 0.876248 -0.201247
C37   C     C_3   0.819877 0.691802 0.953922 -0.395485
C38   C     C_3   0.718549 0.340671 0.206827 0.060259
C39   C     C_3   0.657482 0.328193 0.110148 -0.235689
C40   C     C_3   0.655277 0.218236 0.037527 -0.473446
C41   C     C_3   0.266583 0.262063 0.475722 0.050187
C42   C     C_3   0.270682 0.155154 0.510827 -0.203752
C43   C     C_3   0.289123 0.069991 0.407187 -0.485154
C44   C     C_3   0.514556 0.876753 0.833930 0.056891
C45   C     C_R   0.532923 0.016239 0.353202 0.426337
C46   C     C_3   0.600749 0.889325 0.802483 -0.281713
C47   C     C_3   0.651938 0.910194 0.911217 -0.420648
C48   C     C_3   0.468542 0.165249 0.194135 0.041581
C49   C     C_3   0.447008 0.058626 0.119939 -0.300172
C50   C     C_3   0.381656 0.067213 0.034638 -0.414265
C51   C     C_R   0.465615 0.983150 0.646550 0.401629
C52   C     C_R   0.521085 0.121887 0.357658 0.195938
C53   C     C_R   0.477985 0.876945 0.641991 0.221549
C54   C     C_R   0.479838 0.137916 0.559166 0.343960
Cu1   Cu    Cu3+1 0.505800 0.507690 0.615350 1.200273
Cu2   Cu    Cu3+1 0.494200 0.492310 0.384650 1.128967
F1    F     F_    0.612453 0.647890 0.795105 -0.638793
F2    F     F_    0.117151 0.687246 0.471081 -0.565701
F3    F     F_    0.546743 0.802834 0.341616 -0.491010
F4    F     F_    0.456017 0.197562 0.660016 -0.502010
F5    F     F_    0.562825 0.960226 0.254483 -0.544099
F6    F     F_    0.432976 0.039087 0.742863 -0.571096
F7    F     F_    0.412405 0.395225 0.782656 -0.461840
F8    F     F_    0.588883 0.602639 0.216752 -0.456525
F9    F     F_    0.377033 0.366573 0.207905 -0.619009
F10   F     F_    0.364488 0.344660 0.972991 -0.505630
F11   F     F_    0.628474 0.665102 0.029691 -0.560050
F12   F     F_    0.012005 0.366654 0.371737 -0.568164
F13   F     F_    0.989378 0.606603 0.574842 -0.583167
F14   F     F_    0.098532 0.349092 0.573086 -0.529090
F15   F     F_    0.884328 0.433637 0.247910 -0.557172
F16   F     F_    0.901415 0.452811 0.658362 -0.565614
H1    H     H_    0.217561 0.754092 0.358511 0.221316
H2    H     H_    0.737113 0.562856 0.908684 0.229820
H3    H     H_    0.836156 0.529313 0.881318 0.228999
H4    H     H_    0.876837 0.718603 0.924511 0.172294
H5    H     H_    0.825870 0.679677 0.045032 0.219044
H6    H     H_    0.776963 0.752895 0.951695 0.184486
H7    H     H_    0.700206 0.290195 0.270020 0.136498
H8    H     H_    0.774696 0.313963 0.167622 0.205047
H9    H     H_    0.599881 0.343946 0.149952 0.176717
H10   H     H_    0.670017 0.385260 0.052219 0.192894
H11   H     H_    0.710802 0.202552 0.990878 0.172918
H12   H     H_    0.248886 0.625413 0.290930 0.152876
H13   H     H_    0.607600 0.210388 0.972379 0.169098
H14   H     H_    0.645091 0.159609 0.094068 0.205043
H15   H     H_    0.321585 0.279553 0.432840 0.145235
H16   H     H_    0.218004 0.258196 0.411720 0.170271
H17   H     H_    0.315796 0.157802 0.579003 0.260788
H18   H     H_    0.214207 0.135416 0.548033 0.229079
H19   H     H_    0.244055 0.064894 0.338371 0.178122
H20   H     H_    0.290859 0.993653 0.435992 0.171959
H21   H     H_    0.346353 0.086362 0.370531 0.115985
H22   H     H_    0.510035 0.825186 0.899540 0.184073
H23   H     H_    0.357885 0.815714 0.375537 0.172716
H24   H     H_    0.492841 0.952946 0.876778 0.178473
H25   H     H_    0.619912 0.818472 0.743214 0.232180
H26   H     H_    0.608707 0.956214 0.756555 0.148950
H27   H     H_    0.634017 0.981835 0.970569 0.162434
H28   H     H_    0.713155 0.921062 0.886156 0.155351
H29   H     H_    0.647591 0.843464 0.957712 0.252547
H30   H     H_    0.479542 0.220831 0.134393 0.180452
H31   H     H_    0.418635 0.194124 0.249796 0.176716
H32   H     H_    0.498696 0.026960 0.071365 0.203183
H33   H     H_    0.427185 0.003807 0.176800 0.175777
H34   H     H_    0.383833 0.689070 0.297337 0.219795
H35   H     H_    0.329683 0.099208 0.082543 0.189774
H36   H     H_    0.366060 0.988716 0.983783 0.181706
H37   H     H_    0.400141 0.118894 0.973455 0.259192
H38   H     H_    0.302504 0.714841 0.127744 0.179038
H39   H     H_    0.377594 0.814772 0.164137 0.182304
H40   H     H_    0.279025 0.843393 0.205680 0.157752
H41   H     H_    0.745388 0.667730 0.744170 0.189719
H42   H     H_    0.841495 0.625401 0.717951 0.187127
N1    N     N_R   0.514530 0.519260 0.788680 -0.269215
N2    N     N_R   0.485470 0.480740 0.211320 -0.300170
O1    O     O_R   0.504120 0.354440 0.581590 -0.413816
O2    O     O_3   0.749890 0.508891 0.684808 -0.502448
O3    O     O_3   0.725289 0.446841 0.261267 -0.469895
O4    O     O_3   0.256585 0.338564 0.576966 -0.462239
O5    O     O_3   0.465782 0.831075 0.738808 -0.513638
O6    O     O_3   0.537426 0.163533 0.259609 -0.550246
O7    O     O_R   0.495880 0.645560 0.418410 -0.438436
O8    O     O_R   0.494320 0.341440 0.386760 -0.499451
O9    O     O_R   0.505680 0.658560 0.613240 -0.446739
O10   O     O_R   0.391870 0.507230 0.608700 -0.434410
O11   O     O_R   0.608130 0.492770 0.391300 -0.426527
O12   O     O_R   0.382070 0.494240 0.413880 -0.479895
O13   O     O_R   0.617930 0.505760 0.586120 -0.442317
O14   O     O_3   0.279775 0.678222 0.467469 -0.539718

loop_
_geom_bond_atom_site_label_1
_geom_bond_atom_site_label_2
_ccdc_geom_bond_type
C40   H13   S    
Cu1   Cu2   S    
C47   H29   S    
C22   C29   S    
C9    F8    S    
C41   C42   S    
C10   F7    S    
C49   H32   S    
C14   O12   A    
C54   F4    S    
C27   O4    S    
C12   C23   S    
C38   H8    S    
Cu2   O8    S    
C36   C37   S    
C19   C21   A    
C24   C26   A    
C31   O14   S    
C48   O6    S    
C38   C39   S    
C3    C54   A    
C31   H1    S    
C38   H7    S    
C44   O5    S    
C47   H27   S    
C35   H42   S    
Cu2   O11   S    
C40   H14   S    
C8    N1    A    
C17   C19   A    
C52   O6    S    
C35   C36   S    
C19   O2    S    
Cu1   O13   S    
C22   C25   A    
C33   H39   S    
C5    C13   A    
C16   C27   A    
C46   H26   S    
C32   H34   S    
C50   H36   S    
C26   F15   S    
C9    N2    A    
C40   H11   S    
C51   F6    S    
C44   C46   S    
C1    C34   S    
C23   C53   A    
C29   F13   S    
C4    C45   A    
C41   H15   S    
C21   F16   S    
Cu2   O7    S    
Cu1   O9    S    
C39   H9    S    
C39   C40   S    
C5    C7    A    
C3    C51   A    
C2    F3    S    
C49   H33   S    
C12   O9    A    
C45   C52   A    
C48   H31   S    
C37   H5    S    
C28   O3    S    
C50   H37   S    
C43   H19   S    
C47   H28   S    
C42   H18   S    
C7    N2    A    
C2    C4    A    
C29   C30   D    
C44   H24   S    
C36   H3    S    
C8    F1    S    
C7    F9    S    
C31   C32   S    
C15   O13   A    
Cu1   O10   S    
C48   H30   S    
Cu2   N2    S    
C33   H40   S    
C1    O1    A    
C9    C11   A    
C36   H2    S    
C38   O3    S    
C48   C49   S    
C37   H4    S    
C20   C22   A    
C34   C54   A    
C50   H35   S    
C14   C16   S    
C18   O14   S    
C42   C43   S    
C20   F2    S    
C3    C4    A    
C6    C11   A    
Cu1   O1    S    
C15   C17   S    
C41   H16   S    
C46   C47   S    
C6    F11   S    
C17   C28   A    
C34   C52   A    
C46   H25   S    
C39   H10   S    
C5    F10   S    
C10   C13   A    
C6    C8    A    
C33   H38   S    
C25   C27   A    
C37   H6    S    
C26   C28   A    
C43   H20   S    
C14   O10   A    
C42   H17   S    
C32   C33   S    
C1    O8    A    
C53   O5    S    
C11   C13   A    
C12   O7    A    
Cu1   N1    S    
C45   F5    S    
C43   H21   S    
C35   H41   S    
C18   C20   A    
Cu2   O12   S    
C41   O4    S    
C24   C30   S    
C44   H22   S    
C31   H12   S    
C32   H23   S    
C16   C18   A    
C49   C50   S    
C21   C24   A    
C2    C23   A    
C35   O2    S    
C15   O11   A    
C25   F14   S    
C51   C53   A    
C30   F12   S    
C10   N1    A    
