data_mof_unit_24060.cif
_audit_creation_date              2012-12-10T17:33:01-0500
_audit_creation_method            fapswitch 2.2
_symmetry_space_group_name_H-M    P1
_symmetry_Int_Tables_number       1
_space_group_crystal_system       triclinic
_cell_length_a                    12.31149
_cell_length_b                    13.344078
_cell_length_c                    14.392277
_cell_angle_alpha                 92.5994
_cell_angle_beta                  107.32012
_cell_angle_gamma                 117.367636
_cell_volume                      1957.74636709

loop_
_atom_site_label
_atom_site_type_symbol
_atom_type_description
_atom_site_fract_x
_atom_site_fract_y
_atom_site_fract_z
_atom_type_partial_charge
C1    C     C_R   0.648221 0.712676 0.503865 0.801333
C2    C     C_R   0.851214 0.498059 0.914496 0.099243
C3    C     C_R   0.783677 0.486535 0.981465 0.166395
C4    C     C_R   0.969514 0.492227 0.944693 -0.056070
C5    C     C_R   0.028113 0.493908 0.046766 0.006155
C6    C     C_R   0.953526 0.475378 0.108856 -0.145069
C7    C     C_R   0.833923 0.472029 0.076747 -0.268426
C8    C     C_R   0.027087 0.476886 0.876588 0.423839
C9    C     C_R   0.151302 0.486955 0.912307 -0.288649
C10   C     C_R   0.210917 0.492768 0.011979 0.034621
C11   C     C_R   0.153657 0.502055 0.081301 -0.026603
C12   C     C_R   0.618291 0.516157 0.686026 0.798913
C13   C     C_R   0.323754 0.482191 0.041863 -0.179124
C14   C     C_R   0.377893 0.476709 0.139692 -0.273003
C15   C     C_R   0.225808 0.520285 0.183227 0.376557
C16   C     C_R   0.145291 0.967862 0.359928 -0.200717
C17   C     C_R   0.239713 0.163225 0.451368 -0.052500
C18   C     C_R   0.696727 0.915005 0.528099 -0.332098
C19   C     C_R   0.762847 0.030217 0.518501 0.513632
C20   C     C_R   0.870538 0.064310 0.488766 -0.261815
C21   C     C_R   0.904522 0.983764 0.458836 0.006224
C22   C     C_R   0.817670 0.864848 0.446379 0.079128
C23   C     C_R   0.342134 0.285255 0.481319 0.804580
C24   C     C_R   0.020156 0.017661 0.437598 0.101851
C25   C     C_R   0.033272 0.934497 0.384327 0.175656
C26   C     C_R   0.934021 0.819311 0.355832 -0.251326
C27   C     C_R   0.828243 0.784432 0.387335 -0.187146
C28   C     C_R   0.126054 0.130774 0.472954 -0.260333
C29   C     C_R   0.247391 0.081834 0.392418 -0.213541
C30   C     C_R   0.722277 0.831772 0.491968 -0.151520
C31   C     C_R   0.252663 0.683470 0.659087 -0.306033
C32   C     C_R   0.656010 0.345605 0.363466 0.052051
C33   C     C_R   0.735014 0.313813 0.332749 -0.237227
C34   C     C_R   0.385783 0.489415 0.314746 0.813852
C35   C     C_R   0.870328 0.373014 0.383086 -0.187188
C36   C     C_R   0.928837 0.465620 0.465272 -0.015799
C37   C     C_R   0.843652 0.495225 0.493947 0.301953
C38   C     C_R   0.067912 0.528908 0.520847 -0.052301
C39   C     C_R   0.118237 0.620849 0.602519 0.189968
C40   C     C_R   0.034274 0.649706 0.627851 -0.241104
C41   C     C_R   0.900568 0.588627 0.574849 -0.163085
C42   C     C_R   0.160137 0.504277 0.500596 0.044756
C43   C     C_R   0.337691 0.654921 0.635290 0.032698
C44   C     C_R   0.678678 0.515261 0.790318 -0.078688
C45   C     C_R   0.328351 0.494094 0.210953 -0.141501
C46   C     C_R   0.665254 0.488237 0.952142 -0.202304
C47   C     C_R   0.612101 0.500922 0.856600 -0.196292
C48   C     C_R   0.800043 0.519263 0.821150 -0.211903
Cu1   Cu    Cu3+1 0.416420 0.526630 0.522910 0.937661
Cu2   Cu    Cu3+1 0.583580 0.473370 0.477090 0.911923
H1    H     H_    0.780668 0.458428 0.127210 0.145646
H2    H     H_    0.366049 0.472048 0.988389 0.138101
H3    H     H_    0.940050 0.755323 0.311671 0.145260
H4    H     H_    0.153587 0.905903 0.315461 0.135828
H5    H     H_    0.923033 0.153817 0.484529 0.148577
H6    H     H_    0.441546 0.702984 0.678626 0.128689
H7    H     H_    0.291681 0.753931 0.721588 0.137046
H8    H     H_    0.551217 0.299392 0.323568 0.121352
H9    H     H_    0.926635 0.344750 0.356030 0.134090
H10   H     H_    0.460350 0.461608 0.159905 0.168820
H11   H     H_    0.518168 0.497646 0.834145 0.151341
H12   H     H_    0.981733 0.456319 0.181287 0.199298
N1    N     N_R   0.290690 0.566960 0.557640 -0.186124
N2    N     N_R   0.709100 0.433710 0.442970 -0.206624
O1    O     O_R   0.545970 0.684450 0.528810 -0.588002
O2    O     O_R   0.687130 0.639470 0.490120 -0.614098
O3    O     O_R   0.519670 0.535100 0.660030 -0.582979
O4    O     O_R   0.660830 0.490120 0.621340 -0.592877
O5    O     O_R   0.312870 0.360530 0.509880 -0.589577
O6    O     O_R   0.454030 0.315550 0.471190 -0.591896
O7    O     O_R   0.339170 0.509880 0.378660 -0.531869
O8    O     O_R   0.480330 0.464900 0.339970 -0.608767
H13   H     H_    0.331199 0.106361 0.370191 0.145543
H14   H     H_    0.122970 0.193965 0.520203 0.150682
H15   H     H_    0.623366 0.888729 0.562192 0.147845
O9    O     O_3   0.731885 0.114736 0.540255 -0.597203
C49   C     C_3   0.608247 0.070271 0.550235 -0.004043
H16   H     H_    0.614024 0.046247 0.623852 0.143200
H17   H     H_    0.530730 0.994900 0.488661 0.150600
C50   C     C_3   0.568035 0.162159 0.544462 -0.717932
H18   H     H_    0.555113 0.182016 0.469408 0.250033
H19   H     H_    0.474281 0.129575 0.557482 0.197986
H20   H     H_    0.642815 0.242695 0.600768 0.255948
H21   H     H_    0.753148 0.694811 0.360696 0.178194
O10   O     O_3   0.201863 0.569452 0.256088 -0.590110
C51   C     C_3   0.272193 0.690816 0.269331 0.088963
H22   H     H_    0.228878 0.718378 0.203013 0.140799
H23   H     H_    0.377844 0.723081 0.282306 0.131843
C52   C     C_3   0.264231 0.745841 0.360134 -0.779939
H24   H     H_    0.312095 0.723823 0.428055 0.265875
H25   H     H_    0.315529 0.841166 0.369328 0.179148
H26   H     H_    0.160201 0.714349 0.351020 0.243368
H27   H     H_    0.072296 0.720329 0.690016 0.141198
H28   H     H_    0.130544 0.435540 0.440298 0.136728
H29   H     H_    0.691177 0.243080 0.269511 0.140011
H30   H     H_    0.845811 0.618399 0.600499 0.198093
H31   H     H_    0.195545 0.478725 0.859827 0.158418
H32   H     H_    0.612692 0.477927 0.002729 0.128096
H33   H     H_    0.854618 0.542428 0.771950 0.200924
O11   O     O_3   0.955369 0.435762 0.775342 -0.605380
C53   C     C_3   0.933647 0.323257 0.744944 0.099973
H34   H     H_    0.827082 0.263755 0.710473 0.190095
H35   H     H_    0.967930 0.284681 0.806625 0.115779
C54   C     C_3   0.997686 0.323910 0.669150 -0.739750
H36   H     H_    0.097503 0.399890 0.692281 0.231558
H37   H     H_    0.005536 0.244616 0.661979 0.200885
H38   H     H_    0.937386 0.326309 0.595817 0.269718

loop_
_geom_bond_atom_site_label_1
_geom_bond_atom_site_label_2
_ccdc_geom_bond_type
C18   H15   S    
Cu1   N1    S    
Cu2   N2    S    
C23   O5    A    
C35   C36   A    
C32   H8    S    
C40   H27   S    
C4    C8    A    
C28   H14   S    
C54   H37   S    
C43   N1    A    
C49   H16   S    
C12   O4    A    
C26   C27   A    
C53   H34   S    
Cu1   O1    S    
C27   H21   S    
C38   C42   A    
C3    C7    A    
C20   H5    S    
C5    C6    A    
C51   H23   S    
C41   H30   S    
C29   H13   S    
C17   C29   A    
C35   H9    S    
C18   C19   A    
Cu2   O8    S    
C1    C30   S    
C11   C15   A    
C19   C20   A    
C8    C9    A    
C1    O1    A    
C18   C30   A    
C52   H25   S    
C22   C30   A    
C9    C10   A    
C44   C47   A    
C15   O10   S    
C46   H32   S    
C53   H35   S    
Cu1   O5    S    
C21   C22   A    
C37   C41   A    
C23   O6    A    
C50   H20   S    
C33   H29   S    
C54   H36   S    
C14   C45   A    
C49   H17   S    
C12   O3    A    
C24   C25   A    
C32   N2    A    
C50   H19   S    
C39   C40   A    
C51   H22   S    
C50   H18   S    
C2    C48   A    
C16   C29   A    
O10   C51   S    
C51   C52   S    
C2    C4    A    
C13   H2    S    
C1    O2    A    
C34   C45   S    
C17   C23   S    
O9    C49   S    
C52   H26   S    
Cu2   O2    S    
C31   C43   A    
C40   C41   A    
C53   C54   S    
C22   C27   A    
C15   C45   A    
C26   H3    S    
C34   O8    A    
C37   N2    A    
C49   C50   S    
C16   C25   A    
C48   H33   S    
C46   C47   A    
C19   O9    S    
C9    H31   S    
Cu1   O3    S    
C42   H28   S    
C17   C28   A    
C24   C28   A    
C4    C5    A    
C10   C13   A    
C47   H11   S    
C5    C11   A    
C6    C7    A    
C14   H10   S    
C3    C46   A    
C32   C33   A    
C6    H12   S    
C36   C38   A    
C2    C3    A    
C25   C26   A    
C7    H1    S    
C12   C44   S    
C31   H7    S    
C38   C39   A    
C34   O7    A    
O11   C53   S    
C33   C35   A    
C31   C39   A    
C8    O11   S    
C16   H4    S    
Cu2   O6    S    
C10   C11   A    
C43   H6    S    
C20   C21   A    
C36   C37   A    
Cu1   Cu2   S    
Cu1   O7    S    
C21   C24   A    
C52   H24   S    
C13   C14   A    
Cu2   O4    S    
C42   N1    A    
C54   H38   S    
C44   C48   A    
