data_mof_unit_54059.cif
_audit_creation_date              2012-12-10T17:26:11-0500
_audit_creation_method            fapswitch 2.2
_symmetry_space_group_name_H-M    P1
_symmetry_Int_Tables_number       1
_space_group_crystal_system       triclinic
_cell_length_a                    26.018585
_cell_length_b                    25.919319
_cell_length_c                    22.138608
_cell_angle_alpha                 90.079128
_cell_angle_beta                  125.733241
_cell_angle_gamma                 89.805878
_cell_volume                      12119.2152113

loop_
_atom_site_label
_atom_site_type_symbol
_atom_type_description
_atom_site_fract_x
_atom_site_fract_y
_atom_site_fract_z
_atom_type_partial_charge
C1    C     C_R   0.900284 0.750200 0.300677 0.827034
C2    C     C_R   0.099531 0.249937 0.699288 0.811767
C3    C     C_R   0.099635 0.750056 0.699348 0.835529
C4    C     C_R   0.900417 0.250014 0.300640 0.812932
C5    C     C_R   0.400311 0.250162 0.300709 0.838769
C6    C     C_R   0.599442 0.750020 0.699270 0.817261
C7    C     C_R   0.599631 0.250005 0.699342 0.831334
C8    C     C_R   0.400499 0.750059 0.300623 0.816669
C9    C     C_3   0.189666 0.751117 0.976614 -0.369594
C10   C     C_3   0.797270 0.284428 0.023463 -0.387595
C11   C     C_3   0.806636 0.734316 0.023641 -0.381216
C12   C     C_3   0.187868 0.263559 0.975492 -0.378819
C13   C     C_3   0.702456 0.213794 0.975921 -0.393797
C14   C     C_3   0.313305 0.750607 0.023323 -0.392195
C15   C     C_3   0.308461 0.236992 0.024364 -0.365387
C16   C     C_3   0.688864 0.769181 0.975852 -0.385808
C17   C     C_1   0.139138 0.750124 0.778532 -0.148349
C18   C     C_1   0.861168 0.250274 0.221446 -0.152967
C19   C     C_1   0.860272 0.750870 0.221404 -0.157771
C20   C     C_1   0.138497 0.250039 0.778503 -0.135800
C21   C     C_1   0.638858 0.249455 0.778510 -0.144193
C22   C     C_1   0.361892 0.750682 0.221399 -0.140486
C23   C     C_1   0.360373 0.250550 0.221493 -0.152828
C24   C     C_1   0.637929 0.750628 0.778438 -0.135272
C25   C     C_3   0.262917 0.709028 0.975365 0.030373
C26   C     C_3   0.716153 0.261934 0.024602 0.019058
C27   C     C_3   0.723626 0.721344 0.025063 0.034964
C28   C     C_3   0.269979 0.283838 0.975165 0.027032
C29   C     C_3   0.783526 0.236223 0.975193 0.061670
C30   C     C_3   0.240014 0.792691 0.024413 0.038062
C31   C     C_3   0.226482 0.216811 0.024912 0.030929
C32   C     C_3   0.771939 0.782153 0.974507 0.028709
C33   C     C_3   0.213147 0.750486 0.926127 0.030407
C34   C     C_3   0.787735 0.250177 0.073838 0.016791
C35   C     C_3   0.785771 0.751744 0.073663 0.036729
C36   C     C_3   0.210727 0.250222 0.926134 0.026600
C37   C     C_3   0.712279 0.248143 0.926086 0.043203
C38   C     C_3   0.289696 0.751192 0.073735 0.029401
C39   C     C_3   0.285767 0.250414 0.073841 0.029634
C40   C     C_3   0.709856 0.751734 0.926009 0.028647
C41   C     C_1   0.172497 0.750198 0.845211 0.018078
C42   C     C_1   0.828047 0.250450 0.154764 -0.010916
C43   C     C_1   0.826549 0.751403 0.154673 0.012557
C44   C     C_1   0.171083 0.250081 0.845194 0.017961
C45   C     C_1   0.672046 0.248703 0.845175 0.025346
C46   C     C_1   0.329496 0.751103 0.154700 0.019540
C47   C     C_1   0.326562 0.250608 0.154797 0.013284
C48   C     C_1   0.670211 0.751175 0.845099 0.017800
C49   C     C_R   0.767358 0.663401 0.439489 -0.198969
C50   C     C_R   0.228134 0.340603 0.554410 -0.191581
C51   C     C_R   0.242485 0.668463 0.578617 -0.198145
C52   C     C_R   0.764133 0.336655 0.432613 -0.215710
C53   C     C_R   0.266621 0.163112 0.437458 -0.195531
C54   C     C_R   0.721599 0.844340 0.543149 -0.195590
C55   C     C_R   0.739001 0.166314 0.572183 -0.205824
C56   C     C_R   0.263036 0.836379 0.432002 -0.232015
C57   C     C_R   0.716246 0.635032 0.382693 -0.259239
C58   C     C_R   0.278374 0.371494 0.607091 -0.290704
C59   C     C_R   0.296740 0.644737 0.638619 -0.264831
C60   C     C_R   0.711191 0.363023 0.374872 -0.221427
C61   C     C_R   0.215055 0.134862 0.381199 -0.273858
C62   C     C_R   0.769421 0.879193 0.589573 -0.276265
C63   C     C_R   0.792335 0.141695 0.632014 -0.235801
C64   C     C_R   0.209461 0.862752 0.375138 -0.194578
C65   C     C_R   0.654583 0.653005 0.349639 0.535777
C66   C     C_R   0.340950 0.355603 0.639049 0.528532
C67   C     C_R   0.356271 0.664284 0.665274 0.530772
C68   C     C_R   0.650718 0.346043 0.347879 0.526727
C69   C     C_R   0.153644 0.152505 0.349996 0.534917
C70   C     C_R   0.832775 0.865904 0.622166 0.519108
C71   C     C_R   0.852314 0.161123 0.661236 0.508411
C72   C     C_R   0.148937 0.844413 0.346222 0.529802
C73   C     C_R   0.644724 0.694319 0.382247 -0.231844
C74   C     C_R   0.350926 0.312010 0.609842 -0.189725
C75   C     C_R   0.361105 0.703588 0.625900 -0.225719
C76   C     C_R   0.643990 0.303570 0.381946 -0.247721
C77   C     C_R   0.144600 0.194410 0.382505 -0.228164
C78   C     C_R   0.845843 0.820344 0.599566 -0.202560
C79   C     C_R   0.858763 0.201026 0.623412 -0.253618
C80   C     C_R   0.143730 0.800976 0.381049 -0.284717
C81   C     C_R   0.696297 0.720995 0.443914 0.002524
C82   C     C_R   0.299909 0.283320 0.550168 -0.004847
C83   C     C_R   0.306488 0.725237 0.561028 0.001934
C84   C     C_R   0.697386 0.279531 0.445454 0.020025
C85   C     C_R   0.196668 0.220733 0.444271 -0.003118
C86   C     C_R   0.796908 0.787524 0.544524 -0.002364
C87   C     C_R   0.804967 0.223737 0.558740 0.014181
C88   C     C_R   0.197653 0.778430 0.445477 0.034256
C89   C     C_R   0.138268 0.746906 0.495725 0.798913
C90   C     C_R   0.862581 0.253690 0.505467 0.796546
C91   C     C_R   0.861634 0.747783 0.504235 0.792855
C92   C     C_R   0.137241 0.253430 0.494326 0.792495
C93   C     C_R   0.637995 0.246887 0.495327 0.801449
C94   C     C_R   0.362725 0.753849 0.505624 0.797761
C95   C     C_R   0.361970 0.247285 0.504664 0.795624
C96   C     C_R   0.636946 0.753572 0.493963 0.797640
C97   C     C_R   0.757679 0.710294 0.464584 0.071039
C98   C     C_R   0.238699 0.293807 0.530277 0.076275
C99   C     C_R   0.246592 0.712489 0.543658 0.072819
C100  C     C_R   0.757753 0.291660 0.463942 0.078134
C101  C     C_R   0.257785 0.209554 0.464243 0.082120
C102  C     C_R   0.735300 0.796598 0.524427 0.079713
C103  C     C_R   0.744646 0.211235 0.540097 0.076453
C104  C     C_R   0.257612 0.791280 0.463730 0.081127
C105  C     C_R   0.688120 0.758929 0.483664 -0.169056
C106  C     C_R   0.308036 0.244400 0.510732 -0.172095
C107  C     C_R   0.310238 0.759427 0.513839 -0.170879
C108  C     C_R   0.692064 0.243221 0.489593 -0.171933
C109  C     C_R   0.189401 0.258209 0.485535 -0.170365
C110  C     C_R   0.807020 0.746338 0.509229 -0.163101
C111  C     C_R   0.809780 0.258928 0.513248 -0.173552
C112  C     C_R   0.193023 0.743142 0.491140 -0.166118
C113  C     C_R   0.920204 0.951019 0.364200 0.438525
C114  C     C_R   0.045364 0.044550 0.639859 0.475723
C115  C     C_R   0.090323 0.946783 0.637923 0.450531
C116  C     C_R   0.978635 0.043870 0.373716 0.459076
C117  C     C_R   0.398406 0.448542 0.373723 0.453020
C118  C     C_R   0.562017 0.545228 0.642051 0.464589
C119  C     C_R   0.600553 0.447429 0.628874 0.439078
C120  C     C_R   0.436899 0.545818 0.359781 0.441169
C121  C     C_R   0.903236 0.975803 0.298534 0.019470
C122  C     C_R   0.090129 0.019287 0.707081 -0.014334
C123  C     C_R   0.114719 0.971356 0.706386 -0.065407
C124  C     C_R   0.935759 0.020868 0.303386 -0.057525
C125  C     C_R   0.363684 0.473709 0.304461 -0.009855
C126  C     C_R   0.611721 0.519400 0.705733 -0.016925
C127  C     C_R   0.632334 0.471190 0.699181 -0.058926
C128  C     C_R   0.383782 0.521833 0.296663 -0.073147
C129  C     C_R   0.983714 0.024540 0.437186 -0.125092
C130  C     C_R   0.041678 0.971301 0.570428 -0.118608
C131  C     C_R   0.029845 0.024100 0.571217 -0.153522
C132  C     C_R   0.967470 0.973014 0.434471 -0.175398
C133  C     C_R   0.464283 0.524669 0.431971 -0.123104
C134  C     C_R   0.546520 0.471876 0.565986 -0.128375
C135  C     C_R   0.535879 0.524537 0.569708 -0.151206
C136  C     C_R   0.453719 0.472172 0.435593 -0.160548
C137  C     C_R   0.005398 0.052599 0.503804 -0.100729
C138  C     C_R   0.002513 0.945195 0.501861 -0.092746
C139  C     C_R   0.500465 0.552685 0.500738 -0.112831
C140  C     C_R   0.500359 0.445197 0.500533 -0.093609
C141  C     C_R   0.000313 0.889728 0.500281 0.971342
C142  C     C_R   0.001966 0.109451 0.501584 0.810614
C143  C     C_R   0.500299 0.389705 0.500313 1.020312
C144  C     C_R   0.500347 0.609477 0.500340 0.841998
C145  C     C_R   0.000086 0.610081 0.500049 0.788461
C146  C     C_R   0.999921 0.389910 0.499941 0.787669
C147  C     C_R   0.500076 0.110085 0.500088 0.786313
C148  C     C_R   0.499894 0.889914 0.499990 0.786631
C149  C     C_R   0.929196 0.553980 0.540545 -0.156359
C150  C     C_R   0.070910 0.445966 0.459592 -0.155974
C151  C     C_R   0.071505 0.553282 0.460299 -0.156768
C152  C     C_R   0.928681 0.446658 0.539919 -0.157977
C153  C     C_R   0.428968 0.054008 0.540333 -0.157196
C154  C     C_R   0.570281 0.945976 0.458869 -0.156126
C155  C     C_R   0.571464 0.053276 0.460324 -0.157855
C156  C     C_R   0.428576 0.946683 0.539888 -0.158662
C157  C     C_R   0.893874 0.527262 0.559119 -0.149482
C158  C     C_R   0.106394 0.472652 0.441231 -0.152607
C159  C     C_R   0.106675 0.526196 0.441568 -0.147747
C160  C     C_R   0.893598 0.473716 0.558785 -0.149935
C161  C     C_R   0.393556 0.027296 0.558790 -0.149242
C162  C     C_R   0.605790 0.972630 0.440522 -0.153579
C163  C     C_R   0.606425 0.026171 0.441314 -0.147807
C164  C     C_R   0.393378 0.973749 0.558592 -0.147654
C165  C     C_R   0.963868 0.472924 0.519036 0.075444
C166  C     C_R   0.036221 0.527040 0.481060 0.074339
C167  C     C_R   0.035963 0.472583 0.480756 0.076823
C168  C     C_R   0.964102 0.527382 0.519312 0.075859
C169  C     C_R   0.463786 0.972942 0.519034 0.075335
C170  C     C_R   0.536129 0.027047 0.481031 0.074400
C171  C     C_R   0.535704 0.972597 0.480516 0.077228
C172  C     C_R   0.463996 0.027402 0.519268 0.076165
C173  C     C_R   0.999810 0.445982 0.499770 -0.163373
C174  C     C_R   0.000219 0.553995 0.500245 -0.164124
C175  C     C_R   0.499711 0.945994 0.499745 -0.162617
C176  C     C_R   0.500187 0.054006 0.500292 -0.162854
C177  C     C_3   0.774934 0.202450 0.025561 0.531180
C178  C     C_3   0.262423 0.792411 0.973949 0.507551
C179  C     C_3   0.248127 0.203466 0.975540 0.527470
C180  C     C_3   0.752101 0.799521 0.024405 0.513555
C181  C     C_3   0.240409 0.709336 0.025690 0.525387
C182  C     C_3   0.724906 0.295685 0.974515 0.511377
C183  C     C_3   0.743450 0.704056 0.975223 0.530626
C184  C     C_3   0.248238 0.297223 0.024478 0.510553
H1    H     H_    0.133690 0.546890 0.426432 0.130691
H2    H     H_    0.866649 0.453003 0.574011 0.133241
H3    H     H_    0.867163 0.548237 0.574633 0.130780
H4    H     H_    0.133205 0.451659 0.425861 0.134975
H5    H     H_    0.633491 0.046851 0.426234 0.132764
H6    H     H_    0.366393 0.953042 0.573770 0.134798
H7    H     H_    0.366700 0.048273 0.574108 0.135209
H8    H     H_    0.632329 0.951617 0.424794 0.135096
H9    H     H_    0.929112 0.595578 0.543878 0.126344
H10   H     H_    0.070896 0.404375 0.456149 0.124787
H11   H     H_    0.072079 0.594881 0.457541 0.128396
H12   H     H_    0.928147 0.405060 0.542707 0.126231
H13   H     H_    0.428828 0.095607 0.543588 0.126250
H14   H     H_    0.569858 0.904405 0.454955 0.122793
H15   H     H_    0.572220 0.094876 0.457790 0.128065
H16   H     H_    0.428070 0.905084 0.542712 0.126643
H17   H     H_    0.139535 0.751872 0.957210 0.163762
H18   H     H_    0.836397 0.312191 0.042886 0.156500
H19   H     H_    0.854795 0.721087 0.043783 0.160216
H20   H     H_    0.138512 0.273012 0.954921 0.152636
H21   H     H_    0.662340 0.186943 0.955570 0.162421
H22   H     H_    0.363526 0.749290 0.043074 0.157218
H23   H     H_    0.357500 0.226632 0.044547 0.163987
H24   H     H_    0.640692 0.782300 0.955839 0.154775
H25   H     H_    0.814188 0.647778 0.463998 0.174793
H26   H     H_    0.180818 0.354758 0.530780 0.173166
H27   H     H_    0.197830 0.650346 0.558337 0.183685
H28   H     H_    0.809899 0.352870 0.453553 0.180296
H29   H     H_    0.313212 0.147339 0.460946 0.175570
H30   H     H_    0.673432 0.856077 0.519494 0.167145
H31   H     H_    0.693673 0.148807 0.550324 0.179100
H32   H     H_    0.308566 0.853026 0.452699 0.180813
H33   H     H_    0.724629 0.599927 0.363068 0.150909
H34   H     H_    0.267913 0.407336 0.622884 0.152129
H35   H     H_    0.292537 0.611335 0.664779 0.154630
H36   H     H_    0.717254 0.396464 0.350371 0.164444
H37   H     H_    0.222818 0.099756 0.360976 0.153725
H38   H     H_    0.756801 0.915904 0.600880 0.152449
H39   H     H_    0.786876 0.108100 0.656783 0.157635
H40   H     H_    0.215171 0.897169 0.351934 0.166297
H41   H     H_    0.596387 0.706859 0.355752 0.181730
H42   H     H_    0.399510 0.300025 0.637487 0.187916
H43   H     H_    0.408034 0.717803 0.648333 0.172782
H44   H     H_    0.596892 0.288523 0.356074 0.168357
H45   H     H_    0.096397 0.207082 0.356452 0.186374
H46   H     H_    0.895236 0.810628 0.629099 0.194696
H47   H     H_    0.905957 0.214861 0.646673 0.170805
H48   H     H_    0.098283 0.783338 0.357060 0.144635
O1    O     O_3   0.000000 0.750000 0.500000 -0.482844
O2    O     O_3   0.000000 0.250000 0.500000 -0.487829
O3    O     O_3   0.500000 0.250000 0.500000 -0.477818
O4    O     O_3   0.500000 0.750000 0.500000 -0.488188
O5    O     O_R   0.887450 0.719640 0.335600 -0.633908
O6    O     O_R   0.112550 0.280360 0.664400 -0.635597
O7    O     O_R   0.112550 0.719640 0.664400 -0.634660
O8    O     O_R   0.887450 0.280360 0.335600 -0.631735
O9    O     O_R   0.387450 0.219640 0.335600 -0.632009
O10   O     O_R   0.612550 0.780360 0.664400 -0.636655
O11   O     O_R   0.612550 0.219640 0.664400 -0.636347
O12   O     O_R   0.387450 0.780360 0.335600 -0.631057
O13   O     O_R   0.094250 0.780350 0.456890 -0.664872
O14   O     O_R   0.905750 0.219650 0.543110 -0.653886
O15   O     O_R   0.905750 0.780350 0.543110 -0.659546
O16   O     O_R   0.094250 0.219650 0.456890 -0.652201
O17   O     O_R   0.594250 0.280350 0.456890 -0.670930
O18   O     O_R   0.405750 0.719650 0.543110 -0.658360
O19   O     O_R   0.405750 0.280350 0.543110 -0.661496
O20   O     O_R   0.594250 0.719650 0.456890 -0.657587
O21   O     O_R   0.008810 0.865800 0.456890 -0.636716
O22   O     O_R   0.991190 0.134200 0.543110 -0.591723
O23   O     O_R   0.991190 0.865800 0.543110 -0.619970
O24   O     O_R   0.008810 0.134200 0.456890 -0.590561
O25   O     O_R   0.508810 0.365800 0.456890 -0.661059
O26   O     O_R   0.491190 0.634200 0.543110 -0.598362
O27   O     O_R   0.491190 0.365800 0.543110 -0.632750
O28   O     O_R   0.508810 0.634200 0.456890 -0.592715
O29   O     O_R   0.948090 0.634190 0.456900 -0.646957
O30   O     O_R   0.051910 0.365810 0.543100 -0.648102
O31   O     O_R   0.051910 0.634190 0.543100 -0.649579
O32   O     O_R   0.948090 0.365810 0.456900 -0.648810
O33   O     O_R   0.448090 0.134190 0.456900 -0.649523
O34   O     O_R   0.551910 0.865810 0.543100 -0.647876
O35   O     O_R   0.551910 0.134190 0.543100 -0.650289
O36   O     O_R   0.448090 0.865810 0.456900 -0.648816
O37   O     O_R   0.137350 0.719630 0.543100 -0.647627
O38   O     O_R   0.862650 0.280370 0.456900 -0.643718
O39   O     O_R   0.862650 0.719630 0.456900 -0.645282
O40   O     O_R   0.137350 0.280370 0.543100 -0.640243
O41   O     O_R   0.637350 0.219630 0.543100 -0.643738
O42   O     O_R   0.362650 0.780370 0.456900 -0.642606
O43   O     O_R   0.362650 0.219630 0.456900 -0.641964
O44   O     O_R   0.637350 0.780370 0.543100 -0.638695
O45   O     O_R   0.948170 0.780360 0.335600 -0.642876
O46   O     O_R   0.051830 0.219640 0.664400 -0.619048
O47   O     O_R   0.051830 0.780360 0.664400 -0.624960
O48   O     O_R   0.948170 0.219640 0.335600 -0.631412
O49   O     O_R   0.448170 0.280360 0.335600 -0.644515
O50   O     O_R   0.551830 0.719640 0.664400 -0.616312
O51   O     O_R   0.551830 0.280360 0.664400 -0.626917
O52   O     O_R   0.448170 0.719640 0.335600 -0.624318
Zn1   Zn    Zn3+2 0.074160 0.706620 0.561580 0.957134
Zn2   Zn    Zn3+2 0.925840 0.293380 0.438420 0.952832
Zn3   Zn    Zn3+2 0.925840 0.706620 0.438420 0.950454
Zn4   Zn    Zn3+2 0.074160 0.293380 0.561580 0.953436
Zn5   Zn    Zn3+2 0.574160 0.206620 0.561580 0.961222
Zn6   Zn    Zn3+2 0.425840 0.793380 0.438420 0.955702
Zn7   Zn    Zn3+2 0.425840 0.206620 0.438420 0.963538
Zn8   Zn    Zn3+2 0.574160 0.793380 0.561580 0.954858
Zn9   Zn    Zn3+2 0.012590 0.793370 0.438410 0.963800
Zn10  Zn    Zn3+2 0.987410 0.206630 0.561590 0.988610
Zn11  Zn    Zn3+2 0.987410 0.793370 0.561590 0.995095
Zn12  Zn    Zn3+2 0.012590 0.206630 0.438410 0.986535
Zn13  Zn    Zn3+2 0.512590 0.293370 0.438410 0.963736
Zn14  Zn    Zn3+2 0.487410 0.706630 0.561590 0.987218
Zn15  Zn    Zn3+2 0.487410 0.293370 0.561590 1.004236
Zn16  Zn    Zn3+2 0.512590 0.706630 0.438410 0.985586
N1    N     N_3   0.160463 0.946078 0.775508 -0.452181
H49   H     H_    0.142752 0.909924 0.775514 0.239954
H50   H     H_    0.202016 0.940487 0.779280 0.183105
N2    N     N_3   0.927139 0.041436 0.237652 -0.455981
H51   H     H_    0.959436 0.070781 0.250501 0.252031
H52   H     H_    0.882480 0.058755 0.205800 0.187945
N3    N     N_3   0.855639 0.952512 0.228267 -0.431924
H53   H     H_    0.873070 0.916873 0.225708 0.232399
H54   H     H_    0.846899 0.974137 0.183459 0.184320
N4    N     N_3   0.107655 0.041940 0.775782 -0.400702
H55   H     H_    0.156739 0.047096 0.809719 0.211836
H56   H     H_    0.096082 0.016061 0.802275 0.194590
N5    N     N_3   0.681660 0.444695 0.765148 -0.460345
H57   H     H_    0.664438 0.408823 0.767165 0.232308
H58   H     H_    0.719937 0.438518 0.762462 0.184176
N6    N     N_3   0.352161 0.544384 0.223704 -0.455536
H59   H     H_    0.372868 0.579372 0.225639 0.239908
H60   H     H_    0.305988 0.553557 0.205323 0.189266
N7    N     N_3   0.311053 0.447804 0.241064 -0.429218
H61   H     H_    0.320127 0.443824 0.201123 0.216274
H62   H     H_    0.270788 0.470918 0.218737 0.168677
N8    N     N_3   0.638744 0.541938 0.777525 -0.395571
H63   H     H_    0.687419 0.546174 0.804007 0.205515
H64   H     H_    0.632113 0.516464 0.808982 0.194202
O53   O     O_3   0.891382 0.904604 0.358226 -0.633218
C185  C     C_3   0.846955 0.912765 0.374488 0.048096
H65   H     H_    0.808985 0.939715 0.333142 0.151373
H66   H     H_    0.870137 0.928897 0.431500 0.139067
C186  C     C_3   0.816996 0.861084 0.370408 -0.292617
H67   H     H_    0.791035 0.845629 0.312843 0.221886
H68   H     H_    0.854888 0.833139 0.408588 0.221658
C187  C     C_3   0.771289 0.866574 0.392089 -0.952490
H69   H     H_    0.796887 0.880095 0.450535 0.275367
H70   H     H_    0.749542 0.828585 0.387151 0.266257
H71   H     H_    0.732994 0.894445 0.354672 0.257253
O54   O     O_3   0.007651 0.081161 0.641866 -0.579013
C188  C     C_3   0.954444 0.056814 0.632120 0.118470
H72   H     H_    0.948826 0.072774 0.674433 0.204560
H73   H     H_    0.959596 0.014113 0.641298 0.114983
C189  C     C_3   0.894394 0.068631 0.554637 -0.313120
H74   H     H_    0.886470 0.111022 0.547995 0.255379
H75   H     H_    0.900053 0.054507 0.511467 0.210362
C190  C     C_3   0.836518 0.042676 0.542545 -0.992055
H76   H     H_    0.842582 0.000073 0.546615 0.276821
H77   H     H_    0.793760 0.052570 0.486380 0.264851
H78   H     H_    0.829329 0.056197 0.584655 0.277838
O55   O     O_3   0.114070 0.898969 0.637488 -0.646367
C191  C     C_3   0.170817 0.905027 0.642902 0.014762
H79   H     H_    0.205059 0.875605 0.682874 0.172934
H80   H     H_    0.194121 0.943375 0.664680 0.124896
C192  C     C_3   0.158377 0.895552 0.567200 -0.321585
H81   H     H_    0.133069 0.858459 0.544436 0.254005
H82   H     H_    0.128159 0.927084 0.528262 0.210867
C193  C     C_3   0.219851 0.892915 0.573260 -0.969858
H83   H     H_    0.247816 0.928711 0.598866 0.257324
H84   H     H_    0.208728 0.888571 0.516870 0.278227
H85   H     H_    0.248624 0.859184 0.607521 0.265435
O56   O     O_3   0.024099 0.076832 0.381982 -0.601889
C194  C     C_3   0.081114 0.049315 0.409859 0.120127
H86   H     H_    0.090953 0.051160 0.367415 0.197386
H87   H     H_    0.079701 0.007433 0.420997 0.108232
C195  C     C_3   0.135531 0.074797 0.481530 -0.296466
H88   H     H_    0.137820 0.116347 0.471213 0.253642
H89   H     H_    0.126901 0.071612 0.524963 0.204746
C196  C     C_3   0.198845 0.049321 0.510005 -0.997823
H90   H     H_    0.198076 0.008025 0.522628 0.271157
H91   H     H_    0.237355 0.068906 0.561653 0.264960
H92   H     H_    0.208897 0.052283 0.467806 0.276962
O57   O     O_3   0.379071 0.400391 0.380513 -0.644863
C197  C     C_3   0.325460 0.405436 0.381914 0.078213
H93   H     H_    0.299872 0.368055 0.363559 0.167451
H94   H     H_    0.291015 0.435118 0.342403 0.143073
C198  C     C_3   0.344931 0.416905 0.460670 -0.368598
H95   H     H_    0.375277 0.385147 0.498743 0.262985
H96   H     H_    0.372197 0.453447 0.481352 0.221003
C199  C     C_3   0.286969 0.422061 0.461620 -0.955812
H97   H     H_    0.255574 0.453583 0.423834 0.255492
H98   H     H_    0.302293 0.431465 0.518743 0.280605
H99   H     H_    0.260124 0.385279 0.444101 0.269171
O58   O     O_3   0.531776 0.583924 0.653345 -0.585589
C200  C     C_3   0.485557 0.562030 0.660505 0.140093
H100  H     H_    0.487005 0.583491 0.704901 0.199820
H101  H     H_    0.494789 0.520724 0.678535 0.109388
C201  C     C_3   0.419084 0.567769 0.587768 -0.305610
H102  H     H_    0.406537 0.609354 0.576136 0.255631
H103  H     H_    0.417938 0.551037 0.540873 0.212042
C202  C     C_3   0.369628 0.540035 0.591860 -0.994868
H104  H     H_    0.379954 0.498021 0.599923 0.274254
H105  H     H_    0.321922 0.546018 0.539198 0.270380
H106  H     H_    0.369551 0.555163 0.638664 0.294684
O59   O     O_3   0.621846 0.400175 0.622089 -0.658090
C203  C     C_3   0.674076 0.407626 0.618575 0.042161
H107  H     H_    0.706809 0.374389 0.647080 0.166349
H108  H     H_    0.702125 0.443066 0.647798 0.126825
C204  C     C_3   0.652498 0.408992 0.537781 -0.352551
H109  H     H_    0.627081 0.372866 0.509366 0.260007
H110  H     H_    0.619795 0.442088 0.508292 0.217993
C205  C     C_3   0.708803 0.414196 0.533694 -0.977041
H111  H     H_    0.735247 0.450243 0.561543 0.263459
H112  H     H_    0.691652 0.415712 0.474643 0.268380
H113  H     H_    0.741109 0.380531 0.560599 0.268881
O60   O     O_3   0.469562 0.581555 0.347994 -0.610515
C206  C     C_3   0.513125 0.555649 0.339349 0.118803
H114  H     H_    0.511785 0.575061 0.293764 0.190911
H115  H     H_    0.501023 0.514333 0.322252 0.106284
C207  C     C_3   0.580593 0.559514 0.410804 -0.291083
H116  H     H_    0.595761 0.600525 0.421172 0.249927
H117  H     H_    0.581984 0.545261 0.458948 0.211598
C208  C     C_3   0.627123 0.527398 0.405572 -0.974667
H118  H     H_    0.615120 0.485897 0.400962 0.251056
H119  H     H_    0.675906 0.533151 0.456450 0.269038
H120  H     H_    0.625707 0.538745 0.356345 0.297011
O61   O     O_3   0.808692 0.155549 0.055330 -0.651362
C209  C     C_3   0.771801 0.117675 0.059238 0.074783
H121  H     H_    0.796083 0.080043 0.069015 0.169223
H122  H     H_    0.724289 0.113394 0.005617 0.126850
C210  C     C_3   0.766832 0.127745 0.124068 -0.369008
H123  H     H_    0.814901 0.133867 0.176104 0.233457
H124  H     H_    0.738246 0.163030 0.112946 0.236278
C211  C     C_3   0.735578 0.082628 0.135125 -0.964731
H125  H     H_    0.686607 0.077011 0.084500 0.268838
H126  H     H_    0.733427 0.090829 0.182845 0.270094
H127  H     H_    0.763231 0.046606 0.147081 0.266535
O62   O     O_3   0.267045 0.836973 0.940819 -0.645791
C212  C     C_3   0.328795 0.857134 0.986410 0.074309
H128  H     H_    0.362768 0.830107 0.987688 0.146861
H129  H     H_    0.343224 0.863877 0.044101 0.127687
C213  C     C_3   0.330471 0.908453 0.953743 -0.312172
H130  H     H_    0.314359 0.902411 0.895395 0.223051
H131  H     H_    0.297707 0.936327 0.953366 0.224291
C214  C     C_3   0.397086 0.931030 0.998608 -0.992317
H132  H     H_    0.413568 0.938813 0.056694 0.267738
H133  H     H_    0.396780 0.967809 0.972768 0.271467
H134  H     H_    0.430525 0.903908 0.999195 0.266619
O63   O     O_3   0.243419 0.154413 0.944956 -0.640481
C215  C     C_3   0.288517 0.119878 0.000489 0.062984
H135  H     H_    0.263215 0.084195 0.996650 0.157922
H136  H     H_    0.313173 0.134410 0.058635 0.120189
C216  C     C_3   0.337553 0.106128 0.985918 -0.322202
H137  H     H_    0.313371 0.088290 0.929915 0.228351
H138  H     H_    0.361640 0.141795 0.986967 0.221561
C217  C     C_3   0.387022 0.068564 0.044328 -0.982396
H139  H     H_    0.412883 0.086165 0.100594 0.266105
H140  H     H_    0.421650 0.059067 0.031994 0.268840
H141  H     H_    0.363987 0.032387 0.043773 0.270944
O64   O     O_3   0.761996 0.849318 0.055221 -0.647009
C218  C     C_3   0.712661 0.882524 0.002927 0.080056
H142  H     H_    0.668188 0.872409 0.996548 0.146253
H143  H     H_    0.704563 0.880154 0.947730 0.128132
C219  C     C_3   0.730241 0.937993 0.031016 -0.325093
H144  H     H_    0.735850 0.941444 0.084615 0.236471
H145  H     H_    0.776005 0.947985 0.040628 0.216471
C220  C     C_3   0.679484 0.975961 0.975196 -0.989157
H146  H     H_    0.673504 0.973666 0.921310 0.267230
H147  H     H_    0.693813 0.015810 0.997031 0.262080
H148  H     H_    0.633597 0.967432 0.966016 0.268280
O65   O     O_3   0.233839 0.665083 0.057691 -0.646462
C221  C     C_3   0.178031 0.637890 0.004496 0.063489
H149  H     H_    0.190833 0.596563 0.008041 0.159655
H150  H     H_    0.155657 0.649902 0.945668 0.121304
C222  C     C_3   0.130223 0.643210 0.023214 -0.326068
H151  H     H_    0.151251 0.627542 0.079870 0.227409
H152  H     H_    0.119041 0.684653 0.022944 0.222711
C223  C     C_3   0.069061 0.614349 0.967329 -0.976435
H153  H     H_    0.046535 0.630175 0.910477 0.265275
H154  H     H_    0.035571 0.618889 0.982661 0.267598
H155  H     H_    0.078839 0.572603 0.967439 0.266940
O66   O     O_3   0.692706 0.342594 0.941877 -0.642596
C224  C     C_3   0.726140 0.383739 0.991349 0.075036
H156  H     H_    0.770519 0.390993 0.996109 0.145399
H157  H     H_    0.737895 0.375511 0.047519 0.131767
C225  C     C_3   0.684860 0.432182 0.960444 -0.296471
H158  H     H_    0.673659 0.441299 0.904871 0.228959
H159  H     H_    0.639681 0.425031 0.953750 0.224953
C226  C     C_3   0.718058 0.478276 0.011916 -1.005066
H160  H     H_    0.728529 0.470421 0.067398 0.270674
H161  H     H_    0.686822 0.512728 0.987686 0.265347
H162  H     H_    0.762946 0.486539 0.018549 0.261336
O67   O     O_3   0.733156 0.654352 0.944023 -0.638467
C227  C     C_3   0.780175 0.619406 0.996229 0.067002
H163  H     H_    0.756070 0.583246 0.993128 0.167774
H164  H     H_    0.807126 0.632704 0.055210 0.119691
C228  C     C_3   0.825574 0.607299 0.975392 -0.324783
H165  H     H_    0.798484 0.590767 0.918355 0.227469
H166  H     H_    0.848515 0.643404 0.975532 0.220023
C229  C     C_3   0.876694 0.568980 0.029699 -0.978315
H167  H     H_    0.905033 0.585080 0.086971 0.264771
H168  H     H_    0.908816 0.561135 0.013083 0.266993
H169  H     H_    0.854925 0.532055 0.029196 0.262266
O68   O     O_3   0.253694 0.346184 0.055716 -0.645817
C230  C     C_3   0.202022 0.377555 0.003314 0.078760
H170  H     H_    0.157077 0.361558 0.990683 0.142018
H171  H     H_    0.198658 0.380814 0.950987 0.130131
C231  C     C_3   0.211097 0.431358 0.036243 -0.313077
H172  H     H_    0.211855 0.428532 0.086815 0.224861
H173  H     H_    0.257063 0.447434 0.052334 0.226028
C232  C     C_3   0.157759 0.467805 0.980984 -0.998462
H174  H     H_    0.157328 0.472847 0.930872 0.267080
H175  H     H_    0.165174 0.505971 0.007605 0.260891
H176  H     H_    0.111283 0.452480 0.964056 0.266499
N9    N     N_3   0.679752 0.276158 0.053006 -0.445792
H177  H     H_    0.634981 0.287980 0.007616 0.208470
H178  H     H_    0.701382 0.308266 0.087438 0.184070
N10   N     N_3   0.274564 0.662992 0.947186 -0.441671
H179  H     H_    0.306091 0.639702 0.992973 0.201496
H180  H     H_    0.232015 0.642740 0.914791 0.171582
N11   N     N_3   0.293430 0.320466 0.946787 -0.440126
H181  H     H_    0.327719 0.343088 0.991594 0.202269
H182  H     H_    0.256086 0.344978 0.909428 0.174153
N12   N     N_3   0.697908 0.687733 0.053953 -0.445183
H183  H     H_    0.657741 0.669998 0.008360 0.203356
H184  H     H_    0.731112 0.658590 0.084808 0.173888
N13   N     N_3   0.228659 0.838851 0.052626 -0.436155
H185  H     H_    0.196077 0.861615 0.006708 0.203800
H186  H     H_    0.270985 0.859551 0.083348 0.177220
N14   N     N_3   0.819595 0.221286 0.946632 -0.446563
H187  H     H_    0.866033 0.214007 0.992482 0.205725
H188  H     H_    0.801257 0.186247 0.918665 0.196165
N15   N     N_3   0.797443 0.815237 0.944816 -0.442495
H189  H     H_    0.834181 0.836698 0.988973 0.200112
H190  H     H_    0.762090 0.841370 0.908036 0.176024
N16   N     N_3   0.203217 0.180026 0.053326 -0.444968
H191  H     H_    0.168419 0.157856 0.008290 0.201826
H192  H     H_    0.240413 0.155049 0.089669 0.170281
O69   O     O_3   0.883008 0.898725 0.669352 -0.655188
C233  C     C_3   0.879398 0.920657 0.725455 0.071293
H193  H     H_    0.925526 0.913438 0.779759 0.166490
H194  H     H_    0.842721 0.903187 0.730139 0.127790
C234  C     C_3   0.869682 0.979067 0.713842 -0.336729
H195  H     H_    0.908262 0.995828 0.712526 0.232306
H196  H     H_    0.823892 0.987399 0.659795 0.215751
C235  C     C_3   0.869904 0.004843 0.775982 -0.956541
H197  H     H_    0.830908 0.989426 0.777533 0.264030
H198  H     H_    0.862997 0.047068 0.765925 0.281035
H199  H     H_    0.915881 0.998035 0.830601 0.260107
O70   O     O_3   0.101709 0.125486 0.293432 -0.659998
C236  C     C_3   0.093886 0.133694 0.225318 0.065064
H200  H     H_    0.070834 0.098799 0.190463 0.173212
H201  H     H_    0.139465 0.138319 0.231683 0.131373
C237  C     C_3   0.050567 0.180273 0.184451 -0.345716
H202  H     H_    0.005342 0.174951 0.178311 0.244950
H203  H     H_    0.073753 0.215836 0.217475 0.209068
C238  C     C_3   0.036216 0.186931 0.107476 -0.954266
H204  H     H_    0.080711 0.193081 0.112282 0.273930
H205  H     H_    0.004938 0.220987 0.079480 0.263858
H206  H     H_    0.011695 0.152285 0.072718 0.266426
O71   O     O_3   0.098208 0.871832 0.286333 -0.652549
C239  C     C_3   0.038243 0.850038 0.256883 0.076071
H207  H     H_    0.028798 0.849161 0.299914 0.167407
H208  H     H_    0.035641 0.810546 0.235321 0.139886
C240  C     C_3   0.986966 0.883338 0.192458 -0.343881
H209  H     H_    0.985516 0.921647 0.214119 0.231585
H210  H     H_    0.998199 0.889260 0.151618 0.234960
C241  C     C_3   0.922141 0.857867 0.153139 -0.924038
H211  H     H_    0.920977 0.821786 0.125237 0.261555
H212  H     H_    0.885136 0.884626 0.110651 0.274648
H213  H     H_    0.911520 0.848283 0.193611 0.281211
O72   O     O_3   0.904547 0.137041 0.722134 -0.669398
C242  C     C_3   0.934150 0.170913 0.783629 0.067207
H214  H     H_    0.899241 0.186613 0.792847 0.139477
H215  H     H_    0.957122 0.203361 0.774965 0.140620
C243  C     C_3   0.985129 0.141206 0.853245 -0.310086
H216  H     H_    0.962940 0.108492 0.862487 0.222431
H217  H     H_    0.020376 0.125276 0.845035 0.237060
C244  C     C_3   0.019046 0.175804 0.921957 -0.973079
H218  H     H_    0.043639 0.207726 0.915121 0.267779
H219  H     H_    0.054712 0.152799 0.971647 0.268176
H220  H     H_    0.984702 0.192211 0.931267 0.269177
O73   O     O_3   0.393850 0.384126 0.692222 -0.653982
C245  C     C_3   0.388516 0.406653 0.746698 0.081050
H221  H     H_    0.433159 0.398214 0.802021 0.168087
H222  H     H_    0.349885 0.390291 0.748580 0.128632
C246  C     C_3   0.382027 0.465300 0.736399 -0.353376
H223  H     H_    0.423903 0.480701 0.740745 0.235503
H224  H     H_    0.339041 0.475016 0.680371 0.220453
C247  C     C_3   0.377503 0.491380 0.794946 -0.961218
H225  H     H_    0.335264 0.477301 0.790790 0.267039
H226  H     H_    0.373023 0.533763 0.785767 0.265830
H227  H     H_    0.420728 0.483291 0.851615 0.263593
O74   O     O_3   0.602863 0.627406 0.290372 -0.677402
C248  C     C_3   0.600336 0.634158 0.225237 0.059833
H228  H     H_    0.572820 0.601476 0.187358 0.168682
H229  H     H_    0.647760 0.632638 0.235695 0.135586
C249  C     C_3   0.566140 0.684630 0.185850 -0.357747
H230  H     H_    0.518722 0.685189 0.175103 0.231014
H231  H     H_    0.593752 0.717939 0.222133 0.213551
C250  C     C_3   0.558051 0.690390 0.112108 -0.949104
H232  H     H_    0.604979 0.690748 0.121647 0.276049
H233  H     H_    0.533297 0.727256 0.085083 0.266127
H234  H     H_    0.529374 0.658112 0.074081 0.260749
O75   O     O_3   0.599110 0.369206 0.284855 -0.646453
C251  C     C_3   0.556383 0.389864 0.298696 0.040435
H235  H     H_    0.552342 0.431972 0.287368 0.162180
H236  H     H_    0.571601 0.385451 0.357220 0.135773
C252  C     C_3   0.491137 0.365502 0.245235 -0.329357
H237  H     H_    0.475919 0.370245 0.187045 0.231088
H238  H     H_    0.493808 0.323576 0.257072 0.225895
C253  C     C_3   0.441866 0.390487 0.252571 -0.877623
H239  H     H_    0.456087 0.386537 0.310359 0.295794
H240  H     H_    0.395467 0.371214 0.214262 0.282931
H241  H     H_    0.436532 0.432067 0.237873 0.242726
O76   O     O_3   0.410435 0.640568 0.723905 -0.675559
C254  C     C_3   0.423504 0.657493 0.792339 0.053633
H242  H     H_    0.442827 0.623980 0.830932 0.170058
H243  H     H_    0.380824 0.670908 0.788520 0.132343
C255  C     C_3   0.473698 0.700015 0.825399 -0.341967
H244  H     H_    0.515300 0.686576 0.827394 0.243595
H245  H     H_    0.453811 0.734842 0.789409 0.205554
C256  C     C_3   0.495502 0.714365 0.903925 -0.959741
H246  H     H_    0.454834 0.728392 0.903361 0.266692
H247  H     H_    0.531412 0.745477 0.925941 0.264440
H248  H     H_    0.517261 0.680424 0.941462 0.267713

loop_
_geom_bond_atom_site_label_1
_geom_bond_atom_site_label_2
_ccdc_geom_bond_type
C88   C104  A    
N8    H64   S    
O43   Zn7   S    
C31   N16   S    
C126  C127  A    
C76   H44   S    
C178  O62   S    
O65   C221  S    
C34   C42   S    
C147  O33   A    
C202  H106  S    
C227  H163  S    
C162  H8    S    
C152  C165  A    
C170  C176  A    
C224  H156  S    
N10   H179  S    
C236  C237  S    
C135  C139  A    
C184  O68   S    
C38   C181  S    
O8    Zn2   S    
O2    Zn10  S    
C211  H125  S    
C206  H115  S    
C92   C109  S    
N11   H182  S    
C8    O12   A    
C245  H222  S    
C30   C38   S    
C54   H30   S    
C120  C133  A    
C212  H128  S    
C150  H10   S    
C209  C210  S    
C20   C44   T    
O56   C194  S    
O71   C239  S    
C25   C181  S    
O74   C248  S    
O18   Zn14  S    
O20   Zn16  S    
C187  H71   S    
C185  H65   S    
C116  C124  A    
C199  H99   S    
C136  C140  A    
N14   H187  S    
C4    C18   S    
C68   O75   S    
C244  H219  S    
C98   C109  A    
C29   C177  S    
C79   C87   A    
C209  H122  S    
C82   C98   A    
C6    O50   A    
C149  C168  A    
C241  H212  S    
O38   Zn2   S    
C73   C81   A    
C188  H72   S    
C240  C241  S    
C81   C105  A    
C51   C59   A    
N4    H56   S    
C166  C174  A    
C115  C123  A    
C84   C100  A    
C189  H74   S    
C180  O64   S    
C203  H108  S    
C198  C199  S    
C253  H239  S    
C249  H230  S    
C118  O58   S    
C255  C256  S    
C27   C35   S    
N1    H49   S    
C246  H223  S    
O14   Zn10  S    
C153  C161  A    
N6    H59   S    
C241  H213  S    
C246  C247  S    
C218  H143  S    
C1    O45   A    
O4    Zn14  S    
C226  H161  S    
C30   N13   S    
C3    O47   A    
C223  H154  S    
C177  O61   S    
C185  C186  S    
C192  H82   S    
C243  H216  S    
C187  H69   S    
C255  H245  S    
C10   H18   S    
C79   H47   S    
C16   C40   S    
C87   C103  A    
C26   C182  S    
C251  H236  S    
C63   C71   A    
C133  C139  A    
C157  C160  A    
C32   C40   S    
C14   H22   S    
C200  H100  S    
C10   C182  S    
C212  C213  S    
C207  H117  S    
C36   C44   S    
C78   H46   S    
O68   C230  S    
C37   C45   S    
C202  H104  S    
C130  C138  A    
C227  C228  S    
C226  H160  S    
C188  C189  S    
C7    O51   A    
C215  H135  S    
C39   C47   S    
C224  C225  S    
C40   C48   S    
O72   C242  S    
C86   C110  A    
C120  O60   S    
C211  H127  S    
C189  H75   S    
O54   C188  S    
C253  H241  S    
C201  H103  S    
C126  N8    S    
C77   H45   S    
C26   N9    S    
O32   Zn2   S    
C247  H225  S    
C239  H208  S    
C130  C131  A    
C33   C41   S    
C80   C88   A    
C128  N6    S    
C196  H90   S    
C223  H155  S    
O47   Zn11  S    
C11   C35   S    
C191  H79   S    
C89   O13   A    
C3    C17   S    
C229  H167  S    
C220  H148  S    
C27   C183  S    
C49   C97   A    
O51   Zn15  S    
C228  C229  S    
C129  C137  A    
C235  H197  S    
C100  C111  A    
C194  H86   S    
C52   H28   S    
C205  H113  S    
C32   C180  S    
C34   C177  S    
O34   Zn8   S    
C232  H175  S    
C208  H118  S    
C104  C107  A    
O58   C200  S    
O29   Zn3   S    
O11   Zn5   S    
C219  H145  S    
C137  C142  S    
N7    H62   S    
O31   Zn1   S    
C15   C179  S    
C69   C77   A    
C192  H81   S    
C155  C170  A    
C140  C143  S    
C71   C79   A    
C197  H93   S    
C92   O16   A    
C192  C193  S    
C214  H133  S    
O1    Zn3   S    
C244  H218  S    
C168  C174  A    
O27   Zn15  S    
C57   H33   S    
O3    Zn7   S    
O4    Zn16  S    
C55   H31   S    
C154  H14   S    
O2    Zn4   S    
N5    H58   S    
C219  C220  S    
C195  H88   S    
C37   C182  S    
C148  O34   A    
O46   Zn10  S    
C49   C57   A    
C229  H169  S    
C220  H147  S    
C66   O73   S    
N12   H184  S    
C52   C60   A    
C59   C67   A    
C53   C61   A    
C252  H237  S    
C55   C63   A    
C200  C201  S    
C8    C22   S    
C56   C64   A    
C35   C43   S    
N5    H57   S    
C39   C184  S    
C228  H166  S    
C215  C216  S    
C40   C183  S    
C16   C27   S    
N2    H52   S    
O7    Zn1   S    
C77   C85   A    
C121  N3    S    
N9    H177  S    
C186  H68   S    
C248  H228  S    
C90   C111  S    
C80   H48   S    
C249  C250  S    
C164  H6    S    
C94   O18   A    
C12   H20   S    
C210  H124  S    
C199  H98   S    
C242  C243  S    
C21   C45   T    
C231  H173  S    
C94   C107  S    
C50   C98   A    
C119  C134  A    
C23   C47   T    
C221  H149  S    
C152  H12   S    
C24   C48   T    
C247  H227  S    
C63   H39   S    
C143  O27   A    
C225  H158  S    
C10   C34   S    
C196  H92   S    
C53   C101  A    
C223  H153  S    
C1    O5    A    
C52   C100  A    
C191  C192  S    
N13   H186  S    
C151  C159  A    
C248  C249  S    
C93   O41   A    
C95   C106  S    
O9    Zn7   S    
O4    Zn8   S    
O10   Zn8   S    
C238  H204  S    
C5    C23   S    
C235  H199  S    
C65   O74   S    
C6    C24   S    
C252  C253  S    
C234  H195  S    
C30   C178  S    
C238  H206  S    
C208  H120  S    
O42   Zn6   S    
C28   C36   S    
C14   C178  S    
C9    C30   S    
O62   C212  S    
C127  N5    S    
C11   C32   S    
C190  H77   S    
C12   C31   S    
C145  O29   A    
C96   O44   A    
C233  H194  S    
C13   C26   S    
C67   C75   A    
C29   C37   S    
C86   C102  A    
C256  H248  S    
C155  H15   S    
C213  H130  S    
O33   Zn7   S    
O60   C206  S    
C222  C223  S    
C101  C106  A    
N15   H190  S    
C193  H85   S    
C53   H29   S    
C154  C162  A    
C157  H3    S    
C251  H235  S    
C202  H105  S    
C158  H4    S    
C2    O46   A    
C134  C135  A    
C236  H201  S    
C142  O22   A    
C31   C179  S    
C159  H1    S    
C211  H126  S    
C28   C184  S    
C74   H42   S    
C58   H34   S    
O4    Zn6   S    
C245  C246  S    
C153  C172  A    
O48   Zn12  S    
C154  C171  A    
C194  C195  S    
C205  H112  S    
C62   H38   S    
C250  H234  S    
C16   H24   S    
C38   C46   S    
C29   N14   S    
C9    C181  S    
N16   H191  S    
C113  C121  A    
O66   C224  S    
C50   H26   S    
C155  C163  A    
C193  H83   S    
C31   C39   S    
C6    O10   A    
C185  H66   S    
C217  H139  S    
C69   O70   S    
C117  C125  A    
C75   H43   S    
C15   H23   S    
C172  C176  A    
C25   C33   S    
C115  C130  A    
C119  C127  A    
C96   C105  S    
O61   C209  S    
C113  C132  A    
C230  H171  S    
C114  C131  A    
O30   Zn4   S    
O67   C227  S    
C143  O25   A    
C225  C226  S    
C76   C84   A    
C182  O66   S    
C240  H210  S    
C90   O38   A    
C36   C179  S    
C89   C112  S    
O41   Zn5   S    
C240  H209  S    
C91   C110  S    
C237  H202  S    
C114  O54   S    
C85   C109  A    
C60   H36   S    
C93   C108  S    
C8    O52   A    
C204  C205  S    
C253  H240  S    
C244  H220  S    
C87   C111  A    
C132  C138  A    
C234  C235  S    
C95   O43   A    
C64   H40   S    
C102  C105  A    
N6    H60   S    
C151  H11   S    
C246  H224  S    
C92   O40   A    
C181  O65   S    
N10   H180  S    
C117  O57   S    
C145  O31   A    
C243  H217  S    
C189  C190  S    
C146  O32   A    
C213  C214  S    
C167  C173  A    
C129  C132  A    
N1    H50   S    
N8    H63   S    
C28   N11   S    
C83   C99   A    
C9    C33   S    
C212  H129  S    
C216  H138  S    
N11   H181  S    
C74   C82   A    
C251  C252  S    
C188  H73   S    
C19   C43   T    
C256  H246  S    
C224  H157  S    
C91   O15   A    
C1    C19   S    
C243  C244  S    
C2    C20   S    
N3    H53   S    
C50   C58   A    
O3    Zn5   S    
N15   H189  S    
C206  C207  S    
C56   C104  A    
O23   Zn11  S    
C95   O19   A    
O55   C191  S    
O24   Zn12  S    
C54   C62   A    
C116  O56   S    
C245  H221  S    
C222  H151  S    
O52   Zn16  S    
C67   O76   S    
O19   Zn15  S    
C218  H142  S    
C227  H164  S    
C247  H226  S    
O21   Zn9   S    
C216  H137  S    
C131  C137  A    
C215  H136  S    
C115  O55   S    
C191  H80   S    
C4    O8    A    
C163  H5    S    
C11   H19   S    
C229  H168  S    
C9    H17   S    
N14   H188  S    
C22   C46   T    
C72   O71   S    
C235  H198  S    
C209  H121  S    
C230  C231  S    
C179  O63   S    
C68   C76   A    
C241  H211  S    
C96   O20   A    
O49   Zn13  S    
C254  H243  S    
C138  C141  S    
C161  C164  A    
O6    Zn4   S    
C58   C66   A    
C162  C163  A    
O3    Zn13  S    
N4    H55   S    
C150  C158  A    
C147  C176  S    
C54   C102  A    
C237  C238  S    
C57   C65   A    
C203  H107  S    
C94   O42   A    
C197  H94   S    
C204  H109  S    
C120  C128  A    
O39   Zn3   S    
C169  C175  A    
C141  O21   A    
C148  O36   A    
C18   C42   T    
C218  C219  S    
C125  N7    S    
C7    C21   S    
C254  C255  S    
C186  C187  S    
C10   C29   S    
C75   C83   A    
C15   C28   S    
C12   C184  S    
C195  H89   S    
C13   C177  S    
C150  C167  A    
C90   O14   A    
C84   C108  A    
O1    Zn9   S    
C146  O30   A    
C14   C25   S    
C255  H244  S    
C61   H37   S    
C197  C198  S    
N7    H61   S    
C88   C112  A    
C153  H13   S    
C60   C68   A    
C72   C80   A    
C170  C171  A    
C49   H25   S    
C200  H101  S    
C207  H116  S    
C123  N1    S    
C117  C136  A    
C149  C157  A    
C118  C135  A    
C3    O7    A    
C195  C196  S    
C66   C74   A    
C32   N15   S    
O17   Zn13  S    
C190  H76   S    
C152  C160  A    
O64   C218  S    
O15   Zn11  S    
C70   C78   A    
C186  H67   S    
O76   C254  S    
C206  H114  S    
C160  H2    S    
C250  H232  S    
O1    Zn1   S    
C201  H102  S    
C226  H162  S    
C210  H123  S    
C142  O24   A    
O59   C203  S    
C242  H215  S    
C231  C232  S    
C221  H150  S    
C228  H165  S    
C89   O37   A    
O37   Zn1   S    
C239  H207  S    
C225  H159  S    
C232  H174  S    
C91   O39   A    
C196  H91   S    
C134  C140  A    
C14   C38   S    
C165  C173  A    
C146  C173  S    
C55   C103  A    
C156  C169  A    
C122  N4    S    
C65   C73   A    
O16   Zn12  S    
N13   H185  S    
C248  H229  S    
C113  O53   S    
C5    O49   A    
C121  C124  A    
C26   C34   S    
C116  C129  A    
C217  H140  S    
O13   Zn9   S    
C221  C222  S    
C125  C128  A    
C230  H170  S    
C238  H205  S    
C103  C108  A    
C208  H119  S    
C144  O26   A    
C13   C37   S    
C149  H9    S    
C78   C86   A    
C82   C106  A    
C219  H144  S    
C62   C70   A    
C156  H16   S    
C71   O72   S    
C161  H7    S    
C203  C204  S    
C214  H132  S    
O44   Zn8   S    
C256  H247  S    
C213  H131  S    
C214  H134  S    
C222  H152  S    
C51   C99   A    
C27   N12   S    
C148  C175  S    
C56   H32   S    
C141  O23   A    
C25   N10   S    
O53   C185  S    
O35   Zn5   S    
C11   C183  S    
O70   C236  S    
C93   O17   A    
C147  O35   A    
C216  C217  S    
C254  H242  S    
C2    O6    A    
O28   Zn16  S    
C236  H200  S    
O2    Zn2   S    
C171  C175  A    
C207  C208  S    
O1    Zn11  S    
N3    H54   S    
O2    Zn12  S    
N12   H183  S    
C124  N2    S    
C51   H27   S    
C133  C136  A    
C139  C144  S    
C242  H214  S    
O25   Zn13  S    
C15   C39   S    
C194  H87   S    
O3    Zn15  S    
C145  C174  S    
C250  H233  S    
N16   H192  S    
C233  C234  S    
N2    H51   S    
C165  C168  A    
C193  H84   S    
N9    H178  S    
C166  C167  A    
C169  C172  A    
C12   C36   S    
O36   Zn6   S    
C201  C202  S    
O12   Zn6   S    
C210  C211  S    
C85   C101  A    
C199  H97   S    
O50   Zn14  S    
O57   C197  S    
C61   C69   A    
C35   C180  S    
C231  H172  S    
C252  H238  S    
C33   C178  S    
C205  H111  S    
C239  C240  S    
O22   Zn10  S    
O40   Zn4   S    
C151  C166  A    
C232  H176  S    
O75   C251  S    
C217  H141  S    
C237  H203  S    
C59   H35   S    
C198  H95   S    
C73   H41   S    
C97   C110  A    
C204  H110  S    
O73   C245  S    
C158  C159  A    
C81   C97   A    
O26   Zn14  S    
C4    O48   A    
C99   C112  A    
C234  H196  S    
C198  H96   S    
C83   C107  A    
C13   H21   S    
C64   C72   A    
C220  H146  S    
C144  O28   A    
C17   C41   T    
O63   C215  S    
C114  C122  A    
C16   C180  S    
C187  H70   S    
O45   Zn9   S    
C156  C164  A    
C183  O67   S    
C190  H78   S    
C7    O11   A    
C233  H193  S    
C70   O69   S    
C249  H231  S    
C118  C126  A    
C5    O9    A    
C122  C123  A    
O69   C233  S    
C119  O59   S    
O5    Zn3   S    
