data_mof_unit_30537.cif
_audit_creation_date              2012-12-10T16:59:22-0500
_audit_creation_method            fapswitch 2.2
_symmetry_space_group_name_H-M    P1
_symmetry_Int_Tables_number       1
_space_group_crystal_system       triclinic
_cell_length_a                    13.165801
_cell_length_b                    13.02386
_cell_length_c                    17.927112
_cell_angle_alpha                 109.73399
_cell_angle_beta                  72.62353
_cell_angle_gamma                 90.868478
_cell_volume                      2748.78507848

loop_
_atom_site_label
_atom_site_type_symbol
_atom_type_description
_atom_site_fract_x
_atom_site_fract_y
_atom_site_fract_z
_atom_type_partial_charge
C1    C     C_R   0.217277 0.544043 0.531979 0.861287
C2    C     C_R   0.575623 0.405453 0.905974 -0.215278
C3    C     C_R   0.628742 0.338525 0.931294 -0.035733
C4    C     C_R   0.781908 0.453157 0.466626 0.850471
C5    C     C_R   0.609055 0.360374 0.017135 0.103459
C6    C     C_R   0.533427 0.449275 0.076859 0.092501
C7    C     C_R   0.664543 0.295851 0.044722 -0.249486
C8    C     C_R   0.642991 0.313762 0.129405 -0.015907
C9    C     C_R   0.528175 0.476381 0.160925 -0.265403
C10   C     C_2   0.896031 0.434833 0.454543 0.050541
C11   C     C_2   0.943192 0.514483 0.500152 -0.042384
C12   C     C_R   0.306760 0.626995 0.863677 -0.041962
C13   C     C_2   0.103810 0.565771 0.544257 -0.370491
C14   C     C_2   0.055228 0.494135 0.496242 -0.216868
C15   C     C_2   0.532626 0.898787 0.527361 -0.225344
C16   C     C_R   0.468947 0.217930 0.477478 0.850057
C17   C     C_2   0.443882 0.959939 0.536026 0.197155
C18   C     C_2   0.447802 0.105945 0.475651 -0.343810
C19   C     C_2   0.453174 0.074857 0.538685 -0.156744
C20   C     C_R   0.527939 0.783547 0.523588 0.812607
C21   C     C_R   0.552568 0.433150 0.276940 0.813339
C22   C     C_R   0.448072 0.566191 0.723820 0.783036
C23   C     C_R   0.485339 0.561293 0.852551 0.156251
C24   C     C_R   0.413804 0.586290 0.814335 -0.138990
C25   C     C_R   0.574773 0.405985 0.187596 -0.044316
C26   C     C_R   0.275281 0.645704 0.948881 -0.246015
C27   C     C_3   0.203014 0.800629 0.151074 -0.792200
C28   C     C_R   0.883225 0.623374 0.553020 0.121044
C29   C     C_R   0.797801 0.634956 0.625400 -0.165264
C30   C     C_R   0.733078 0.733943 0.668410 -0.168926
C31   C     C_R   0.754775 0.822222 0.640354 -0.124326
C32   C     C_R   0.842819 0.812620 0.570714 -0.131962
C33   C     C_R   0.906484 0.713301 0.526669 -0.147775
C34   C     C_R   0.443402 0.554423 0.933396 0.032858
C35   C     C_3   0.895518 0.244010 0.362905 -0.803364
C36   C     C_3   0.248340 0.983393 0.559592 -0.783417
C37   C     C_R   0.638964 0.942680 0.512372 0.117215
C38   C     C_R   0.662621 0.026037 0.577064 -0.167340
C39   C     C_R   0.758187 0.074945 0.561002 -0.124671
C40   C     C_R   0.831444 0.039943 0.480640 -0.147260
C41   C     C_R   0.809183 0.956011 0.416225 -0.163560
C42   C     C_R   0.713175 0.907614 0.431865 -0.097507
C43   C     C_R   0.695164 0.237147 0.155183 0.096893
C44   C     C_R   0.633216 0.179802 0.203746 -0.152712
C45   C     C_R   0.342150 0.609089 0.984545 0.029295
C46   C     C_R   0.682597 0.106544 0.226973 -0.143119
C47   C     C_R   0.794012 0.088725 0.200941 -0.123403
C48   C     C_R   0.856242 0.144491 0.151919 -0.151470
C49   C     C_R   0.807176 0.218401 0.129020 -0.146892
C50   C     C_R   0.706171 0.247531 0.865570 0.119656
C51   C     C_R   0.794912 0.270244 0.808615 -0.151553
C52   C     C_R   0.869734 0.185117 0.748290 -0.162980
C53   C     C_R   0.856747 0.076996 0.744587 -0.111494
C54   C     C_R   0.768167 0.053741 0.800519 -0.150527
C55   C     C_R   0.691859 0.138190 0.859537 -0.180660
C56   C     C_R   0.498548 0.492027 0.963232 0.036075
C57   C     C_R   0.223162 0.646570 0.828740 0.169454
C58   C     C_R   0.175314 0.753044 0.851941 -0.143818
C59   C     C_R   0.092545 0.770557 0.822311 -0.131802
C60   C     C_R   0.056304 0.681939 0.770193 -0.102187
C61   C     C_R   0.103309 0.575703 0.747092 -0.129921
C62   C     C_R   0.186581 0.557892 0.776113 -0.132333
C63   C     C_3   0.652044 0.640028 0.861018 -0.817927
C64   C     C_R   0.325505 0.597052 0.193665 0.161433
C65   C     C_R   0.271781 0.516219 0.221070 -0.156759
C66   C     C_R   0.220846 0.538901 0.306184 -0.100056
C67   C     C_R   0.468716 0.508604 0.049959 -0.046411
C68   C     C_R   0.222502 0.642392 0.363878 -0.116966
C69   C     C_R   0.276068 0.722883 0.336908 -0.187258
C70   C     C_R   0.327519 0.700483 0.252148 -0.136454
C71   C     C_R   0.372132 0.578033 0.103560 -0.074284
C72   C     C_R   0.308116 0.623618 0.069800 0.163589
H1    H     H_    0.723506 0.229250 0.001035 0.160357
H2    H     H_    0.164834 0.832451 0.114749 0.222360
H3    H     H_    0.284187 0.829261 0.144376 0.239987
H4    H     H_    0.154657 0.834920 0.217896 0.245696
H5    H     H_    0.779667 0.566285 0.646629 0.134006
H6    H     H_    0.665340 0.741798 0.722715 0.132099
H7    H     H_    0.703406 0.898059 0.672651 0.135461
H8    H     H_    0.861079 0.881445 0.550006 0.155542
H9    H     H_    0.972155 0.705596 0.471005 0.134355
H10   H     H_    0.023572 0.339636 0.354852 0.219848
H11   H     H_    0.951079 0.169025 0.323838 0.230924
H12   H     H_    0.100214 0.417208 0.452943 0.191227
H13   H     H_    0.856164 0.267217 0.323309 0.243067
H14   H     H_    0.834542 0.225049 0.413295 0.264572
H15   H     H_    0.346785 0.835203 0.500267 0.211505
H16   H     H_    0.176883 0.938023 0.572527 0.227776
H17   H     H_    0.251525 0.007463 0.505213 0.230526
H18   H     H_    0.239832 0.057471 0.615631 0.250874
H19   H     H_    0.606228 0.054302 0.639497 0.124946
H20   H     H_    0.775380 0.139997 0.610808 0.149182
H21   H     H_    0.905486 0.077727 0.468324 0.140865
H22   H     H_    0.865824 0.929277 0.353959 0.129274
H23   H     H_    0.061783 0.642549 0.590582 0.168191
H24   H     H_    0.695656 0.844712 0.380944 0.134909
H25   H     H_    0.546794 0.190651 0.222715 0.148263
H26   H     H_    0.634445 0.063072 0.264723 0.127727
H27   H     H_    0.832137 0.031895 0.218889 0.126859
H28   H     H_    0.942554 0.130708 0.131901 0.130072
H29   H     H_    0.856377 0.261291 0.091226 0.130537
H30   H     H_    0.806753 0.353882 0.811657 0.138785
H31   H     H_    0.938197 0.203053 0.704808 0.129603
H32   H     H_    0.915321 0.011306 0.698476 0.129819
H33   H     H_    0.758700 0.970298 0.798503 0.135495
H34   H     H_    0.473426 0.132355 0.590969 0.164398
H35   H     H_    0.623143 0.118850 0.902035 0.132853
H36   H     H_    0.201912 0.822151 0.893083 0.122199
H37   H     H_    0.055962 0.852734 0.840261 0.129320
H38   H     H_    0.991601 0.695564 0.747945 0.122586
H39   H     H_    0.075053 0.507139 0.706843 0.123021
H40   H     H_    0.221737 0.475135 0.758438 0.101499
H41   H     H_    0.626676 0.541790 0.752420 0.241560
H42   H     H_    0.739355 0.627246 0.827721 0.235364
H43   H     H_    0.640039 0.637781 0.924386 0.262666
H44   H     H_    0.621055 0.721856 0.866189 0.234561
H45   H     H_    0.426599 0.049329 0.423490 0.147422
H46   H     H_    0.268484 0.436655 0.176592 0.127095
H47   H     H_    0.179041 0.476711 0.327159 0.129481
H48   H     H_    0.181647 0.661146 0.429444 0.128990
H49   H     H_    0.276687 0.803070 0.381511 0.136375
H50   H     H_    0.368218 0.763792 0.231823 0.126989
H51   H     H_    0.491922 0.553922 0.207352 0.150484
H52   H     H_    0.194621 0.681769 0.985484 0.156573
H53   H     H_    0.589821 0.383040 0.839588 0.176117
H54   H     H_    0.141069 0.649937 0.107585 0.218283
N1    N     N_2   0.207086 0.682138 0.123082 -0.293909
N2    N     N_2   0.954628 0.332064 0.398122 -0.322891
N3    N     N_2   0.343454 0.913536 0.541605 -0.272923
N4    N     N_2   0.598844 0.555051 0.815112 -0.319458
O1    O     O_3   0.500000 0.500000 0.500000 -0.477417
O2    O     O_R   0.474570 0.394560 0.317400 -0.646828
O3    O     O_R   0.403380 0.624270 0.695980 -0.624115
O4    O     O_R   0.609140 0.497770 0.314440 -0.641345
O5    O     O_R   0.512900 0.483390 0.672170 -0.657371
O6    O     O_R   0.526170 0.271940 0.521690 -0.632672
O7    O     O_R   0.451880 0.756290 0.574830 -0.626212
O8    O     O_R   0.271960 0.460780 0.472050 -0.643424
O9    O     O_R   0.749980 0.510990 0.431420 -0.638377
O10   O     O_R   0.262540 0.611050 0.579000 -0.631471
O11   O     O_R   0.715520 0.417170 0.517520 -0.649502
O12   O     O_R   0.426070 0.262540 0.438550 -0.648097
O13   O     O_R   0.595870 0.709230 0.464930 -0.638146
Zn1   Zn    Zn3+2 0.562560 0.419520 0.551940 0.958482
Zn2   Zn    Zn3+2 0.419550 0.406100 0.433160 0.955505
Zn3   Zn    Zn3+2 0.611810 0.553570 0.428930 0.980075
Zn4   Zn    Zn3+2 0.406080 0.620810 0.585960 0.986625

loop_
_geom_bond_atom_site_label_1
_geom_bond_atom_site_label_2
_ccdc_geom_bond_type
C36   H17   S    
O13   Zn3   S    
C66   C68   A    
C52   H31   S    
C34   C56   A    
H54   N1    S    
C41   C42   A    
C39   H20   S    
C20   O13   A    
C8    C43   S    
C14   H12   S    
C40   H21   S    
C6    C9    A    
C9    C25   A    
C7    C8    A    
O9    Zn3   S    
C53   C54   A    
C36   H16   S    
C51   H30   S    
C29   C30   A    
C13   H23   S    
C42   H24   S    
O2    Zn2   S    
C28   C29   A    
C49   H29   S    
C5    C6    A    
C35   H14   S    
C10   N2    S    
C63   N4    S    
C53   H32   S    
C47   H27   S    
O1    Zn3   S    
C18   C19   D    
C64   C71   S    
C37   C42   A    
C15   C37   S    
C26   C45   A    
C17   C19   S    
C46   C47   A    
C63   H42   S    
C27   N1    S    
C41   H22   S    
C68   C69   A    
C65   H46   S    
O1    Zn4   S    
O3    Zn4   S    
C64   C70   A    
C27   H2    S    
C67   C71   A    
C63   H43   S    
C46   H26   S    
C59   C60   A    
C13   C14   D    
C45   C72   A    
C8    C25   A    
O12   Zn2   S    
C69   C70   A    
C26   H52   S    
C27   H3    S    
O10   Zn4   S    
C3    C50   S    
C44   C46   A    
C15   C20   S    
C48   H28   S    
H41   N4    S    
C22   O3    A    
C17   N3    S    
C51   C52   A    
C57   C62   A    
C38   C39   A    
C7    H1    S    
O11   Zn1   S    
C39   C40   A    
C5    C7    A    
C40   C41   A    
C35   H11   S    
C43   C49   A    
C72   N1    S    
C58   C59   A    
C38   H19   S    
C23   N4    S    
C12   C26   A    
C60   C61   A    
C20   O7    A    
C16   O12   A    
C43   C44   A    
C19   H34   S    
C21   O2    A    
C37   C38   A    
C32   H8    S    
C44   H25   S    
C70   H50   S    
C47   C48   A    
C69   H49   S    
C23   C24   A    
C23   C34   A    
C50   C51   A    
C62   H40   S    
C11   C14   S    
C18   H45   S    
H10   N2    S    
C1    O10   A    
C34   C45   A    
C63   H44   S    
C9    H51   S    
C48   C49   A    
C28   C33   A    
C66   H47   S    
C22   C24   S    
C1    C13   S    
C12   C57   S    
C4    C10   S    
C27   H4    S    
C61   H39   S    
C21   O4    A    
C4    O11   A    
C52   C53   A    
C36   H18   S    
C15   C17   D    
C21   C25   S    
C54   C55   A    
O5    Zn1   S    
C54   H33   S    
O7    Zn4   S    
C31   C32   A    
C3    C5    A    
C31   H7    S    
C56   C67   A    
C12   C24   A    
C50   C55   A    
C22   O5    A    
O4    Zn3   S    
C32   C33   A    
H15   N3    S    
C2    C3    A    
C71   C72   A    
O6    Zn1   S    
C6    C67   A    
C36   N3    S    
C64   C65   A    
C4    O9    A    
C35   H13   S    
C57   C58   A    
C30   C31   A    
C11   C28   S    
C59   H37   S    
O1    Zn2   S    
C58   H36   S    
C61   C62   A    
C60   H38   S    
C10   C11   D    
O1    Zn1   S    
C30   H6    S    
C2    H53   S    
C29   H5    S    
C16   C18   S    
C65   C66   A    
C55   H35   S    
C35   N2    S    
C2    C56   A    
O8    Zn2   S    
C33   H9    S    
C68   H48   S    
C1    O8    A    
C16   O6    A    
