data_mof_unit_29390.cif
_audit_creation_date              2012-12-10T16:47:50-0500
_audit_creation_method            fapswitch 2.2
_symmetry_space_group_name_H-M    P1
_symmetry_Int_Tables_number       1
_space_group_crystal_system       triclinic
_cell_length_a                    7.787518
_cell_length_b                    8.576205
_cell_length_c                    10.592794
_cell_angle_alpha                 91.196063
_cell_angle_beta                  84.414803
_cell_angle_gamma                 93.789778
_cell_volume                      702.492045253

loop_
_atom_site_label
_atom_site_type_symbol
_atom_type_description
_atom_site_fract_x
_atom_site_fract_y
_atom_site_fract_z
_atom_type_partial_charge
C1    C     C_R   0.545881 0.794792 0.497059 0.955046
C2    C     C_2   0.569981 0.958369 0.495789 -0.314399
C3    C     C_2   0.757517 0.305989 0.856106 0.998489
C4    C     C_2   0.430054 0.041699 0.505882 -0.337469
C5    C     C_R   0.496707 0.484224 0.737021 0.969726
C6    C     C_R   0.454121 0.205220 0.503564 0.994183
C7    C     C_R   0.500010 0.495847 0.262028 0.962346
C8    C     C_2   0.580728 0.367844 0.063453 0.153743
C9    C     C_2   0.504944 0.485879 0.128175 -0.358703
C10   C     C_2   0.603529 0.373481 0.924970 -0.056203
C11   C     C_2   0.481685 0.441033 0.867565 -0.431138
H1    H     H_    0.460006 0.585627 0.082495 0.137951
H2    H     H_    0.359188 0.465538 0.920211 0.189413
H3    H     H_    0.702042 0.009685 0.486217 0.188339
H4    H     H_    0.297992 0.990417 0.515478 0.174726
H5    H     H_    0.013587 0.380728 0.405901 0.206002
H6    H     H_    0.986330 0.619072 0.594236 0.197721
H7    H     H_    0.853447 0.172151 0.710398 0.335495
I1    I     I_    0.662060 0.167361 0.153333 -0.316377
N1    N     N_2   0.950320 0.457950 0.466680 -0.162050
N2    N     N_2   0.049680 0.542050 0.533320 -0.167296
O1    O     O_R   0.389250 0.738570 0.508180 -0.615185
O2    O     O_R   0.739479 0.211472 0.748422 -0.789968
O3    O     O_R   0.678390 0.711630 0.486820 -0.629252
O4    O     O_R   0.355470 0.513470 0.691600 -0.604375
O5    O     O_R   0.644610 0.486520 0.670240 -0.606222
O6    O     O_R   0.321610 0.288370 0.513180 -0.638725
O7    O     O_R   0.610750 0.261430 0.491820 -0.586907
O8    O     O_R   0.355390 0.513480 0.329760 -0.619113
O9    O     O_R   0.644530 0.486530 0.308400 -0.585590
O10   O     O_2   0.899138 0.329085 0.896262 -0.612032
Zn1   Zn    Zn3+2 0.306940 0.517990 0.514260 0.975413
Zn2   Zn    Zn3+2 0.693060 0.482010 0.485740 0.992412

loop_
_geom_bond_atom_site_label_1
_geom_bond_atom_site_label_2
_ccdc_geom_bond_type
C2    C4    D    
C7    O8    A    
O5    Zn2   S    
C3    O2    S    
O3    Zn2   S    
C3    C10   S    
H5    N1    S    
C4    H4    S    
C1    O1    A    
C7    O9    A    
C3    O10   D    
C11   H2    S    
O1    Zn1   S    
O4    Zn1   S    
H7    O2    S    
C5    O4    A    
N1    Zn2   S    
C4    C6    S    
N2    Zn1   S    
O7    Zn2   S    
C5    C11   S    
O8    Zn1   S    
C2    H3    S    
C9    H1    S    
H6    N2    S    
C8    I1    S    
C10   C11   D    
C5    O5    A    
N1    N2    D    
C1    O3    A    
C8    C10   S    
C1    C2    S    
C7    C9    S    
O9    Zn2   S    
O6    Zn1   S    
C6    O7    A    
C6    O6    A    
C8    C9    D    
