data_mof_unit_5096.cif
_audit_creation_date              2013-03-05T16:11:51-0500
_audit_creation_method            fapswitch 2.2
_symmetry_space_group_name_H-M    P1
_symmetry_Int_Tables_number       1
_space_group_crystal_system       triclinic
_cell_length_a                    10.910707
_cell_length_b                    9.525856
_cell_length_c                    23.20234
_cell_angle_alpha                 90.061652
_cell_angle_beta                  89.122334
_cell_angle_gamma                 90.142279
_cell_volume                      2411.21626239

loop_
_atom_site_label
_atom_site_type_symbol
_atom_site_description
_atom_site_fract_x
_atom_site_fract_y
_atom_site_fract_z
_atom_type_partial_charge
O1    O     O_R   0.317570 0.620260 0.500030 -0.540799
O2    O     O_R   0.317570 0.379740 0.500030 -0.520010
C1    C     C_R   0.258819 0.499707 0.500757 0.937416
O3    O     O_R   0.499840 0.620290 0.417900 -0.587570
O4    O     O_R   0.499840 0.379710 0.417900 -0.582413
C2    C     C_R   0.504384 0.499674 0.390823 0.880974
Cu1   Cu    Cu3+1 0.499860 0.642410 0.500030 1.014235
Cu2   Cu    Cu3+1 0.499860 0.357590 0.500030 1.007393
O5    O     O_R   0.682190 0.620260 0.500010 -0.586253
O6    O     O_R   0.682190 0.379740 0.500010 -0.601649
O7    O     O_R   0.499920 0.620230 0.582140 -0.539037
O8    O     O_R   0.499920 0.379770 0.582140 -0.526401
C3    C     C_R   0.738627 0.500265 0.500858 0.794714
C4    C     C_R   0.502293 0.500158 0.609486 0.866234
C5    C     C_R   0.707036 0.537848 0.877078 0.624920
N1    N     N_R   0.631446 0.450943 0.846793 -0.463208
C6    C     C_R   0.560180 0.352071 0.874092 0.628154
C7    C     C_R   0.552857 0.347919 0.934469 -0.083674
C8    C     C_R   0.622552 0.443583 0.966507 -0.002218
C9    C     C_R   0.704410 0.535694 0.937741 -0.010453
C10   C     C_R   0.471635 0.256544 0.963011 -0.157756
C11   C     C_R   0.453300 0.264224 0.022705 0.337294
C12   C     C_R   0.521159 0.362518 0.055668 -0.133768
C13   C     C_R   0.607841 0.450070 0.027142 -0.038043
C14   C     C_R   0.678337 0.546495 0.058880 0.010268
C15   C     C_R   0.763661 0.633297 0.030007 -0.115759
C16   C     C_R   0.776077 0.628502 0.970093 -0.112251
C17   C     C_R   0.506462 0.376792 0.116055 0.609694
N2    N     N_R   0.573547 0.473945 0.145800 -0.461428
C18   C     C_R   0.660490 0.555358 0.118783 0.598532
O9    O     O_2   0.780003 0.630006 0.848713 -0.475779
O10   O     O_2   0.492201 0.262390 0.842699 -0.457790
H1    H     H_    0.417130 0.182600 0.938725 0.228234
O11   O     O_2   0.426149 0.294705 0.145238 -0.463282
O12   O     O_2   0.728947 0.645131 0.149856 -0.511682
H2    H     H_    0.819241 0.707601 0.053502 0.203125
H3    H     H_    0.840191 0.699708 0.949166 0.205137
C19   C     C_R   0.589485 0.372933 0.241959 -0.079198
H4    H     H_    0.630294 0.280349 0.222574 0.165578
C20   C     C_R   0.570846 0.377276 0.301282 -0.202980
H5    H     H_    0.598189 0.287576 0.326673 0.156802
C21   C     C_R   0.520202 0.496666 0.327657 -0.050141
C22   C     C_R   0.488022 0.611975 0.293545 -0.223673
H6    H     H_    0.448839 0.704026 0.314057 0.183431
C23   C     C_R   0.501805 0.607134 0.233115 0.000527
C24   C     C_R   0.554976 0.485923 0.207256 0.266482
C25   C     C_R   0.497740 0.550856 0.773692 0.323616
C26   C     C_R   0.459426 0.557727 0.715986 -0.144677
C27   C     C_R   0.533824 0.498775 0.671472 -0.128177
C28   C     C_R   0.645580 0.435837 0.686137 -0.087288
H7    H     H_    0.704887 0.392138 0.652881 0.179474
C29   C     C_R   0.681065 0.425277 0.743503 -0.072481
H8    H     H_    0.764693 0.370574 0.753950 0.192652
C30   C     C_R   0.606775 0.480766 0.787385 0.208956
C31   C     C_3   0.062304 0.647176 0.526100 0.177568
C32   C     C_3   0.061329 0.372404 0.541900 0.132363
C33   C     C_3   0.922574 0.649150 0.514589 -0.396400
C34   C     C_3   0.919784 0.400287 0.548620 -0.414147
H9    H     H_    0.870398 0.697499 0.550872 0.244029
H10   H     H_    0.894770 0.449695 0.590474 0.197391
H11   H     H_    0.900388 0.716759 0.477166 0.229681
H12   H     H_    0.866739 0.300744 0.549978 0.244731
H13   H     H_    0.874597 0.516242 0.407771 0.183714
H14   H     H_    0.891084 0.346929 0.433828 0.238069
C35   C     C_3   0.068044 0.470892 0.435832 -0.116810
C36   C     C_3   0.118101 0.498397 0.500690 -0.326080
C37   C     C_3   0.874558 0.500646 0.501282 -0.048570
C38   C     C_3   0.923506 0.455679 0.441156 -0.398093
C39   C     C_3   0.620058 0.083871 0.481045 -0.189197
C40   C     C_3   0.618089 0.918004 0.478261 -0.177684
H15   H     H_    0.697067 0.119137 0.507695 0.227077
H16   H     H_    0.700067 0.876741 0.499351 0.216308
H17   H     H_    0.643477 0.125833 0.437461 0.149514
H18   H     H_    0.632420 0.884717 0.432609 0.149862
C41   C     C_3   0.469575 0.081082 0.559582 0.249816
C42   C     C_3   0.474758 0.915695 0.560016 0.244036
C43   C     C_3   0.411292 0.082766 0.459707 -0.264129
C44   C     C_3   0.407547 0.916474 0.461675 -0.271532
N3    N     N_3   0.500250 0.143650 0.501250 -0.211137
N4    N     N_3   0.500250 0.856350 0.501250 -0.215703
H19   H     H_    0.319286 0.125523 0.466795 0.253115
H20   H     H_    0.316097 0.880995 0.473947 0.257886
H21   H     H_    0.436005 0.115870 0.415034 0.171306
H22   H     H_    0.421841 0.874884 0.417269 0.183635
H23   H     H_    0.373358 0.110031 0.570114 0.156762
H24   H     H_    0.382305 0.877178 0.573637 0.143657
C45   C     C_2   0.337586 0.616956 0.705600 0.985101
O13   O     O_2   0.248593 0.539053 0.705721 -0.538625
O14   O     O_R   0.321754 0.762378 0.705005 -0.647324
H25   H     H_    0.232445 0.790982 0.703528 0.365474
N5    N     N_R   0.114039 0.780096 0.501835 0.122208
O15   O     O_R   0.087212 0.823222 0.450456 -0.324939
O16   O     O_R   0.151266 0.877131 0.537182 -0.312113
N6    N     N_R   0.078820 0.230599 0.516168 0.144852
O17   O     O_R   0.990226 0.166082 0.489926 -0.313794
O18   O     O_R   0.167137 0.152038 0.534229 -0.332882
C46   C     C_2   0.085489 0.655373 0.591049 0.852134
O19   O     O_2   0.191452 0.660499 0.606861 -0.586879
O20   O     O_R   0.990316 0.664797 0.632066 -0.732269
H26   H     H_    0.021170 0.671641 0.672959 0.380458
C47   C     C_2   0.117575 0.363425 0.602656 0.909273
O21   O     O_2   0.052402 0.358074 0.646043 -0.533406
O22   O     O_R   0.243932 0.346670 0.608384 -0.727540
H27   H     H_    0.268217 0.319269 0.648794 0.379676
C48   C     C_2   0.103999 0.587673 0.393593 0.922033
O23   O     O_2   0.027966 0.643317 0.362841 -0.547721
O24   O     O_R   0.227122 0.626914 0.387267 -0.740333
H28   H     H_    0.239884 0.704398 0.357858 0.342737
C49   C     C_2   0.123179 0.341791 0.404859 0.889089
O25   O     O_2   0.057439 0.250772 0.384376 -0.526359
O26   O     O_R   0.249070 0.335377 0.393332 -0.749429
H29   H     H_    0.272925 0.251338 0.368817 0.334501
N7    N     N_R   0.361762 0.174716 0.048122 0.164244
O27   O     O_R   0.370266 0.039420 0.041590 -0.289165
O28   O     O_R   0.257780 0.228274 0.065196 -0.259543
N8    N     N_R   0.543895 0.137060 0.607037 0.166386
O29   O     O_R   0.663094 0.136685 0.604970 -0.341232
O30   O     O_R   0.489890 0.163221 0.656340 -0.298193
N9    N     N_R   0.560162 0.866099 0.604714 0.180457
O31   O     O_R   0.671751 0.826554 0.593220 -0.328042
O32   O     O_R   0.525265 0.869726 0.658510 -0.247309
C50   C     C_2   0.456672 0.727719 0.198717 0.912281
O33   O     O_2   0.433905 0.713643 0.147597 -0.535532
O34   O     O_R   0.437255 0.857804 0.225345 -0.756390
H30   H     H_    0.405845 0.931409 0.197748 0.376878
N10   N     N_R   0.423114 0.609149 0.819365 0.126544
O35   O     O_R   0.311729 0.564099 0.828162 -0.277490
O36   O     O_R   0.469745 0.699160 0.855134 -0.292867

loop_
_geom_bond_atom_site_label_1
_geom_bond_atom_site_label_2
_geom_bond_distance
_ccdc_geom_bond_type
C34   H12   1.109898 S    
C45   O13   1.220590 D    
C47   O21   1.224612 D    
C7    C10   1.400346 A    
C8    C9    1.411436 A    
C22   H6    1.083007 S    
C46   O19   1.219137 D    
Cu1   Cu2   2.713153 S    
C43   C44   1.585185 S    
C32   N6    1.487835 S    
C48   O24   1.399093 S    
C15   C16   1.395369 A    
N10   O35   1.301053 A    
C18   O12   1.349433 S    
H14   C38   1.107636 S    
C17   N2    1.370874 A    
C32   C47   1.548594 S    
C49   O26   1.396797 S    
C19   H4    1.083210 S    
O7    C4    1.309097 A    
C44   N4    1.492205 S    
C33   H9    1.109361 S    
C4    C27   1.483975 S    
C10   H1    1.083817 S    
C43   H21   1.112764 S    
C34   H10   1.109318 S    
C5    N1    1.368349 A    
N8    O29   1.300712 A    
C7    C8    1.404874 A    
C39   H15   1.102376 S    
O5    C3    1.300019 A    
C31   N5    1.492329 S    
C41   H23   1.109622 S    
C11   N7    1.432162 S    
C25   C26   1.410383 A    
C32   C34   1.573044 S    
N1    C6    1.369447 A    
C40   H18   1.114185 S    
Cu2   N3    2.038205 S    
C28   C29   1.395681 A    
O24   H28   1.013629 S    
C39   H17   1.113627 S    
C43   N3    1.494044 S    
C17   O11   1.348087 S    
C47   O22   1.396629 S    
C10   C11   1.398238 A    
C39   C40   1.581377 S    
C33   C37   1.539897 S    
O3    Cu1   1.917003 S    
C35   C48   1.529812 S    
C46   O20   1.400745 S    
C29   C30   1.395967 A    
C28   H7    1.082923 S    
N9    O32   1.299849 A    
C5    C9    1.407556 A    
C42   N9    1.483207 S    
C40   N4    1.502800 S    
C37   C38   1.546590 S    
C13   C14   1.410663 A    
O3    C2    1.309609 A    
N5    O15   1.299203 A    
C14   C15   1.406206 A    
C23   C24   1.421587 A    
C5    O9    1.348828 S    
O1    C1    1.313772 A    
Cu1   O7    1.917058 S    
C41   C42   1.576662 S    
N2    C18   1.368736 A    
N5    O16   1.303349 A    
C44   H20   1.086593 S    
O20   H26   1.013593 S    
C43   H19   1.094293 S    
Cu2   O8    1.916606 S    
C35   C38   1.586234 S    
C31   C46   1.533740 S    
C6    C7    1.402551 A    
C26   C45   1.468820 S    
C12   C17   1.414261 A    
N6    O18   1.296454 A    
C22   C23   1.408587 A    
C35   C49   1.542487 S    
C25   C30   1.406405 A    
C15   H2    1.083084 S    
C20   H5    1.083489 S    
O8    C4    1.310421 A    
C35   C36   1.629470 S    
C45   O14   1.396533 S    
C39   N3    1.495705 S    
C1    C36   1.535376 S    
C21   C22   1.403049 A    
C50   O34   1.399213 S    
C42   H24   1.113853 S    
C31   C36   1.648719 S    
C29   H8    1.082705 S    
C25   N10   1.438353 S    
N7    O27   1.300909 A    
C3    C37   1.483282 S    
C14   C18   1.402998 A    
Cu1   O5    2.001022 S    
H13   C38   1.110295 S    
C26   C27   1.419986 A    
N10   O36   1.300789 A    
O26   H29   1.013747 S    
O1    Cu1   1.999551 S    
O2    Cu2   2.000593 S    
C42   N4    1.497858 S    
O6    C3    1.301736 A    
O4    Cu2   1.917453 S    
N9    O31   1.299031 A    
C33   H11   1.111647 S    
C9    C16   1.403425 A    
C23   C50   1.488540 S    
C48   O23   1.224494 D    
N2    C24   1.441598 S    
C31   C33   1.551960 S    
O2    C1    1.311643 A    
O14   H25   1.013547 S    
C49   O25   1.224151 D    
C19   C20   1.388863 A    
O4    C2    1.305134 A    
C16   H3    1.083116 S    
C32   C36   1.648948 S    
C20   C21   1.401618 A    
N8    O30   1.302833 A    
C8    C13   1.414854 A    
N6    O17   1.302708 A    
N1    C30   1.437290 S    
C19   C24   1.400624 A    
C12   C13   1.416405 A    
C44   H22   1.112374 S    
C34   C37   1.544344 S    
Cu2   O6    1.999980 S    
C27   C28   1.406702 A    
C2    C21   1.473340 S    
O22   H27   1.012863 S    
C6    O10   1.350013 S    
C11   C12   1.422044 A    
Cu1   N4    2.038123 S    
C40   H16   1.099792 S    
C41   N8    1.475852 S    
C50   O33   1.222712 D    
C41   N3    1.511932 S    
O34   H30   1.013884 S    
N7    O28   1.301159 A    
