data_mof_unit_62838.cif
_audit_creation_date              2012-12-10T16:54:00-0500
_audit_creation_method            fapswitch 2.2
_symmetry_space_group_name_H-M    P1
_symmetry_Int_Tables_number       1
_space_group_crystal_system       triclinic
_cell_length_a                    18.458544
_cell_length_b                    18.455458
_cell_length_c                    43.176028
_cell_angle_alpha                 90.004597
_cell_angle_beta                  90.026814
_cell_angle_gamma                 90.010116
_cell_volume                      14708.3819586

loop_
_atom_site_label
_atom_site_type_symbol
_atom_type_description
_atom_site_fract_x
_atom_site_fract_y
_atom_site_fract_z
_atom_type_partial_charge
C1    C     C_R   0.500346 0.999924 0.584400 0.798621
C2    C     C_R   0.004889 0.499787 0.281115 0.315345
C3    C     C_R   0.993965 0.564250 0.331375 -0.190251
C4    C     C_R   0.934913 0.508192 0.831122 -0.179263
C5    C     C_R   0.496874 0.936415 0.831093 -0.179067
C6    C     C_R   0.064718 0.511830 0.831280 -0.183460
C7    C     C_R   0.510037 0.065513 0.831643 -0.191556
C8    C     C_R   0.500912 0.993149 0.315419 0.022834
C9    C     C_R   0.003956 0.499939 0.315321 0.016123
C10   C     C_R   0.999725 0.514309 0.815167 0.005071
C11   C     C_R   0.503823 0.001295 0.815246 0.010460
C12   C     C_R   0.500333 0.996144 0.380990 -0.064569
C13   C     C_R   0.999642 0.519717 0.781032 0.316104
C14   C     C_R   0.999347 0.499783 0.380922 -0.069416
C15   C     C_R   0.999942 0.499620 0.880729 -0.088361
C16   C     C_R   0.501854 0.999743 0.880879 -0.077741
C17   C     C_R   0.505841 0.001438 0.781098 0.316101
C18   C     C_R   0.935237 0.508218 0.668396 -0.179752
C19   C     C_R   0.510135 0.936183 0.668581 -0.182977
C20   C     C_R   0.064785 0.502595 0.668649 -0.184138
C21   C     C_R   0.491455 0.065210 0.668438 -0.191073
C22   C     C_R   0.435411 0.996348 0.168338 -0.193419
C23   C     C_R   0.990321 0.435595 0.168037 -0.197436
C24   C     C_R   0.564504 0.011292 0.168350 -0.193339
C25   C     C_R   0.999992 0.497205 0.584444 0.797989
C26   C     C_R   0.015038 0.563601 0.168358 -0.182922
C27   C     C_R   0.932939 0.496726 0.636467 0.109082
C28   C     C_R   0.510043 0.932993 0.636264 0.095061
C29   C     C_R   0.067335 0.493196 0.636512 0.096059
C30   C     C_R   0.489411 0.066757 0.636059 0.098543
C31   C     C_R   0.433011 0.996635 0.135913 0.088724
C32   C     C_R   0.986630 0.434753 0.135536 0.085822
C33   C     C_R   0.566065 0.012471 0.135995 0.100818
C34   C     C_R   0.016252 0.566338 0.136022 0.092825
C35   C     C_R   0.999973 0.494370 0.619150 -0.082782
C36   C     C_R   0.000577 0.500182 0.084343 0.813530
C37   C     C_R   0.500040 0.999776 0.619001 -0.071538
C38   C     C_R   0.499741 0.003110 0.118958 -0.067600
C39   C     C_R   0.001730 0.500594 0.118853 -0.062741
C40   C     C_R   0.000009 0.511445 0.684504 0.006639
C41   C     C_R   0.502037 0.000966 0.684607 0.016178
C42   C     C_R   0.500167 0.002619 0.184562 0.019351
C43   C     C_R   0.003207 0.499411 0.184373 0.020888
C44   C     C_R   0.500010 0.999463 0.415573 0.810423
C45   C     C_R   0.999423 0.499977 0.415568 0.794026
C46   C     C_R   0.999962 0.499284 0.915495 0.792971
C47   C     C_R   0.499988 0.000556 0.084395 0.804365
C48   C     C_R   0.500765 0.999891 0.915557 0.806786
C49   C     C_R   0.360313 0.137694 0.499829 0.868865
C50   C     C_R   0.862098 0.360477 0.499753 0.875703
C51   C     C_R   0.639613 0.862183 0.499675 0.869052
C52   C     C_R   0.137575 0.639837 0.499978 0.880489
C53   C     C_R   0.639511 0.137908 0.499623 0.873100
C54   C     C_R   0.137607 0.360233 0.500040 0.877489
C55   C     C_R   0.360041 0.862520 0.499876 0.863088
C56   C     C_R   0.862399 0.639771 0.499833 0.877393
C57   C     C_R   0.860460 0.637855 0.999840 0.879345
C58   C     C_R   0.999790 0.518139 0.718571 0.316678
C59   C     C_R   0.363326 0.859415 0.000152 0.868699
C60   C     C_R   0.138681 0.361147 0.999146 0.871717
C61   C     C_R   0.639258 0.138014 0.998649 0.863455
C62   C     C_R   0.139896 0.637398 0.000046 0.884686
C63   C     C_R   0.638190 0.860820 0.999499 0.877325
C64   C     C_R   0.861564 0.360954 0.999025 0.871939
C65   C     C_R   0.360945 0.138290 0.998950 0.875322
C66   C     C_2   0.179719 0.762001 0.482771 0.120309
C67   C     C_2   0.239352 0.181644 0.481502 0.126541
C68   C     C_2   0.817097 0.240834 0.480518 0.116491
C69   C     C_R   0.504962 0.001228 0.718700 0.315362
C70   C     C_2   0.759639 0.817629 0.479749 0.132573
C71   C     C_2   0.817991 0.760131 0.480654 0.123994
C72   C     C_2   0.759025 0.183061 0.479621 0.132349
C73   C     C_2   0.181751 0.239673 0.482087 0.115410
C74   C     C_2   0.237481 0.820172 0.481674 0.132830
C75   C     C_2   0.697498 0.244836 0.971302 0.141908
C76   C     C_2   0.742807 0.684994 0.979732 0.118435
C77   C     C_2   0.321135 0.735452 0.982403 0.149649
C78   C     C_2   0.250306 0.307638 0.974818 0.122227
C79   C     C_2   0.306529 0.247920 0.973820 0.129974
C80   C     C_R   0.500475 0.999806 0.218726 0.316667
C81   C     C_2   0.262253 0.678867 0.983147 0.133388
C82   C     C_2   0.685204 0.742981 0.978910 0.130402
C83   C     C_2   0.754133 0.303975 0.972631 0.137296
C84   C     C_2   0.190389 0.698452 0.498769 -0.346910
C85   C     C_2   0.301275 0.189882 0.498934 -0.346728
C86   C     C_2   0.808443 0.302714 0.497967 -0.345869
C87   C     C_2   0.699315 0.810500 0.498578 -0.350049
C88   C     C_2   0.809322 0.698043 0.498057 -0.345539
C89   C     C_2   0.698558 0.190182 0.498235 -0.346967
C90   C     C_2   0.189456 0.300858 0.499854 -0.341708
C91   C     C_R   0.003998 0.499487 0.218625 0.314638
C92   C     C_2   0.299638 0.811623 0.499325 -0.351562
C93   C     C_2   0.695198 0.192939 0.994612 -0.354852
C94   C     C_2   0.801827 0.690548 0.998940 -0.342647
C95   C     C_2   0.312604 0.799143 0.999084 -0.352539
C96   C     C_2   0.193301 0.304488 0.995353 -0.350026
C97   C     C_2   0.306468 0.195079 0.996348 -0.343465
C98   C     C_2   0.198667 0.689883 0.998948 -0.351434
C99   C     C_2   0.691395 0.802797 0.997826 -0.342891
C100  C     C_2   0.807509 0.303827 0.995028 -0.359193
C101  C     C_R   0.433685 0.986679 0.363970 0.089927
C102  C     C_R   0.500836 0.995011 0.281200 0.315528
C103  C     C_R   0.009078 0.433076 0.363967 0.094484
C104  C     C_R   0.567473 0.002578 0.364112 0.089999
C105  C     C_R   0.989933 0.566159 0.363739 0.104592
C106  C     C_R   0.932528 0.500075 0.863225 0.106122
C107  C     C_R   0.495926 0.932826 0.863427 0.094738
C108  C     C_R   0.067490 0.503131 0.863464 0.104374
C109  C     C_R   0.510625 0.067420 0.864110 0.114556
C110  C     C_R   0.436259 0.984805 0.331563 -0.191420
C111  C     C_R   0.011174 0.435455 0.331563 -0.192333
C112  C     C_R   0.565589 0.001275 0.331689 -0.198033
H1    H     H_    0.238300 0.685831 0.511647 0.122613
H2    H     H_    0.809506 0.733229 0.015449 0.124104
H3    H     H_    0.266048 0.810470 0.013135 0.125520
H4    H     H_    0.182721 0.258983 0.010002 0.124103
H5    H     H_    0.266902 0.191910 0.014488 0.121676
H6    H     H_    0.186420 0.737720 0.011942 0.124055
H7    H     H_    0.736749 0.812664 0.012834 0.124099
H8    H     H_    0.815282 0.260920 0.011429 0.125787
H9    H     H_    0.386184 0.979258 0.318779 0.153284
H10   H     H_    0.016986 0.385388 0.318841 0.154058
H11   H     H_    0.615561 0.008289 0.319000 0.152981
H12   H     H_    0.312277 0.236323 0.513171 0.123379
H13   H     H_    0.988592 0.614296 0.318572 0.154011
H14   H     H_    0.884140 0.509824 0.818535 0.161147
H15   H     H_    0.493814 0.886129 0.818307 0.160119
H16   H     H_    0.115334 0.516540 0.818780 0.158605
H17   H     H_    0.518252 0.115642 0.819058 0.153062
H18   H     H_    0.884556 0.512472 0.680829 0.162371
H19   H     H_    0.520393 0.886610 0.681386 0.157263
H20   H     H_    0.114959 0.500596 0.681547 0.157007
H21   H     H_    0.485135 0.115510 0.681222 0.151824
H22   H     H_    0.385608 0.989084 0.181070 0.154481
H23   H     H_    0.761868 0.314348 0.511868 0.123865
H24   H     H_    0.979047 0.386391 0.180742 0.152439
H25   H     H_    0.614785 0.016629 0.181011 0.153944
H26   H     H_    0.026837 0.612610 0.181170 0.155702
H27   H     H_    0.097698 0.827790 0.462422 0.160197
H28   H     H_    0.103454 0.741898 0.449192 0.218310
H29   H     H_    0.187955 0.122302 0.445351 0.160443
H30   H     H_    0.229609 0.070475 0.471766 0.191161
H31   H     H_    0.895121 0.177578 0.456129 0.157923
H32   H     H_    0.888504 0.265683 0.445836 0.217468
H33   H     H_    0.811019 0.879114 0.442995 0.149465
H34   H     H_    0.690952 0.766577 0.514555 0.126029
H35   H     H_    0.763845 0.928091 0.468822 0.202240
H36   H     H_    0.897049 0.825944 0.457607 0.158595
H37   H     H_    0.897030 0.736971 0.447818 0.209605
H38   H     H_    0.808394 0.122644 0.442575 0.156468
H39   H     H_    0.767281 0.072445 0.469345 0.195845
H40   H     H_    0.099252 0.173484 0.462573 0.166713
H41   H     H_    0.110601 0.260490 0.445781 0.206867
H42   H     H_    0.180885 0.886334 0.448475 0.149275
H43   H     H_    0.235027 0.931043 0.471322 0.200694
H44   H     H_    0.662157 0.266022 0.926270 0.142798
H45   H     H_    0.762493 0.686123 0.511772 0.124240
H46   H     H_    0.610551 0.208789 0.941676 0.226602
H47   H     H_    0.678952 0.605783 0.956306 0.171670
H48   H     H_    0.769276 0.614994 0.943808 0.217924
H49   H     H_    0.380653 0.689299 0.945721 0.151475
H50   H     H_    0.431127 0.750261 0.963402 0.227292
H51   H     H_    0.306910 0.375397 0.942934 0.156944
H52   H     H_    0.217137 0.380175 0.941560 0.201038
H53   H     H_    0.349225 0.280684 0.930396 0.154711
H54   H     H_    0.411506 0.253792 0.955678 0.215975
H55   H     H_    0.330361 0.598071 0.962811 0.183642
H56   H     H_    0.689332 0.234968 0.513601 0.124646
H57   H     H_    0.243523 0.595895 0.951417 0.214252
H58   H     H_    0.630198 0.696095 0.940376 0.162107
H59   H     H_    0.575873 0.735524 0.966025 0.203602
H60   H     H_    0.702549 0.366706 0.936685 0.176209
H61   H     H_    0.793059 0.374458 0.939327 0.194869
H62   H     H_    0.355724 0.956530 0.397645 0.224637
H63   H     H_    0.320793 0.975458 0.362525 0.170249
H64   H     H_    0.040383 0.356300 0.397642 0.213494
H65   H     H_    0.025758 0.321115 0.362756 0.166240
H66   H     H_    0.651722 0.979371 0.395136 0.218273
H67   H     H_    0.233274 0.309672 0.515759 0.123825
H68   H     H_    0.678894 0.022476 0.363003 0.169746
H69   H     H_    0.955835 0.642672 0.398642 0.216284
H70   H     H_    0.964154 0.677205 0.362154 0.168928
H71   H     H_    0.850561 0.484106 0.898892 0.222240
H72   H     H_    0.825219 0.463740 0.863621 0.164144
H73   H     H_    0.483247 0.852104 0.898580 0.226997
H74   H     H_    0.464359 0.824879 0.863849 0.162727
H75   H     H_    0.149397 0.485765 0.898595 0.220730
H76   H     H_    0.177240 0.477624 0.862335 0.163522
H77   H     H_    0.506400 0.152239 0.898231 0.227517
H78   H     H_    0.309211 0.766708 0.514677 0.124517
H79   H     H_    0.548858 0.180621 0.862627 0.168647
H80   H     H_    0.828138 0.455116 0.637219 0.174595
H81   H     H_    0.851040 0.476483 0.601066 0.234464
H82   H     H_    0.514197 0.820209 0.637108 0.169019
H83   H     H_    0.513076 0.850251 0.601434 0.232849
H84   H     H_    0.179573 0.498092 0.636513 0.163958
H85   H     H_    0.148544 0.492996 0.602060 0.228763
H86   H     H_    0.478229 0.180917 0.638217 0.167241
H87   H     H_    0.460050 0.147501 0.601465 0.216054
H88   H     H_    0.320826 0.984981 0.137258 0.170411
H89   H     H_    0.734518 0.189264 0.012948 0.123816
H90   H     H_    0.350016 0.017440 0.103606 0.220793
H91   H     H_    0.946475 0.329478 0.136760 0.172033
H92   H     H_    0.995803 0.347238 0.105668 0.219745
H93   H     H_    0.680501 0.026980 0.136583 0.167332
H94   H     H_    0.644284 0.049462 0.102221 0.213702
H95   H     H_    0.030036 0.678045 0.136979 0.169637
H96   H     H_    0.020814 0.648870 0.101520 0.230955
N1    N     N_R   0.563625 0.000993 0.265499 -0.181918
N2    N     N_R   0.508797 0.064341 0.734308 -0.180934
N3    N     N_R   0.936656 0.517321 0.734221 -0.181392
N4    N     N_R   0.502322 0.938244 0.734402 -0.181744
N5    N     N_R   0.563453 0.003538 0.234451 -0.181604
N6    N     N_R   0.006883 0.562579 0.234289 -0.181915
N7    N     N_R   0.437723 0.993686 0.234415 -0.181668
N8    N     N_R   0.001668 0.436551 0.234359 -0.180920
N9    N     N_3   0.109366 0.775087 0.468637 -0.417708
N10   N     N_3   0.232551 0.120460 0.460140 -0.407829
N11   N     N_3   0.885307 0.229344 0.464487 -0.413537
N12   N     N_R   0.007286 0.562733 0.265389 -0.181425
N13   N     N_3   0.764339 0.877496 0.457460 -0.418716
N14   N     N_3   0.887598 0.773991 0.465797 -0.420485
N15   N     N_3   0.764608 0.122343 0.457789 -0.409612
N16   N     N_3   0.114406 0.227726 0.465655 -0.422794
N17   N     N_3   0.230408 0.881274 0.460094 -0.419576
N18   N     N_3   0.640111 0.254074 0.947922 -0.433705
N19   N     N_3   0.732251 0.618850 0.962223 -0.418852
N20   N     N_3   0.389398 0.712307 0.967780 -0.453131
N21   N     N_3   0.260909 0.373119 0.956654 -0.412886
N22   N     N_3   0.358226 0.243737 0.948237 -0.424483
N23   N     N_R   0.437894 0.991132 0.265453 -0.181584
N24   N     N_3   0.277694 0.607250 0.970106 -0.414395
N25   N     N_3   0.627323 0.739418 0.955791 -0.412345
N26   N     N_3   0.745850 0.367055 0.952336 -0.408817
N27   N     N_3   0.362222 0.989543 0.378276 -0.431958
N28   N     N_3   0.007660 0.361434 0.378201 -0.443781
N29   N     N_3   0.636252 0.018978 0.379077 -0.426750
N30   N     N_3   0.983747 0.637677 0.377771 -0.454550
N31   N     N_3   0.859201 0.498662 0.875943 -0.459336
N32   N     N_3   0.499760 0.859333 0.875983 -0.443157
N33   N     N_3   0.140509 0.506097 0.876500 -0.456321
N34   N     N_R   0.002174 0.436705 0.265465 -0.181437
N35   N     N_3   0.534760 0.135242 0.878316 -0.463969
N36   N     N_3   0.859981 0.490177 0.623950 -0.456421
N37   N     N_3   0.532358 0.863277 0.623135 -0.446595
N38   N     N_3   0.137732 0.472523 0.623939 -0.441180
N39   N     N_3   0.493443 0.138323 0.622094 -0.424042
N40   N     N_3   0.363588 0.981467 0.121254 -0.431809
N41   N     N_3   0.958633 0.369885 0.120597 -0.438076
N42   N     N_3   0.636596 0.014140 0.121183 -0.427919
N43   N     N_3   0.043066 0.633867 0.122563 -0.445622
N44   N     N_R   0.062732 0.521870 0.765368 -0.182465
N45   N     N_R   0.509135 0.064449 0.765396 -0.182880
N46   N     N_R   0.936585 0.518140 0.765289 -0.181543
N47   N     N_R   0.502594 0.938360 0.765453 -0.181713
N48   N     N_R   0.062804 0.521035 0.734296 -0.181965
O1    O     O_3   0.500000 0.000000 0.500000 -0.481979
O2    O     O_R   0.560150 0.000000 0.069320 -0.638840
O3    O     O_R   0.000000 0.560150 0.069320 -0.656736
O4    O     O_R   0.439850 0.000000 0.069320 -0.644817
O5    O     O_R   0.439930 0.000000 0.430670 -0.640046
O6    O     O_R   0.000000 0.439930 0.430670 -0.650698
O7    O     O_R   0.560070 0.000000 0.430670 -0.636841
O8    O     O_R   0.000000 0.560070 0.430670 -0.653726
O9    O     O_R   0.939930 0.500000 0.930670 -0.661634
O10   O     O_R   0.500000 0.939930 0.930670 -0.655131
O11   O     O_R   0.060070 0.500000 0.930670 -0.659267
O12   O     O_3   1.000000 0.500000 0.500000 -0.479893
O13   O     O_R   0.500000 0.060070 0.930670 -0.655225
O14   O     O_R   0.415450 0.144560 0.518170 -0.650353
O15   O     O_R   0.855440 0.415450 0.518170 -0.651011
O16   O     O_R   0.584550 0.855440 0.518170 -0.642011
O17   O     O_R   0.144560 0.584550 0.518170 -0.648240
O18   O     O_R   0.584550 0.144560 0.518170 -0.639728
O19   O     O_R   0.144560 0.415450 0.518170 -0.647461
O20   O     O_R   0.415450 0.855440 0.518170 -0.645470
O21   O     O_R   0.855440 0.584550 0.518170 -0.641858
O22   O     O_R   0.915450 0.644560 0.018170 -0.648100
O23   O     O_3   0.000000 0.500000 0.000000 -0.480034
O24   O     O_R   0.355440 0.915450 0.018170 -0.634275
O25   O     O_R   0.084550 0.355440 0.018170 -0.648090
O26   O     O_R   0.644560 0.084550 0.018170 -0.645190
O27   O     O_R   0.084550 0.644560 0.018170 -0.645404
O28   O     O_R   0.644560 0.915450 0.018170 -0.640234
O29   O     O_R   0.915450 0.355440 0.018170 -0.642493
O30   O     O_R   0.355440 0.084550 0.018170 -0.648589
O31   O     O_R   0.644640 0.915430 0.481820 -0.642200
O32   O     O_R   0.084570 0.644640 0.481820 -0.630510
O33   O     O_R   0.355360 0.084570 0.481820 -0.628858
O34   O     O_3   0.500000 0.000000 0.000000 -0.477845
O35   O     O_R   0.915430 0.355360 0.481820 -0.628201
O36   O     O_R   0.355360 0.915430 0.481820 -0.642388
O37   O     O_R   0.915430 0.644640 0.481820 -0.639745
O38   O     O_R   0.644640 0.084570 0.481820 -0.632725
O39   O     O_R   0.084570 0.355360 0.481820 -0.631446
O40   O     O_R   0.144640 0.415430 0.981820 -0.634270
O41   O     O_R   0.584570 0.144640 0.981820 -0.651709
O42   O     O_R   0.855360 0.584570 0.981820 -0.626939
O43   O     O_R   0.415430 0.855360 0.981820 -0.666832
O44   O     O_R   0.855360 0.415430 0.981820 -0.633322
O45   O     O_R   0.500000 0.939850 0.569320 -0.656474
O46   O     O_R   0.415430 0.144640 0.981820 -0.637019
O47   O     O_R   0.144640 0.584570 0.981820 -0.635779
O48   O     O_R   0.584570 0.855360 0.981820 -0.637305
O49   O     O_R   0.060150 0.500000 0.569320 -0.653025
O50   O     O_R   0.500000 0.060150 0.569320 -0.642690
O51   O     O_R   0.939850 0.500000 0.569320 -0.649519
O52   O     O_R   1.000000 0.439850 0.069320 -0.637926
Zn1   Zn    Zn3+2 0.414160 0.000000 0.474030 0.963640
Zn2   Zn    Zn3+2 0.914220 0.500000 0.525960 0.966752
Zn3   Zn    Zn3+2 0.500000 0.914220 0.525960 0.958535
Zn4   Zn    Zn3+2 0.085780 0.500000 0.525960 0.965005
Zn5   Zn    Zn3+2 1.000000 0.585780 0.025960 0.969548
Zn6   Zn    Zn3+2 0.414220 0.000000 0.025960 0.970113
Zn7   Zn    Zn3+2 0.000000 0.414220 0.025960 0.969360
Zn8   Zn    Zn3+2 0.585780 0.000000 0.025960 0.971746
Zn9   Zn    Zn3+2 0.000000 0.414160 0.474030 0.960462
Zn10  Zn    Zn3+2 0.585840 0.000000 0.474030 0.966036
Zn11  Zn    Zn3+2 0.000000 0.585840 0.474030 0.957677
Zn12  Zn    Zn3+2 0.914160 0.500000 0.974030 0.957807
Zn13  Zn    Zn3+2 0.500000 0.914160 0.974030 0.949685
Zn14  Zn    Zn3+2 0.085840 0.500000 0.974030 0.954133
Zn15  Zn    Zn3+2 0.500000 0.085840 0.974030 0.951174
Zn16  Zn    Zn3+2 0.500000 0.085780 0.525960 0.966728

loop_
_geom_bond_atom_site_label_1
_geom_bond_atom_site_label_2
_ccdc_geom_bond_type
H69   N30   S    
C103  N28   S    
H38   N15   S    
C27   N36   S    
H88   N40   S    
O22   Zn5   S    
C3    C105  A    
C62   O47   A    
O5    Zn1   S    
C12   C104  A    
C74   N17   S    
O13   Zn15  S    
C20   C40   A    
O2    Zn8   S    
H73   N32   S    
H33   N13   S    
C23   C43   A    
C36   O3    A    
C74   C92   D    
C52   C84   S    
C18   C40   A    
C76   C94   D    
O29   Zn7   S    
C78   C96   D    
C46   O11   A    
C64   O44   A    
C58   N48   A    
C93   H89   S    
H46   N18   S    
O11   Zn14  S    
C1    C37   S    
C59   O24   A    
C2    N12   A    
H76   N33   S    
C20   H20   S    
O20   Zn3   S    
C21   H21   S    
C16   C109  A    
C14   C45   S    
C25   O49   A    
C67   C85   D    
C40   C58   S    
H42   N17   S    
C62   O27   A    
C44   O5    A    
O12   Zn11  S    
C45   O8    A    
C27   C35   A    
C101  C110  A    
N1    N5    A    
C81   N24   S    
C15   C108  A    
C55   C92   S    
H29   N10   S    
C47   O4    A    
C68   C72   S    
O12   Zn4   S    
H63   N27   S    
C83   C100  D    
C53   C89   S    
H81   N36   S    
C18   H18   S    
H61   N26   S    
C75   C93   D    
C41   C69   S    
C5    C107  A    
C79   C97   D    
C67   N10   S    
O32   Zn11  S    
O34   Zn15  S    
H50   N20   S    
C31   C38   A    
O49   Zn4   S    
C107  N32   S    
C29   C35   A    
C33   C38   A    
H48   N19   S    
O46   Zn15  S    
C12   C44   S    
N6    N12   A    
C23   C32   A    
C46   O9    A    
O30   Zn6   S    
C97   H5    S    
C33   N42   S    
H94   N42   S    
C99   H7    S    
C71   C88   D    
C77   N20   S    
O24   Zn6   S    
C82   N25   S    
C60   O25   A    
C96   H4    S    
C50   O35   A    
O50   Zn16  S    
H66   N29   S    
C25   O51   A    
C87   H34   S    
C29   N38   S    
C44   O7    A    
O41   Zn15  S    
C58   N3    A    
C78   N21   S    
H83   N37   S    
C55   O20   A    
C23   H24   S    
C15   C106  A    
C73   C90   D    
C54   C90   S    
C66   N9    S    
C110  H9    S    
C56   C88   S    
C47   O2    A    
C66   C74   S    
C70   N13   S    
H30   N10   S    
C63   C99   S    
H93   N42   S    
C14   C105  A    
C108  N33   S    
H77   N35   S    
O48   Zn13  S    
C57   O22   A    
C63   O48   A    
C51   O16   A    
C111  H10   S    
O31   Zn10  S    
C70   C87   D    
O34   Zn13  S    
O37   Zn11  S    
C63   O28   A    
C98   H6    S    
O33   Zn1   S    
O39   Zn9   S    
H58   N25   S    
C61   O41   A    
C34   C39   A    
O15   Zn2   S    
H41   N16   S    
H74   N32   S    
C76   C82   S    
C104  C112  A    
C4    C106  A    
C32   N41   S    
N2    N45   A    
C3    C9    A    
O52   Zn7   S    
C8    C110  A    
C19   C28   A    
C2    N34   A    
C70   C71   S    
H92   N41   S    
C53   O18   A    
C57   C94   S    
C31   N40   S    
H37   N14   S    
N3    N46   A    
C53   O38   A    
H59   N25   S    
O10   Zn13  S    
O23   Zn12  S    
C56   O21   A    
C36   C39   S    
C52   O32   A    
C102  N1    A    
C80   N5    A    
C24   H25   S    
H90   N40   S    
C4    H14   S    
O51   Zn2   S    
N4    N47   A    
O16   Zn3   S    
C6    H16   S    
C12   C101  A    
C14   C103  A    
C28   C37   A    
C13   N46   A    
H39   N15   S    
O8    Zn11  S    
H31   N11   S    
H28   N9    S    
C50   O15   A    
O4    Zn6   S    
C69   N2    A    
C15   C46   S    
C2    C9    S    
H95   N43   S    
O38   Zn10  S    
C64   O29   A    
O19   Zn4   S    
O9    Zn12  S    
C24   C42   A    
C82   C99   D    
H62   N27   S    
H55   N24   S    
O44   Zn12  S    
O23   Zn7   S    
O6    Zn9   S    
C51   O31   A    
C5    C11   A    
C8    C112  A    
C61   C93   S    
C81   C98   D    
O1    Zn16  S    
C103  C111  A    
C48   O10   A    
C32   C39   A    
O36   Zn1   S    
C16   C107  A    
H91   N41   S    
H43   N17   S    
C34   N43   S    
C67   C73   S    
H65   N28   S    
H49   N20   S    
C49   O14   A    
H54   N22   S    
C71   N14   S    
C76   N19   S    
O34   Zn8   S    
C92   H78   S    
C55   O36   A    
C80   N7    A    
C104  N29   S    
C30   N39   S    
C68   N11   S    
C112  H11   S    
O27   Zn5   S    
C72   N15   S    
C30   C37   A    
C65   O30   A    
C89   H56   S    
C91   N8    A    
H27   N9    S    
C77   C81   S    
C5    H15   S    
C69   N4    A    
C88   H45   S    
C25   C35   S    
C59   O43   A    
O3    Zn5   S    
H40   N16   S    
H53   N22   S    
O42   Zn12  S    
O23   Zn14  S    
C102  N23   A    
O23   Zn5   S    
C11   C17   S    
C26   H26   S    
C6    C10   A    
C21   C30   A    
C24   C33   A    
C36   O52   A    
H57   N24   S    
H79   N35   S    
C61   O26   A    
N8    N34   A    
C75   C83   S    
C7    H17   S    
C64   C100  S    
O34   Zn6   S    
H52   N21   S    
C19   C41   A    
C56   O37   A    
C9    C111  A    
C42   C80   S    
C84   H1    S    
H80   N36   S    
C68   C86   D    
C49   O33   A    
H75   N33   S    
O1    Zn10  S    
C16   C48   S    
C94   H2    S    
H64   N28   S    
C7    C11   A    
C17   N45   A    
C22   H22   S    
N7    N23   A    
C91   N6    A    
O21   Zn2   S    
C109  N35   S    
O7    Zn10  S    
O18   Zn16  S    
H85   N38   S    
C85   H12   S    
O1    Zn1   S    
H36   N14   S    
H71   N31   S    
C62   C98   S    
C26   C34   A    
C95   H3    S    
C54   O19   A    
H82   N37   S    
C101  N27   S    
C105  N30   S    
C100  H8    S    
H47   N19   S    
H86   N39   S    
H72   N31   S    
H35   N13   S    
H87   N39   S    
C54   O39   A    
N44   N48   A    
O40   Zn14  S    
C1    O45   A    
C59   C95   S    
C26   C43   A    
C20   C29   A    
O28   Zn8   S    
C19   H19   S    
C22   C31   A    
C49   C85   S    
H32   N11   S    
C57   O42   A    
C51   C87   S    
C78   C79   S    
C77   C95   D    
C43   C91   S    
C7    C109  A    
H96   N43   S    
C79   N22   S    
C86   H23   S    
C83   N26   S    
O35   Zn9   S    
O17   Zn4   S    
C38   C47   S    
C48   O13   A    
C21   C41   A    
C4    C10   A    
C60   C96   S    
H70   N30   S    
H44   N18   S    
C13   N44   A    
C90   H67   S    
C17   N47   A    
C6    C108  A    
O47   Zn14  S    
C73   N16   S    
H84   N38   S    
C75   N18   S    
C18   C27   A    
H51   N21   S    
C10   C13   S    
C60   O40   A    
C3    H13   S    
C52   O17   A    
H60   N26   S    
C65   O46   A    
C1    O50   A    
C106  N31   S    
O1    Zn3   S    
C65   C97   S    
O12   Zn9   S    
C45   O6    A    
C22   C42   A    
O26   Zn8   S    
H68   N29   S    
O43   Zn13  S    
C28   N37   S    
C50   C86   S    
C66   C84   D    
O45   Zn3   S    
O14   Zn16  S    
C72   C89   D    
O25   Zn7   S    
C8    C102  S    
O12   Zn2   S    
