data_mof_unit_8293.cif
_audit_creation_date              2012-10-26T20:40:19-0400
_audit_creation_method            fapswitch 2.2
_symmetry_space_group_name_H-M    P1
_symmetry_Int_Tables_number       1
_space_group_crystal_system       triclinic
_cell_length_a                    15.050801
_cell_length_b                    10.750111
_cell_length_c                    9.63645
_cell_angle_alpha                 89.938967
_cell_angle_beta                  89.434427
_cell_angle_gamma                 93.57985
_cell_volume                      1556.03590435

loop_
_atom_site_label
_atom_site_type_symbol
_atom_type_description
_atom_site_fract_x
_atom_site_fract_y
_atom_site_fract_z
_atom_type_partial_charge
C1    C     C_R   0.498254 0.262792 0.500176 0.534143
C2    C     C_R   0.185077 0.435821 0.393133 -0.129433
C3    C     C_R   0.232120 0.493372 0.502278 -0.027013
C4    C     C_R   0.328936 0.498193 0.500658 0.516802
C5    C     C_R   0.186741 0.544181 0.613946 -0.122289
C6    C     C_R   0.343580 0.115951 0.608170 -0.113089
C7    C     C_R   0.270180 0.044097 0.659699 -0.130699
C8    C     C_R   0.270362 0.914638 0.659410 -0.126902
C9    C     C_R   0.343946 0.856275 0.607887 -0.098268
C10   C     C_R   0.419250 0.927184 0.555946 0.022953
C11   C     C_R   0.419061 0.058604 0.556062 0.019859
C12   C     C_R   0.907380 0.535219 0.613288 -0.039954
C13   C     C_R   0.493769 0.128660 0.500863 -0.001579
C14   C     C_R   0.566406 0.070476 0.445814 -0.159892
C15   C     C_R   0.566678 0.942121 0.446097 -0.142580
C16   C     C_R   0.498910 0.737097 0.500067 0.544037
C17   C     C_R   0.494154 0.870584 0.500777 -0.001943
C18   C     C_R   0.597527 0.701671 0.132496 0.329303
C19   C     C_R   0.613047 0.811863 0.053945 0.251685
C20   C     C_R   0.622819 0.799570 0.911690 -0.205843
C21   C     C_R   0.599569 0.686533 0.850250 -0.152840
C22   C     C_R   0.548676 0.592915 0.922977 0.103057
C23   C     C_R   0.952638 0.358512 0.288397 0.269048
C24   C     C_R   0.548198 0.595971 0.072145 0.116667
C25   C     C_R   0.453880 0.410674 0.074691 -0.006932
C26   C     C_R   0.453491 0.411163 0.927145 0.002572
C27   C     C_R   0.670783 0.494748 0.499587 0.585632
C28   C     C_R   0.815224 0.535023 0.611928 -0.183449
C29   C     C_R   0.767232 0.484628 0.499888 0.008108
C30   C     C_R   0.811092 0.428357 0.388751 0.206263
C31   C     C_R   0.904927 0.422563 0.391154 0.017865
C32   C     C_R   0.952773 0.480757 0.502549 -0.034246
C33   C     C_3   0.735073 0.700188 0.231583 -0.102410
C34   C     C_R   0.045584 0.366658 0.288416 -0.106663
C35   C     C_3   0.584836 0.015969 0.083416 -0.115175
C36   C     C_3   0.897539 0.164516 0.231976 -0.094323
C37   C     C_3   0.065626 0.760474 0.880771 -0.139126
C38   C     C_R   0.092391 0.429131 0.394418 -0.032061
C39   C     C_R   0.046192 0.483594 0.504402 0.001918
C40   C     C_R   0.093684 0.541145 0.615904 0.038825
C41   C     C_R   0.047863 0.595593 0.726266 0.279230
C42   C     C_R   0.954290 0.589566 0.724797 -0.101665
Cu1   Cu    Cu3+1 0.499990 0.499990 0.640660 0.923907
Cu2   Cu    Cu3+1 0.500010 0.500010 0.359340 1.008363
H1    H     H_    0.780726 0.578366 0.696750 0.121929
H2    H     H_    0.415006 0.338317 0.873080 0.113507
H3    H     H_    0.081094 0.321405 0.206134 0.127584
H4    H     H_    0.220718 0.394174 0.308391 0.122865
H5    H     H_    0.224439 0.588174 0.697773 0.169879
H6    H     H_    0.917636 0.626500 0.811090 0.104286
H7    H     H_    0.623746 0.124955 0.404522 0.148514
H8    H     H_    0.761278 0.792889 0.193483 0.144531
H9    H     H_    0.753603 0.626391 0.157830 0.103437
H10   H     H_    0.769171 0.685805 0.330941 0.117129
H11   H     H_    0.514487 0.988981 0.112732 0.125417
H12   H     H_    0.340122 0.216171 0.608197 0.124435
H13   H     H_    0.590092 0.040044 0.971283 0.121376
H14   H     H_    0.605342 0.101563 0.142002 0.161529
H15   H     H_    0.788072 0.413767 0.193771 0.352927
H16   H     H_    0.856464 0.157618 0.328774 0.141853
H17   H     H_    0.962427 0.122574 0.248122 0.093392
H18   H     H_    0.861178 0.109040 0.151123 0.156606
H19   H     H_    0.048576 0.820113 0.791384 0.098444
H20   H     H_    0.119845 0.811796 0.938268 0.141699
H21   H     H_    0.008119 0.746306 0.953374 0.121296
H22   H     H_    0.212683 0.089015 0.699050 0.112879
H23   H     H_    0.213047 0.859087 0.698241 0.128601
H24   H     H_    0.340808 0.755647 0.607838 0.132247
H25   H     H_    0.624441 0.898475 0.405725 0.183621
H26   H     H_    0.415784 0.337457 0.130095 0.108090
H27   H     H_    0.653680 0.874964 0.849965 0.132337
H28   H     H_    0.621538 0.677332 0.745625 0.192242
N1    N     N_R   0.500860 0.501210 0.147910 -0.231305
N2    N     N_R   0.500890 0.501290 0.852040 -0.229661
O1    O     O_R   0.499990 0.319640 0.618810 -0.507414
O2    O     O_3   0.641746 0.921721 0.119000 -0.579998
O3    O     O_3   0.760744 0.379565 0.280768 -0.670653
O4    O     O_3   0.910040 0.288873 0.185470 -0.562131
O5    O     O_3   0.096026 0.644661 0.838354 -0.576377
O6    O     O_R   0.500000 0.319660 0.381240 -0.505996
O7    O     O_R   0.370250 0.499960 0.618800 -0.516156
O8    O     O_R   0.370260 0.499980 0.381230 -0.507377
O9    O     O_R   0.500000 0.680340 0.618760 -0.528414
O10   O     O_R   0.500010 0.680360 0.381190 -0.448819
O11   O     O_R   0.629740 0.500020 0.618770 -0.538308
O12   O     O_R   0.629750 0.500040 0.381200 -0.395357
O13   O     O_3   0.641885 0.695158 0.256417 -0.516547

loop_
_geom_bond_atom_site_label_1
_geom_bond_atom_site_label_2
_ccdc_geom_bond_type
C27   C29   S    
Cu1   O9    S    
C41   C42   A    
C19   C20   A    
H15   O3    S    
C7    C8    A    
C33   H8    S    
C37   O5    S    
C12   C28   A    
C35   H14   S    
C18   C24   A    
C19   O2    S    
Cu2   O8    S    
C30   C31   A    
C36   H18   S    
C24   N1    A    
C10   C17   A    
C16   O10   A    
C18   C19   A    
C32   C39   A    
C27   O11   A    
C12   C42   A    
C30   O3    S    
C4    O7    A    
C31   C32   A    
C8    C9    A    
C37   H21   S    
C20   H27   S    
C9    C10   A    
Cu1   N2    S    
C13   C14   A    
C12   C32   A    
Cu1   O1    S    
C5    H5    S    
Cu2   O12   S    
C37   H19   S    
C33   H9    S    
C15   H25   S    
C35   O2    S    
C21   H28   S    
C35   H11   S    
Cu1   O11   S    
Cu2   O6    S    
C6    C11   A    
C28   H1    S    
C16   C17   S    
C36   H16   S    
C25   C26   A    
C16   O9    A    
C1    O1    A    
C27   O12   A    
Cu1   Cu2   S    
C29   C30   A    
C2    C38   A    
C14   H7    S    
C23   C34   A    
C42   H6    S    
C40   C41   A    
Cu1   O7    S    
C22   C24   A    
C1    C13   S    
C22   N2    A    
C36   H17   S    
C3    C5    A    
C39   C40   A    
C37   H20   S    
C33   H10   S    
C15   C17   A    
C28   C29   A    
C34   C38   A    
C6    H12   S    
Cu2   O10   S    
C41   O5    S    
C6    C7    A    
C25   H26   S    
C18   O13   S    
C35   H13   S    
C2    H4    S    
C2    C3    A    
C33   O13   S    
C9    H24   S    
C36   O4    S    
C7    H22   S    
C11   C13   A    
C38   C39   A    
C26   N2    A    
C25   N1    A    
C23   O4    S    
Cu2   N1    S    
C10   C11   A    
C26   H2    S    
C4    O8    A    
C20   C21   A    
C8    H23   S    
C5    C40   A    
C1    O6    A    
C14   C15   A    
C34   H3    S    
C21   C22   A    
C3    C4    S    
C23   C31   A    
