data_mof_unit_19094.cif
_audit_creation_date              2012-10-26T21:23:15-0400
_audit_creation_method            fapswitch 2.2
_symmetry_space_group_name_H-M    P1
_symmetry_Int_Tables_number       1
_space_group_crystal_system       triclinic
_cell_length_a                    27.820334
_cell_length_b                    10.922517
_cell_length_c                    9.741634
_cell_angle_alpha                 89.109643
_cell_angle_beta                  90.72035
_cell_angle_gamma                 89.886615
_cell_volume                      2959.5732067

loop_
_atom_site_label
_atom_site_type_symbol
_atom_type_description
_atom_site_fract_x
_atom_site_fract_y
_atom_site_fract_z
_atom_type_partial_charge
C1    C     C_R   0.499349 0.265469 0.500855 0.585704
C2    C     C_R   0.974903 0.395963 0.502304 0.019453
C3    C     C_R   0.974256 0.621286 0.489555 0.016719
C4    C     C_R   0.407524 0.500333 0.499113 0.554648
C5    C     C_R   0.949308 0.508259 0.496198 0.036653
C6    C     C_R   0.948558 0.285454 0.496912 -0.142108
C7    C     C_R   0.898628 0.285670 0.493046 -0.108550
C8    C     C_R   0.873066 0.395852 0.495134 0.026531
C9    C     C_R   0.898257 0.507449 0.496922 -0.027074
C10   C     C_R   0.872329 0.618155 0.499515 0.025949
C11   C     C_R   0.821861 0.615167 0.502149 0.403440
C12   C     C_R   0.278760 0.502198 0.616185 -0.076050
C13   C     C_R   0.822632 0.397012 0.494313 0.402340
C14   C     C_R   0.722639 0.443455 0.608958 -0.052692
C15   C     C_R   0.672353 0.434406 0.609046 0.030588
C16   C     C_R   0.500605 0.734479 0.499472 0.555530
C17   C     C_R   0.669649 0.554200 0.395579 -0.160451
C18   C     C_R   0.719647 0.558798 0.394907 -0.053556
C19   C     C_R   0.746382 0.504060 0.501829 0.206671
C20   C     C_R   0.025809 0.397637 0.512502 0.022417
C21   C     C_R   0.050886 0.510017 0.494343 0.029249
C22   C     C_R   0.025205 0.621017 0.477244 0.001233
C23   C     C_R   0.253523 0.501720 0.490923 0.224521
C24   C     C_R   0.052542 0.290473 0.542458 -0.146149
C25   C     C_R   0.101416 0.730804 0.436031 -0.004150
C26   C     C_R   0.947190 0.730883 0.496812 -0.143201
C27   C     C_R   0.897258 0.729073 0.501568 -0.108523
C28   C     C_R   0.592388 0.496698 0.500883 0.587019
C29   C     C_R   0.050962 0.728213 0.444380 -0.118078
C30   C     C_2   0.495572 0.934833 0.388359 -0.159019
C31   C     C_2   0.503470 0.866429 0.501322 -0.106650
C32   C     C_2   0.498168 0.068597 0.388563 -0.145355
C33   C     C_2   0.496795 0.133335 0.504265 -0.095216
C34   C     C_R   0.101970 0.510885 0.493675 -0.031955
C35   C     C_2   0.535968 0.469810 0.924017 -0.034515
C36   C     C_2   0.531630 0.447933 0.076295 0.013092
C37   C     C_R   0.177504 0.400132 0.519086 0.432632
C38   C     C_R   0.178867 0.614734 0.470202 0.422294
C39   C     C_R   0.278802 0.500284 0.365712 0.096557
C40   C     C_R   0.329307 0.500627 0.370525 -0.149885
C41   C     C_R   0.328768 0.501608 0.619195 -0.140236
C42   C     C_2   0.253696 0.497429 0.229651 0.602663
C43   C     C_3   0.126833 0.849247 0.391779 -0.220139
C44   C     C_3   0.095020 0.958454 0.346292 -0.346706
C45   C     C_R   0.127319 0.400577 0.520058 0.032729
C46   C     C_3   0.125525 0.065312 0.294479 -0.425369
C47   C     C_3   0.470686 0.604049 0.103950 -0.061456
C48   C     C_3   0.501144 0.715883 0.059981 -0.284873
C49   C     C_3   0.469015 0.820996 0.008837 -0.467661
C50   C     C_2   0.649909 0.355971 0.716169 0.573145
C51   C     C_R   0.102257 0.292377 0.547077 -0.125660
C52   C     C_R   0.127698 0.620902 0.466844 0.027685
C53   C     C_R   0.354515 0.500938 0.496453 -0.021533
C54   C     C_R   0.645377 0.493420 0.502313 -0.015508
Cu1   Cu    Cu3+1 0.500010 0.500020 0.638630 0.960389
Cu2   Cu    Cu3+1 0.499990 0.499980 0.361370 0.934420
H1    H     H_    0.347215 0.502031 0.717735 0.147988
H2    H     H_    0.259345 0.503639 0.711813 0.148013
H3    H     H_    0.492362 0.090816 0.604387 0.100675
H4    H     H_    0.571220 0.462727 0.879021 0.175055
H5    H     H_    0.467174 0.466583 0.881902 0.226110
H6    H     H_    0.558810 0.390560 0.125741 0.140657
H7    H     H_    0.121034 0.207727 0.571679 0.157403
H8    H     H_    0.743791 0.399406 0.689898 0.170083
H9    H     H_    0.880127 0.198579 0.489042 0.168893
H10   H     H_    0.965578 0.196945 0.491496 0.104716
H11   H     H_    0.035985 0.203904 0.567198 0.105300
H12   H     H_    0.963625 0.819926 0.503545 0.103449
H13   H     H_    0.349102 0.499348 0.275499 0.161628
H14   H     H_    0.192733 0.465596 0.121380 0.339206
H15   H     H_    0.152055 0.092844 0.374247 0.194575
H16   H     H_    0.145015 0.039123 0.200520 0.171914
H17   H     H_    0.101954 0.144877 0.269129 0.161960
H18   H     H_    0.070391 0.930943 0.261528 0.170748
H19   H     H_    0.073595 0.990357 0.434501 0.153892
H20   H     H_    0.149485 0.880640 0.479114 0.200460
H21   H     H_    0.150038 0.827617 0.303239 0.202549
H22   H     H_    0.449680 0.794336 0.913413 0.174378
H23   H     H_    0.649830 0.599490 0.312827 0.139875
H24   H     H_    0.442261 0.845343 0.087583 0.148529
H25   H     H_    0.491379 0.902704 0.985866 0.147836
H26   H     H_    0.523586 0.746911 0.147499 0.177651
H27   H     H_    0.526196 0.694497 0.976482 0.181065
H28   H     H_    0.443019 0.579948 0.027321 0.097540
H29   H     H_    0.447884 0.634309 0.189086 0.186607
H30   H     H_    0.598964 0.231742 0.764358 0.332957
H31   H     H_    0.878244 0.815506 0.506818 0.168898
H32   H     H_    0.737677 0.604816 0.310894 0.153223
H33   H     H_    0.031461 0.810274 0.419156 0.107542
H34   H     H_    0.487503 0.892120 0.291350 0.142052
H35   H     H_    0.512965 0.906024 0.599134 0.108231
H36   H     H_    0.500259 0.114568 0.289118 0.152766
N1    N     N_R   0.201968 0.505586 0.493131 -0.365192
N2    N     N_R   0.798044 0.505603 0.499184 -0.395917
N3    N     N_2   0.499480 0.498660 0.846910 -0.363558
N4    N     N_2   0.499460 0.498630 0.153040 -0.248412
O1    O     O_R   0.500010 0.321960 0.617040 -0.478906
O2    O     O_R   0.569740 0.500000 0.617090 -0.472087
O3    O     O_R   0.569730 0.499960 0.382940 -0.504183
O4    O     O_2   0.201907 0.294751 0.542667 -0.500083
O5    O     O_2   0.275681 0.523000 0.125084 -0.536332
O6    O     O_R   0.205314 0.463899 0.219505 -0.684033
O7    O     O_2   0.666734 0.353159 0.832796 -0.530038
O8    O     O_R   0.610843 0.281263 0.682740 -0.677007
O9    O     O_2   0.798325 0.290380 0.487727 -0.483107
O10   O     O_2   0.205890 0.715725 0.452146 -0.519031
O11   O     O_2   0.796822 0.720813 0.508870 -0.485938
O12   O     O_R   0.499990 0.321920 0.382900 -0.494578
O13   O     O_R   0.430270 0.500040 0.617060 -0.505756
O14   O     O_R   0.430260 0.500000 0.382910 -0.519402
O15   O     O_R   0.500010 0.678080 0.617100 -0.489377
O16   O     O_R   0.499990 0.678040 0.382960 -0.523438

loop_
_geom_bond_atom_site_label_1
_geom_bond_atom_site_label_2
_ccdc_geom_bond_type
C10   C27   A    
C4    O13   A    
C50   O8    S    
C8    C13   A    
C22   C29   A    
C4    C53   S    
C35   C36   S    
C30   H34   S    
H30   O8    S    
C25   C43   S    
C29   H33   S    
C1    C33   S    
C7    C8    A    
C16   C31   S    
C12   C23   A    
C26   C27   A    
C47   H29   S    
C30   C31   D    
C38   C52   A    
C45   C51   A    
C17   H23   S    
C49   H22   S    
Cu1   O2    S    
C18   C19   A    
C15   C50   S    
C49   H25   S    
Cu2   O12   S    
C24   H11   S    
C20   C24   A    
C8    C9    A    
C47   N4    S    
C9    C10   A    
C46   H16   S    
C12   H2    S    
C24   C51   A    
C50   O7    D    
C33   H3    S    
C21   C22   A    
Cu1   O13   S    
C2    C6    A    
C36   H6    S    
C42   O6    S    
Cu2   O14   S    
C44   C46   S    
C39   C42   S    
C25   C29   A    
C40   H13   S    
C2    C20   A    
C15   C54   A    
C51   H7    S    
Cu1   N3    S    
C1    O1    A    
C39   C40   A    
C28   C54   S    
C21   C34   A    
C18   H32   S    
C23   N1    S    
C35   H4    S    
C38   O10   S    
C44   H19   S    
C27   H31   S    
C43   C44   S    
C5    C9    A    
C12   C41   A    
C7    H9    S    
C36   N4    D    
C47   C48   S    
C14   H8    S    
Cu1   O1    S    
Cu1   Cu2   S    
H14   O6    S    
C17   C18   A    
C37   N1    A    
C34   C45   A    
C47   H28   S    
C44   H18   S    
C41   C53   A    
C46   H15   S    
C19   N2    S    
C28   O3    A    
C13   O9    S    
C48   C49   S    
C31   H35   S    
C11   O11   S    
C2    C5    A    
C37   C45   A    
C42   O5    D    
C16   O16   A    
C28   O2    A    
C43   H20   S    
Cu2   N4    S    
C4    O14   A    
Cu1   O15   S    
C14   C19   A    
C3    C26   A    
C11   N2    A    
C3    C5    A    
H5    N3    S    
C6    C7    A    
C35   N3    D    
C43   H21   S    
C34   C52   A    
C48   H27   S    
C13   N2    A    
C26   H12   S    
C32   C33   D    
C25   C52   A    
C41   H1    S    
C30   C32   S    
C32   H36   S    
C23   C39   A    
C38   N1    A    
C48   H26   S    
C46   H17   S    
C10   C11   A    
C1    O12   A    
C6    H10   S    
C20   C21   A    
C40   C53   A    
C49   H24   S    
C14   C15   A    
C3    C22   A    
Cu2   O3    S    
C17   C54   A    
Cu2   O16   S    
C37   O4    S    
C16   O15   A    
