data_mof_unit_23588.cif
_audit_creation_date              2012-12-11T16:33:28-0500
_audit_creation_method            fapswitch 2.2
_symmetry_space_group_name_H-M    P1
_symmetry_Int_Tables_number       1
_space_group_crystal_system       triclinic
_cell_length_a                    6.941758
_cell_length_b                    18.208082
_cell_length_c                    20.201297
_cell_angle_alpha                 68.474165
_cell_angle_beta                  91.32321
_cell_angle_gamma                 90.275095
_cell_volume                      2374.62166778

loop_
_atom_site_label
_atom_site_type_symbol
_atom_type_description
_atom_site_fract_x
_atom_site_fract_y
_atom_site_fract_z
_atom_type_partial_charge
O1    O     O_R   0.488960 0.443750 0.941980 -0.532962
O2    O     O_R   0.823890 0.406510 0.087590 -0.535127
O3    O     O_R   0.999680 0.556250 0.058020 -0.522707
C1    C     C_R   0.657175 0.384449 0.115929 0.661870
O4    O     O_R   0.818360 0.434410 0.944340 -0.537407
O5    O     O_R   0.994110 0.584350 0.913750 -0.536153
C2    C     C_R   0.648599 0.419918 0.924227 0.723281
O6    O     O_R   0.494530 0.415650 0.086250 -0.539648
O7    O     O_3   0.662590 0.549160 0.990130 -0.374229
V1    V     V_3+5 0.935320 0.490880 0.001830 1.447897
O8    O     O_R   0.324180 0.593490 0.912410 -0.539069
C3    C     C_R   0.153227 0.614920 0.884020 0.770099
O9    O     O_R   0.329720 0.565590 0.055660 -0.555386
C4    C     C_R   0.162509 0.580742 0.075238 0.733561
V2    V     V_3+5 0.435990 0.509120 0.998170 1.419579
O10   O     O_3   0.158850 0.450840 0.009870 -0.365026
C5    C     C_3   0.992234 0.726584 0.291197 0.010468
C6    C     C_3   0.167016 0.677255 0.285479 -0.172546
H1    H     H_    0.192776 0.613898 0.317790 0.131347
H2    H     H_    0.439481 0.740621 0.313715 0.177359
C7    C     C_1   0.157916 0.628345 0.119142 -0.129894
C8    C     C_1   0.109332 0.877169 0.376018 -0.037131
C9    C     C_3   0.966648 0.761633 0.209188 -0.251495
C10   C     C_3   0.143808 0.713386 0.203650 0.135803
C11   C     C_3   0.103567 0.829655 0.207511 0.035851
C12   C     C_3   0.125964 0.794960 0.289136 0.130176
C13   C     C_3   0.280019 0.781757 0.200552 -0.200064
C14   C     C_3   0.302228 0.746490 0.283093 -0.132972
C15   C     C_1   0.152642 0.667190 0.156776 0.000769
C16   C     C_1   0.116735 0.840086 0.336979 0.148534
H3    H     H_    0.399240 0.804793 0.162826 0.116804
H4    H     H_    0.828054 0.768067 0.178975 0.120009
H5    H     H_    0.131946 0.520713 0.680205 0.115867
C17   C     C_R   0.094994 0.774541 0.875080 -0.137443
C18   C     C_R   0.064424 0.850945 0.872921 -0.118701
C19   C     C_R   0.051787 0.913641 0.807965 -0.127853
C20   C     C_R   0.071539 0.900482 0.744735 -0.144176
C21   C     C_R   0.103674 0.823482 0.745152 0.086743
C22   C     C_R   0.113488 0.759187 0.811665 0.057612
C23   C     C_R   0.132733 0.810599 0.680914 -0.173812
C24   C     C_R   0.174855 0.732156 0.683936 -0.074566
C25   C     C_R   0.144793 0.666954 0.748979 0.022795
C26   C     C_R   0.135820 0.681050 0.813857 -0.178241
C27   C     C_R   0.244431 0.715523 0.624603 -0.078329
C28   C     C_R   0.227060 0.638188 0.623818 -0.016879
C29   C     C_R   0.153889 0.578618 0.682617 -0.261889
C30   C     C_R   0.125450 0.589834 0.746511 0.276779
H6    H     H_    0.101998 0.727722 0.926992 0.082136
H7    H     H_    0.049753 0.861483 0.921941 0.106378
H8    H     H_    0.027804 0.972929 0.806526 0.111837
H9    H     H_    0.063605 0.951601 0.695762 0.107887
H10   H     H_    0.553961 0.373500 0.426006 0.135408
C31   C     C_R   0.625230 0.097539 0.254313 -0.133227
C32   C     C_R   0.635067 0.083111 0.190950 0.056622
C33   C     C_R   0.652811 0.146693 0.126680 -0.197818
C34   C     C_R   0.658703 0.223755 0.125243 -0.133987
C35   C     C_R   0.646117 0.239888 0.188478 0.085465
C36   C     C_R   0.629204 0.175442 0.254283 0.027856
C37   C     C_R   0.651413 0.318682 0.186523 -0.152962
C38   C     C_R   0.636882 0.333483 0.251322 -0.026877
C39   C     C_R   0.593131 0.268655 0.315893 -0.003607
C40   C     C_R   0.608275 0.189275 0.318340 -0.177500
C41   C     C_R   0.667349 0.409842 0.255812 -0.013179
C42   C     C_R   0.650868 0.419216 0.321019 -0.157294
C43   C     C_R   0.581585 0.359393 0.379587 -0.169911
C44   C     C_R   0.535918 0.285695 0.376456 0.271908
H11   H     H_    0.609738 0.047265 0.303401 0.140970
H12   H     H_    0.661260 0.136792 0.077106 0.108827
H13   H     H_    0.672560 0.270465 0.073705 0.102178
H14   H     H_    0.678500 0.475944 0.325476 0.150606
O11   O     O_R   0.770540 0.084530 0.414050 -0.540311
O12   O     O_R   0.445710 0.065660 0.555720 -0.533701
O13   O     O_R   0.270420 0.915650 0.586190 -0.552970
C45   C     C_R   0.615431 0.079368 0.576739 0.755924
O14   O     O_R   0.441140 0.093540 0.412470 -0.539291
O15   O     O_R   0.265820 0.943740 0.441930 -0.519879
C46   C     C_R   0.608027 0.120076 0.387423 0.737141
O16   O     O_R   0.775150 0.056440 0.558310 -0.543980
O17   O     O_3   0.602370 0.950960 0.510050 -0.366601
V3    V     V_3+5 0.329450 0.009140 0.498150 1.452787
O18   O     O_R   0.935790 0.934280 0.444060 -0.534416
C47   C     C_R   0.102942 0.921774 0.422435 0.758002
O19   O     O_R   0.940370 0.906390 0.587310 -0.536817
C48   C     C_R   0.112739 0.879336 0.611817 0.682686
V4    V     V_3+5 0.828810 0.990710 0.501460 1.468610
O20   O     O_3   0.105780 0.049100 0.489960 -0.377730
C49   C     C_3   0.806351 0.242848 0.783183 -0.192078
C50   C     C_3   0.772054 0.278074 0.701003 -0.149701
H15   H     H_    0.884859 0.301110 0.660529 0.106689
H16   H     H_    0.948724 0.236667 0.810931 0.117800
C51   C     C_1   0.626101 0.124895 0.622374 -0.198117
C52   C     C_1   0.638719 0.373937 0.879101 -0.214965
C53   C     C_3   0.667832 0.173693 0.788578 -0.118111
C54   C     C_3   0.632841 0.209586 0.707275 0.135844
C55   C     C_3   0.495251 0.222433 0.798519 -0.186781
C56   C     C_3   0.633634 0.290904 0.792939 0.122690
C57   C     C_3   0.459774 0.257694 0.716517 -0.192715
C58   C     C_3   0.600046 0.324876 0.712331 0.343771
C59   C     C_1   0.630776 0.163114 0.660572 -0.060213
C60   C     C_1   0.634848 0.336187 0.840575 -0.061821
H17   H     H_    0.317770 0.264886 0.688360 0.112614
H18   H     H_    0.381782 0.199488 0.838738 0.119145
H19   H     H_    0.696541 0.110369 0.820122 0.111396
C61   C     C_2   0.365279 0.773525 0.571143 0.465149
H20   H     H_    0.473771 0.805928 0.588528 0.058409
O21   O     O_2   0.347981 0.784623 0.508031 -0.507227
C62   C     C_2   0.289492 0.614151 0.564794 0.467538
H21   H     H_    0.207173 0.570009 0.552073 0.025274
O22   O     O_2   0.438863 0.638238 0.533518 -0.493649
N1    N     N_2   0.057345 0.525156 0.805810 -0.519968
H22   H     H_    0.909628 0.524377 0.810079 0.250001
C63   C     C_3   0.143705 0.448271 0.820640 -0.508752
H23   H     H_    0.128715 0.411708 0.877832 0.219037
H24   H     H_    0.299549 0.454054 0.808605 0.196576
H25   H     H_    0.069872 0.417644 0.788761 0.167445
C64   C     C_2   0.623971 0.001910 0.190890 0.458144
H26   H     H_    0.630735 0.992256 0.141057 0.014356
O23   O     O_2   0.607155 0.944905 0.246162 -0.526207
C65   C     C_2   0.831487 0.692541 0.341313 0.387346
H27   H     H_    0.746713 0.644496 0.336455 0.040717
O24   O     O_2   0.795209 0.718167 0.387620 -0.498321
C66   C     C_2   0.722966 0.482496 0.196564 0.344865
H28   H     H_    0.640405 0.504336 0.147185 0.072895
O25   O     O_2   0.856505 0.522318 0.204800 -0.543752
N2    N     N_2   0.407895 0.233812 0.427168 -0.512587
H29   H     H_    0.295256 0.215650 0.402743 0.270014
C67   C     C_3   0.341963 0.253640 0.486170 -0.547952
H30   H     H_    0.251904 0.204928 0.521189 0.207197
H31   H     H_    0.252336 0.308136 0.466225 0.189923
H32   H     H_    0.466315 0.261524 0.518384 0.200135
N3    N     N_2   0.557926 0.406928 0.670603 -0.525249
H33   H     H_    0.427528 0.425376 0.682550 0.242556
C68   C     C_3   0.713128 0.461540 0.666593 -0.533215
H34   H     H_    0.671454 0.521244 0.628919 0.236291
H35   H     H_    0.845566 0.443198 0.646883 0.191781
H36   H     H_    0.743255 0.464897 0.719592 0.189449
C69   C     C_2   0.071355 0.914462 0.161373 0.356699
H37   H     H_    0.047215 0.930627 0.104554 0.021103
O26   O     O_2   0.073353 0.965587 0.187008 -0.532134

loop_
_geom_bond_atom_site_label_1
_geom_bond_atom_site_label_2
_ccdc_geom_bond_type
C36   C40   A    
C49   C50   S    
C53   C54   S    
C24   C25   A    
C23   C48   S    
C40   C46   S    
O2    C1    A    
C55   C56   S    
C10   C13   S    
O11   C46   A    
C1    O6    A    
C53   H19   S    
C63   H24   S    
C57   C58   S    
C27   C61   S    
C31   C32   A    
C64   H26   S    
C69   O26   D    
C34   H13   S    
C5    C9    S    
C38   C41   A    
C6    C10   S    
C5    C12   S    
C8    C47   S    
C4    C7    S    
C19   C20   A    
C6    H1    S    
C3    C26   S    
O5    C3    A    
C21   C22   A    
C20   H9    S    
C35   C37   A    
V2    O10   S    
C49   C53   S    
C34   C35   A    
C17   C18   A    
N1    H22   S    
C63   H23   S    
V3    O20   S    
O11   V4    S    
O8    V2    S    
C39   C44   A    
C18   C19   A    
C56   C58   S    
C58   N3    S    
C18   H7    S    
C68   H36   S    
C62   H21   S    
O1    V2    S    
C42   H14   S    
O14   V3    S    
O13   C48   A    
C55   H18   S    
C37   C38   A    
C53   C55   S    
O9    C4    A    
H5    C29   S    
C62   O22   D    
C61   O21   D    
C61   H20   S    
O18   C47   A    
N1    C63   S    
C65   O24   D    
C50   C54   S    
C13   H3    S    
C17   C22   A    
C6    C14   S    
O12   C45   A    
O15   C47   A    
O4    C2    A    
C33   H12   S    
C22   C26   A    
H2    C14   S    
C54   C57   S    
C11   C12   S    
V4    O20   S    
C7    C15   T    
O17   V3    S    
C32   C64   S    
C38   C39   A    
C45   C51   S    
C11   C69   S    
C67   H31   S    
C20   C21   A    
O19   C48   A    
C31   C36   A    
C57   H17   S    
C49   C56   S    
C33   C34   A    
C5    C6    S    
O14   C46   A    
O3    C4    A    
O16   V4    S    
C23   C24   A    
O19   V4    S    
C12   C16   S    
O6    V2    S    
O9    V2    S    
C68   H34   S    
C24   C27   A    
C17   H6    S    
C25   C26   A    
C66   O25   D    
C67   H30   S    
O2    V1    S    
O17   V4    S    
C41   C66   S    
C19   H8    S    
C27   C28   A    
C52   C60   T    
N2    C67   S    
O7    V1    S    
C32   C33   A    
C29   C30   A    
C8    C16   T    
O1    C2    A    
O15   V3    S    
N3    C68   S    
O5    V1    S    
C65   H27   S    
C55   C57   S    
C11   C13   S    
C30   N1    S    
C69   H37   S    
C12   C14   S    
C44   N2    S    
C42   C43   A    
O7    V2    S    
C67   H32   S    
O4    V1    S    
O12   V3    S    
O3    V1    S    
V1    O10   S    
C9    H4    S    
C21   C23   A    
C35   C36   A    
N2    H29   S    
C54   C59   S    
C2    C52   S    
C56   C60   S    
C1    C37   S    
O13   V3    S    
C64   O23   D    
C25   C30   A    
C9    C11   S    
C39   C40   A    
C31   H11   S    
C50   C58   S    
C5    C65   S    
C9    C10   S    
C28   C62   S    
C41   C42   A    
C28   C29   A    
C10   C15   S    
C50   H15   S    
C43   C44   A    
C45   O16   A    
C49   H16   S    
C13   C14   S    
C68   H35   S    
C51   C59   T    
C66   H28   S    
C63   H25   S    
O18   V4    S    
H10   C43   S    
N3    H33   S    
O8    C3    A    
