data_mof_unit_16173.cif
_audit_creation_date              2012-10-26T18:40:35-0400
_audit_creation_method            fapswitch 2.2
_symmetry_space_group_name_H-M    P1
_symmetry_Int_Tables_number       1
_space_group_crystal_system       triclinic
_cell_length_a                    15.196064
_cell_length_b                    14.021734
_cell_length_c                    11.707308
_cell_angle_alpha                 89.85313
_cell_angle_beta                  93.66958
_cell_angle_gamma                 89.818168
_cell_volume                      2489.40005919

loop_
_atom_site_label
_atom_site_type_symbol
_atom_type_description
_atom_site_fract_x
_atom_site_fract_y
_atom_site_fract_z
_atom_type_partial_charge
C1    C     C_R   0.330541 0.500397 0.506873 0.571950
C2    C     C_R   0.500298 0.499903 0.715856 0.540295
C3    C     C_R   0.516826 0.107173 0.600704 0.257765
C4    C     C_R   0.433767 0.893732 0.437902 0.245439
C5    C     C_R   0.484401 0.108813 0.397022 0.252790
C6    C     C_R   0.568840 0.892892 0.557495 0.241149
C7    C     C_1   0.499826 0.500228 0.162413 -0.000538
C8    C     C_1   0.500189 0.499760 0.837588 -0.000770
C9    C     C_1   0.499943 0.500107 0.059919 -0.030618
C10   C     C_1   0.500077 0.499871 0.940083 -0.030792
C11   C     C_R   0.527833 0.207093 0.596244 0.315995
C12   C     C_R   0.669471 0.500160 0.492854 0.569712
C13   C     C_R   0.436636 0.792799 0.435178 0.329267
C14   C     C_R   0.472048 0.208422 0.403319 0.318371
C15   C     C_R   0.564322 0.792092 0.563138 0.325508
C16   C     C_R   0.096945 0.585335 0.467046 0.241066
C17   C     C_R   0.905199 0.425100 0.448898 0.243892
C18   C     C_R   0.902557 0.586647 0.524557 0.240714
C19   C     C_R   0.095372 0.426981 0.552980 0.244143
C20   C     C_R   0.187450 0.588347 0.492773 0.208257
C21   C     C_R   0.813168 0.420094 0.453418 0.189248
C22   C     C_R   0.811855 0.588569 0.499968 0.208319
C23   C     C_R   0.234180 0.502747 0.515804 -0.089451
C24   C     C_R   0.187559 0.421899 0.549799 0.188627
C25   C     C_3   0.445593 0.038440 0.745421 0.004696
C26   C     C_3   0.455166 0.950645 0.821828 -0.350475
C27   C     C_3   0.288652 0.939680 0.421801 0.015591
C28   C     C_3   0.222105 0.000615 0.351431 -0.361663
C29   C     C_3   0.557501 0.049705 0.249907 0.009028
C30   C     C_3   0.546716 0.994736 0.138320 -0.349112
C31   C     C_3   0.715116 0.933539 0.570822 0.015033
C32   C     C_3   0.786726 0.981120 0.647439 -0.359139
C33   C     C_3   0.042944 0.652068 0.299873 0.011644
C34   C     C_R   0.765803 0.502130 0.482664 -0.090060
C35   C     C_3   0.018802 0.747303 0.243602 -0.356903
C36   C     C_3   0.963255 0.365678 0.289646 0.003519
C37   C     C_3   0.011755 0.281065 0.242049 -0.367120
C38   C     C_3   0.955196 0.660157 0.687429 0.012498
C39   C     C_3   0.978786 0.757491 0.737333 -0.357632
C40   C     C_3   0.037551 0.374765 0.716017 0.003360
C41   C     C_3   0.990603 0.291984 0.769779 -0.367314
C42   C     C_3   0.232871 0.694131 0.628919 0.032574
C43   C     C_3   0.260969 0.796235 0.653585 -0.376690
C44   C     C_3   0.773825 0.266907 0.488935 0.035292
C45   C     C_R   0.048879 0.505761 0.502783 -0.039441
C46   C     C_3   0.718533 0.184554 0.440814 -0.376732
C47   C     C_3   0.762998 0.690932 0.360625 0.030211
C48   C     C_3   0.732002 0.791934 0.332633 -0.376961
C49   C     C_3   0.229069 0.266927 0.528964 0.034679
C50   C     C_3   0.283935 0.187432 0.586270 -0.372669
C51   C     C_R   0.951160 0.505750 0.493529 -0.039737
C52   C     C_R   0.501088 0.054783 0.498312 -0.045113
C53   C     C_R   0.501368 0.945889 0.497635 -0.036944
C54   C     C_R   0.499706 0.500095 0.284144 0.539626
Cu1   Cu    Cu3+1 0.500000 0.596430 0.500000 0.957257
Cu2   Cu    Cu3+1 0.500000 0.403570 0.500000 0.977858
H1    H     H_    0.394249 0.022052 0.675875 0.080980
H2    H     H_    0.248236 0.073697 0.340337 0.170272
H3    H     H_    0.600868 0.007014 0.311215 0.092288
H4    H     H_    0.589819 0.118986 0.232659 0.144581
H5    H     H_    0.504236 0.035965 0.075107 0.174118
H6    H     H_    0.612170 0.983010 0.103549 0.093676
H7    H     H_    0.515778 0.924476 0.153165 0.171525
H8    H     H_    0.710191 0.969861 0.486074 0.080746
H9    H     H_    0.735908 0.858387 0.559779 0.219622
H10   H     H_    0.797253 0.940559 0.728803 0.163175
H11   H     H_    0.849442 0.982433 0.603705 0.091541
H12   H     H_    0.422084 0.099198 0.796294 0.155487
H13   H     H_    0.767517 0.055266 0.667801 0.166031
H14   H     H_    0.607708 0.299082 0.661710 0.339548
H15   H     H_    0.389181 0.684208 0.350189 0.379579
H16   H     H_    0.390790 0.300918 0.339997 0.338884
H17   H     H_    0.610426 0.683548 0.650822 0.378026
H18   H     H_    0.987603 0.601654 0.281037 0.094694
H19   H     H_    0.103466 0.624754 0.261479 0.120625
H20   H     H_    0.074020 0.798418 0.258621 0.165741
H21   H     H_    0.005658 0.737449 0.149985 0.078812
H22   H     H_    0.958882 0.777198 0.279879 0.159812
H23   H     H_    0.509090 0.961175 0.888964 0.173941
H24   H     H_    0.004396 0.430266 0.279404 0.093982
H25   H     H_    0.899087 0.374472 0.239026 0.148917
H26   H     H_    0.076639 0.271453 0.290110 0.145529
H27   H     H_    0.972181 0.215177 0.249897 0.160235
H28   H     H_    0.022694 0.293577 0.150338 0.088676
H29   H     H_    0.010487 0.610143 0.710396 0.093574
H30   H     H_    0.894394 0.635096 0.726855 0.123006
H31   H     H_    0.923484 0.808233 0.718330 0.162476
H32   H     H_    0.991439 0.751594 0.831563 0.079528
H33   H     H_    0.038817 0.785408 0.699651 0.160221
H34   H     H_    0.392550 0.937409 0.863121 0.089475
H35   H     H_    0.995257 0.439290 0.721554 0.094307
H36   H     H_    0.101542 0.386485 0.765888 0.149259
H37   H     H_    0.925864 0.279591 0.722646 0.145090
H38   H     H_    0.031342 0.226243 0.766628 0.160156
H39   H     H_    0.979514 0.308513 0.860469 0.087888
H40   H     H_    0.282518 0.645978 0.673290 0.136834
H41   H     H_    0.168189 0.683375 0.667016 0.114424
H42   H     H_    0.210862 0.846364 0.614705 0.137563
H43   H     H_    0.266473 0.808171 0.747499 0.088419
H44   H     H_    0.326223 0.810007 0.619739 0.147722
H45   H     H_    0.470815 0.887311 0.770003 0.163351
H46   H     H_    0.747279 0.289799 0.571047 0.118832
H47   H     H_    0.842804 0.241396 0.506352 0.173816
H48   H     H_    0.754816 0.144860 0.376546 0.127120
H49   H     H_    0.702279 0.135892 0.510725 0.104251
H50   H     H_    0.656042 0.212038 0.399014 0.179945
H51   H     H_    0.713969 0.640872 0.319388 0.136724
H52   H     H_    0.827339 0.680559 0.321429 0.115541
H53   H     H_    0.781805 0.843878 0.367048 0.133748
H54   H     H_    0.723814 0.801336 0.238337 0.092221
H55   H     H_    0.667538 0.805679 0.368897 0.149895
H56   H     H_    0.295904 0.968565 0.510274 0.079571
H57   H     H_    0.256834 0.284424 0.445737 0.120698
H58   H     H_    0.160374 0.240862 0.512314 0.173125
H59   H     H_    0.247658 0.154080 0.655353 0.132852
H60   H     H_    0.299048 0.132824 0.522504 0.084918
H61   H     H_    0.347015 0.216408 0.624110 0.187922
H62   H     H_    0.261749 0.866225 0.423941 0.217289
H63   H     H_    0.208417 0.968288 0.265635 0.164206
H64   H     H_    0.159557 0.005025 0.395299 0.088586
N1    N     N_R   0.500000 0.258690 0.500000 -0.309738
N2    N     N_R   0.500000 0.741310 0.500000 -0.304801
O1    O     O_R   0.371460 0.581430 0.500010 -0.472492
O2    O     O_3   0.369733 0.941211 0.369754 -0.478143
O3    O     O_3   0.473535 0.065187 0.291490 -0.466067
O4    O     O_3   0.634309 0.939674 0.623271 -0.480182
O5    O     O_3   0.568055 0.250089 0.690735 -0.645091
O6    O     O_3   0.372460 0.749968 0.364764 -0.656767
O7    O     O_3   0.430629 0.252481 0.309874 -0.644235
O8    O     O_3   0.627981 0.748669 0.634545 -0.659583
O9    O     O_3   0.056401 0.665559 0.419030 -0.470229
O10   O     O_3   0.949946 0.348384 0.405975 -0.507607
O11   O     O_3   0.942635 0.668519 0.567420 -0.470857
O12   O     O_R   0.628540 0.418570 0.499990 -0.491540
O13   O     O_3   0.051102 0.352379 0.601086 -0.508423
O14   O     O_3   0.226908 0.676574 0.509207 -0.483965
O15   O     O_3   0.768831 0.341708 0.408069 -0.525088
O16   O     O_3   0.771112 0.676182 0.480916 -0.487660
O17   O     O_3   0.232689 0.346469 0.602470 -0.526727
O18   O     O_R   0.628540 0.581430 0.499990 -0.469687
O19   O     O_R   0.371460 0.418570 0.500010 -0.494503
O20   O     O_R   0.500010 0.581440 0.337200 -0.538071
O21   O     O_R   0.499990 0.418560 0.662800 -0.463992
O22   O     O_R   0.499990 0.581440 0.662800 -0.539518
O23   O     O_R   0.500010 0.418560 0.337200 -0.462973
O24   O     O_3   0.528751 0.061365 0.705222 -0.467158

loop_
_geom_bond_atom_site_label_1
_geom_bond_atom_site_label_2
_ccdc_geom_bond_type
H14   O5    S    
C48   H54   S    
Cu1   Cu2   S    
C44   O15   S    
C15   N2    A    
C29   O3    S    
C4    C53   A    
C50   H61   S    
C2    O22   A    
C49   H57   S    
C43   H42   S    
C21   O15   S    
C17   C51   A    
H16   O7    S    
C38   H30   S    
C42   H40   S    
C36   C37   S    
C43   H43   S    
C36   O10   S    
C26   H45   S    
C38   C39   S    
C45   C51   S    
C19   O13   S    
C46   H49   S    
Cu2   O23   S    
C4    O2    S    
C18   O11   S    
C42   O14   S    
C50   H59   S    
C38   O11   S    
C4    C13   A    
C49   C50   S    
C16   O9    S    
C6    C15   A    
Cu2   O21   S    
C33   H19   S    
C49   O17   S    
C41   H37   S    
C47   C48   S    
C23   C24   A    
C29   H4    S    
C37   H28   S    
C25   O24   S    
C39   H31   S    
C9    C10   S    
C33   O9    S    
C48   H53   S    
Cu1   N2    S    
C14   N1    A    
C12   O12   A    
C30   H7    S    
C17   O10   S    
C2    O21   A    
C13   O6    S    
C11   N1    A    
C25   H12   S    
C25   H1    S    
C39   H32   S    
C44   H47   S    
C44   C46   S    
C18   C51   A    
C24   O17   S    
C22   C34   A    
C40   O13   S    
Cu1   O1    S    
C35   H20   S    
C38   H29   S    
C29   H3    S    
C1    O19   A    
C43   H44   S    
C6    O4    S    
C28   H64   S    
C42   H41   S    
C44   H46   S    
C21   C34   A    
C25   C26   S    
C46   H48   S    
C35   H21   S    
C40   H36   S    
Cu1   O18   S    
C11   O5    S    
C1    O1    A    
C29   C30   S    
C41   H38   S    
C20   C23   A    
C36   H25   S    
C16   C20   A    
C12   O18   A    
C5    C52   A    
C20   O14   S    
C5    C14   A    
C32   H11   S    
Cu2   O19   S    
C40   C41   S    
C54   O20   A    
C27   H56   S    
C1    C23   S    
C47   H51   S    
C54   O23   A    
C36   H24   S    
C37   H26   S    
C42   C43   S    
C6    C53   A    
C12   C34   S    
C27   O2    S    
C52   C53   S    
C32   H10   S    
C27   H62   S    
C31   H9    S    
H17   O8    S    
Cu1   O22   S    
C18   C22   A    
C31   H8    S    
C31   C32   S    
C2    C8    S    
C28   H63   S    
C16   C45   A    
Cu2   O12   S    
C3    C52   A    
C19   C45   A    
C32   H13   S    
C28   H2    S    
C26   H34   S    
C22   O16   S    
C35   H22   S    
C26   H23   S    
C7    C54   S    
Cu2   N1    S    
C30   H6    S    
C19   C24   A    
C13   N2    A    
C41   H39   S    
C15   O8    S    
C46   H50   S    
C47   O16   S    
C33   C35   S    
C49   H58   S    
C50   H60   S    
C40   H35   S    
H15   O6    S    
C17   C21   A    
C3    C11   A    
C7    C9    T    
C33   H18   S    
C48   H55   S    
C3    O24   S    
C8    C10   T    
C47   H52   S    
C30   H5    S    
C5    O3    S    
C27   C28   S    
Cu1   O20   S    
C37   H27   S    
C31   O4    S    
C39   H33   S    
C14   O7    S    
