data_mof_unit_19678.cif
_audit_creation_date              2012-10-26T18:47:57-0400
_audit_creation_method            fapswitch 2.2
_symmetry_space_group_name_H-M    P1
_symmetry_Int_Tables_number       1
_space_group_crystal_system       triclinic
_cell_length_a                    15.863935
_cell_length_b                    8.722387
_cell_length_c                    7.476071
_cell_angle_alpha                 102.999872
_cell_angle_beta                  94.406648
_cell_angle_gamma                 92.820071
_cell_volume                      1002.62551112

loop_
_atom_site_label
_atom_site_type_symbol
_atom_type_description
_atom_site_fract_x
_atom_site_fract_y
_atom_site_fract_z
_atom_type_partial_charge
C1    C     C_R   0.500777 0.200654 0.453063 0.574465
C2    C     C_2   0.503908 0.967319 0.567454 -0.084399
C3    C     C_R   0.340456 0.499810 0.501952 0.562958
C4    C     C_R   0.504265 0.800123 0.545660 0.555474
C5    C     C_R   0.659559 0.500051 0.497981 0.539827
C6    C     C_3   0.053193 0.487802 0.691831 0.100135
C7    C     C_3   0.040917 0.350994 0.347294 0.167934
C8    C     C_3   0.941963 0.341721 0.352126 0.436256
C9    C     C_1   0.748848 0.497689 0.493528 0.075362
C10   C     C_3   0.082919 0.495214 0.498696 -0.033499
C11   C     C_3   0.955649 0.493326 0.688042 -0.213937
C12   C     C_3   0.916377 0.492138 0.490872 -0.084098
C13   C     C_3   0.952498 0.643545 0.438507 -0.200827
C14   C     C_3   0.051173 0.650305 0.448842 0.342166
C15   C     C_1   0.824198 0.495221 0.491571 0.045059
C16   C     C_1   0.175520 0.497855 0.504217 0.125685
C17   C     C_1   0.251082 0.499243 0.505408 0.131245
C18   C     C_2   0.510251 0.035332 0.424712 0.202367
Cl1   Cl    Cl    0.535520 0.939172 0.201087 -0.528858
Cl2   Cl    Cl    0.398576 0.323535 0.909612 -0.355040
Cl3   Cl    Cl    0.087712 0.321786 0.775667 -0.368042
Cl4   Cl    Cl    0.088928 0.167717 0.347050 -0.287443
Cl5   Cl    Cl    0.901988 0.165865 0.415593 -0.379375
Cl6   Cl    Cl    0.892951 0.330128 0.123768 -0.508855
Cl7   Cl    Cl    0.094018 0.824065 0.616413 -0.372283
Cl8   Cl    Cl    0.085534 0.676181 0.232867 -0.460216
Cu1   Cu    Cu3+1 0.509300 0.517380 0.684380 1.144659
Cu2   Cu    Cu3+1 0.490700 0.482620 0.315620 1.185693
H1    H     H_    0.927198 0.393551 0.738117 0.253766
H2    H     H_    0.082331 0.591603 0.796996 0.221730
H3    H     H_    0.568743 0.617071 0.049839 0.243932
H4    H     H_    0.055629 0.371110 0.211340 0.211759
H5    H     H_    0.930933 0.749283 0.532719 0.202030
H6    H     H_    0.940148 0.602604 0.785837 0.163132
H7    H     H_    0.925229 0.647619 0.298280 0.209561
H8    H     H_    0.493985 0.036049 0.703807 0.162036
N1    N     N_2   0.476670 0.456430 0.038530 0.041030
N2    N     N_2   0.523330 0.543570 0.961470 -0.182428
O1    O     O_R   0.506050 0.286130 0.619770 -0.503458
O2    O     O_R   0.490330 0.256780 0.308370 -0.435853
O3    O     O_R   0.387300 0.514690 0.655770 -0.451075
O4    O     O_R   0.371580 0.485340 0.344370 -0.465481
O5    O     O_R   0.509670 0.743220 0.691630 -0.479839
O6    O     O_R   0.493950 0.713870 0.380230 -0.474865
O7    O     O_R   0.628420 0.514660 0.655630 -0.508515
O8    O     O_R   0.612700 0.485310 0.344230 -0.519875

loop_
_geom_bond_atom_site_label_1
_geom_bond_atom_site_label_2
_ccdc_geom_bond_type
C6    C10   S    
C7    C10   S    
C2    C4    S    
C11   C12   S    
H3    N2    S    
C3    O4    A    
C13   H5    S    
N1    N2    D    
C4    O5    A    
C2    C18   D    
C7    Cl4   S    
C5    O8    A    
Cu1   O3    S    
C12   C15   S    
C8    C12   S    
Cu1   O7    S    
C9    C15   T    
C7    C8    S    
C10   C16   S    
C13   C14   S    
C14   Cl8   S    
C5    C9    S    
Cl2   N1    S    
Cu2   O8    S    
C1    C18   S    
Cu2   N1    S    
Cu2   O4    S    
C6    H2    S    
C3    C17   S    
C11   H6    S    
C14   Cl7   S    
Cu2   O2    S    
Cu1   N2    S    
Cu1   O5    S    
C6    C11   S    
C8    Cl5   S    
C12   C13   S    
C11   H1    S    
C18   Cl1   S    
C10   C14   S    
C2    H8    S    
Cu1   Cu2   S    
C1    O1    A    
C3    O3    A    
C7    H4    S    
C4    O6    A    
C1    O2    A    
C8    Cl6   S    
C6    Cl3   S    
C5    O7    A    
Cu2   O6    S    
C13   H7    S    
Cu1   O1    S    
C16   C17   T    
