data_mof_unit_21613.cif
_audit_creation_date              2013-03-05T15:40:48-0500
_audit_creation_method            fapswitch 2.2
_symmetry_space_group_name_H-M    P1
_symmetry_Int_Tables_number       1
_space_group_crystal_system       triclinic
_cell_length_a                    7.812712
_cell_length_b                    8.566213
_cell_length_c                    14.955528
_cell_angle_alpha                 91.336094
_cell_angle_beta                  86.350783
_cell_angle_gamma                 93.309864
_cell_volume                      997.014561267

loop_
_atom_site_label
_atom_site_type_symbol
_atom_site_description
_atom_site_fract_x
_atom_site_fract_y
_atom_site_fract_z
_atom_type_partial_charge
O1    O     O_R   0.389250 0.738570 0.505970 -0.615321
O2    O     O_R   0.610750 0.261430 0.494030 -0.615321
O3    O     O_R   0.678390 0.711620 0.490370 -0.606652
O4    O     O_R   0.321610 0.288380 0.509630 -0.606652
C1    C     C_R   0.545332 0.794402 0.497719 0.939571
C2    C     C_R   0.454668 0.205598 0.502281 0.939571
O5    O     O_R   0.355420 0.513510 0.639950 -0.593763
O6    O     O_R   0.644580 0.486490 0.360050 -0.593763
O7    O     O_R   0.644560 0.486560 0.624350 -0.592147
O8    O     O_R   0.355440 0.513440 0.375650 -0.592147
C3    C     C_R   0.502163 0.498693 0.673003 0.876607
C4    C     C_R   0.497837 0.501307 0.326997 0.876607
Zn1   Zn    Zn3+2 0.306940 0.517990 0.510420 1.096860
Zn2   Zn    Zn3+2 0.693060 0.482010 0.489580 1.096860
C5    C     C_R   0.347702 0.452853 0.189520 -0.203808
C6    C     C_R   0.652299 0.547146 0.810480 -0.203808
C7    C     C_R   0.495401 0.505512 0.231297 -0.074354
C8    C     C_R   0.504599 0.494488 0.768703 -0.074354
C9    C     C_R   0.644520 0.557723 0.181599 -0.225304
C10   C     C_R   0.355480 0.442277 0.818401 -0.225304
C11   C     C_R   0.647712 0.555676 0.089096 0.102113
C12   C     C_R   0.352288 0.444324 0.910904 0.102113
C13   C     C_R   0.498841 0.501812 0.046518 0.068831
C14   C     C_R   0.501159 0.498188 0.953482 0.068831
C15   C     C_R   0.347868 0.450999 0.097010 0.094256
C16   C     C_R   0.652132 0.549001 0.902990 0.094256
C17   C     C_R   0.797202 0.605598 0.038685 -0.210373
C18   C     C_R   0.202798 0.394402 0.961314 -0.210373
C19   C     C_R   0.799388 0.602334 0.945706 -0.202394
C20   C     C_R   0.200612 0.397665 0.054294 -0.202393
H1    H     H_    0.234764 0.409254 0.228615 0.227257
H2    H     H_    0.765237 0.590745 0.771385 0.227257
H3    H     H_    0.758131 0.599620 0.214944 0.201599
H4    H     H_    0.241869 0.400381 0.785056 0.201600
H5    H     H_    0.912013 0.646759 0.071122 0.169329
H6    H     H_    0.087987 0.353241 0.928878 0.169329
H7    H     H_    0.915755 0.641252 0.907280 0.174034
H8    H     H_    0.084245 0.358747 0.092720 0.174034
C21   C     C_2   0.569260 0.957806 0.496368 -0.340302
C22   C     C_2   0.430739 0.042194 0.503632 -0.340301
H9    H     H_    0.700376 0.008142 0.489386 0.206125
H10   H     H_    0.299624 0.991858 0.510614 0.206125
N1    N     N_2   0.950330 0.457950 0.475660 0.048964
N2    N     N_2   0.049670 0.542050 0.524340 0.048964
N3    N     N_R   0.016600 0.435076 0.388783 0.299674
O9    O     O_R   0.013522 0.547549 0.331991 -0.423442
O10   O     O_R   0.034491 0.292870 0.358710 -0.417361
N4    N     N_R   0.983400 0.564924 0.611217 0.299673
O11   O     O_R   0.986478 0.452450 0.668009 -0.423443
O12   O     O_R   0.965510 0.707130 0.641289 -0.417361

loop_
_geom_bond_atom_site_label_1
_geom_bond_atom_site_label_2
_geom_bond_distance
_ccdc_geom_bond_type
C4    C7    1.433896 S    
O7    Zn2   2.026916 S    
C3    C8    1.433896 S    
C5    H1    1.079984 S    
C6    H2    1.079984 S    
O7    C3    1.297961 A    
O6    C4    1.291009 A    
N1    N2    1.278395 D    
C10   H4    1.084690 S    
C18   C20   1.389230 A    
C11   C17   1.400209 A    
C21   H9    1.087949 S    
C12   C18   1.400210 A    
N3    O9    1.301420 A    
O5    C3    1.291008 A    
N4    O12   1.300716 A    
N1    N3    1.381603 S    
C20   H8    1.084145 S    
O2    C2    1.283442 A    
O3    Zn2   1.976536 S    
O8    C4    1.297961 A    
C17   H5    1.084032 S    
O1    C1    1.283442 A    
C12   C14   1.410596 A    
C22   H10   1.087949 S    
N4    O11   1.301421 A    
C9    C11   1.381793 A    
C10   C12   1.381793 A    
C8    C10   1.398161 A    
C1    C21   1.401886 S    
C11   C13   1.410596 A    
C6    C16   1.383168 A    
O2    Zn2   1.961738 S    
C2    C22   1.401886 S    
C5    C15   1.383168 A    
O4    C2    1.289393 A    
O1    Zn1   1.961736 S    
C13   C14   1.390002 A    
O5    Zn1   1.999045 S    
C13   C15   1.411953 A    
C17   C19   1.389230 A    
C18   H6    1.084032 S    
C16   C19   1.399880 A    
C6    C8    1.394258 A    
C9    H3    1.084690 S    
N3    O10   1.300709 A    
C19   H7    1.084144 S    
C21   C22   1.333146 D    
C5    C7    1.394257 A    
C15   C20   1.399880 A    
O6    Zn2   1.999047 S    
C7    C9    1.398161 A    
Zn1   N2    2.029383 S    
N2    N4    1.381601 S    
O4    Zn1   1.976538 S    
C14   C16   1.411953 A    
Zn2   N1    2.029382 S    
O3    C1    1.289394 A    
O8    Zn1   2.026917 S    
