data_mof_unit_33259.cif
_audit_creation_date              2012-12-10T19:07:35-0500
_audit_creation_method            fapswitch 2.2
_symmetry_space_group_name_H-M    P1
_symmetry_Int_Tables_number       1
_space_group_crystal_system       triclinic
_cell_length_a                    11.022608
_cell_length_b                    11.093766
_cell_length_c                    9.583986
_cell_angle_alpha                 86.39223
_cell_angle_beta                  86.579851
_cell_angle_gamma                 92.506923
_cell_volume                      1166.21791423

loop_
_atom_site_label
_atom_site_type_symbol
_atom_type_description
_atom_site_fract_x
_atom_site_fract_y
_atom_site_fract_z
_atom_type_partial_charge
C1    C     C_R   0.499025 0.260975 0.503573 0.777595
C2    C     C_R   0.926867 0.508422 0.618090 0.003851
C3    C     C_3   0.894808 0.452084 0.762578 -0.259159
C4    C     C_3   0.026998 0.422498 0.766569 -0.059019
C5    C     C_R   0.425390 0.047746 0.604943 -0.015905
C6    C     C_R   0.498597 0.125038 0.505459 -0.135397
C7    C     C_R   0.550722 0.068878 0.386178 -0.016065
C8    C     C_R   0.543594 0.942431 0.378713 -0.247908
C9    C     C_R   0.482269 0.868073 0.485356 -0.106666
C10   C     C_R   0.414840 0.922907 0.588104 -0.041869
C11   C     C_3   0.394838 0.881085 0.736350 0.040633
C12   C     C_R   0.261827 0.493581 0.504279 0.795650
C13   C     C_3   0.426973 0.011320 0.763453 0.455269
C14   C     C_R   0.528707 0.603690 0.064320 0.171602
C15   C     C_R   0.465154 0.400883 0.085519 -0.094227
C16   C     C_R   0.468423 0.399817 0.938111 0.312494
C17   C     C_R   0.527173 0.604240 0.917102 0.140748
C18   C     C_3   0.643135 0.679680 0.897763 -0.535953
C19   C     C_3   0.645138 0.678843 0.056027 0.041047
C20   C     C_R   0.495918 0.736849 0.495761 0.811661
C21   C     C_R   0.737168 0.492772 0.497009 0.800407
C22   C     C_R   0.052485 0.499683 0.629657 0.013204
C23   C     C_R   0.127443 0.479955 0.509958 -0.155235
C24   C     C_R   0.071632 0.455523 0.385928 -0.190595
C25   C     C_R   0.944413 0.445481 0.379289 0.247754
C26   C     C_R   0.870425 0.483595 0.494319 -0.163938
Cu1   Cu    Cu3+1 0.499990 0.499980 0.640670 0.965321
Cu2   Cu    Cu3+1 0.500010 0.500020 0.359330 0.970847
H1    H     H_    0.128365 0.440586 0.293466 0.188504
H2    H     H_    0.458338 0.818664 0.782045 0.175258
H3    H     H_    0.432556 0.320849 0.148977 0.152040
H4    H     H_    0.716588 0.632817 0.844195 0.212411
H5    H     H_    0.632580 0.771231 0.851582 0.186490
H6    H     H_    0.633595 0.768696 0.099179 0.143984
H7    H     H_    0.868625 0.521837 0.834742 0.134976
H8    H     H_    0.591900 0.901773 0.293110 0.145496
N1    N     N_R   0.500790 0.500930 0.147930 -0.200111
N2    N     N_R   0.500790 0.500890 0.852020 -0.189961
O1    O     O_R   0.500000 0.319640 0.618810 -0.528632
O2    O     O_R   0.500010 0.319680 0.381230 -0.595688
O3    O     O_R   0.319650 0.499970 0.618810 -0.608534
O4    O     O_R   0.319660 0.500010 0.381230 -0.580424
O5    O     O_R   0.499990 0.680320 0.618770 -0.595545
O6    O     O_R   0.500000 0.680360 0.381190 -0.577880
O7    O     O_R   0.680340 0.499990 0.618770 -0.576336
O8    O     O_R   0.680350 0.500030 0.381190 -0.565216
N3    N     N_2   0.330627 0.058067 0.852379 -0.429009
H9    H     H_    0.248064 0.064002 0.807836 0.277973
C27   C     C_3   0.318839 0.014009 0.999318 -0.686525
H10   H     H_    0.263603 0.076276 0.059951 0.214162
H11   H     H_    0.408763 0.009539 0.045203 0.229587
H12   H     H_    0.271601 0.923707 0.012719 0.258466
N4    N     N_2   0.547812 0.026530 0.819619 -0.441092
H13   H     H_    0.561544 0.101226 0.875428 0.292378
C28   C     C_3   0.657226 0.999985 0.736967 -0.692803
H14   H     H_    0.644941 0.916983 0.680366 0.215480
H15   H     H_    0.684643 0.076066 0.659529 0.253012
H16   H     H_    0.732596 0.987038 0.807468 0.240431
N5    N     N_2   0.423351 0.295642 0.882056 -0.389467
H17   H     H_    0.433078 0.221807 0.949101 0.246732
C29   C     C_3   0.300412 0.306946 0.843420 -0.544204
H18   H     H_    0.235815 0.260538 0.924940 0.196121
H19   H     H_    0.290473 0.269566 0.740069 0.238877
H20   H     H_    0.277517 0.402004 0.834166 0.235222
N6    N     N_2   0.746345 0.614705 0.109646 -0.363971
H21   H     H_    0.756404 0.529912 0.073124 0.271092
C30   C     C_3   0.859425 0.686403 0.105850 -0.646172
H22   H     H_    0.929509 0.633314 0.156625 0.254701
H23   H     H_    0.846751 0.769102 0.163687 0.220576
H24   H     H_    0.892317 0.712280 0.995725 0.215431
N7    N     N_2   0.894692 0.393328 0.260252 -0.422185
H25   H     H_    0.802068 0.381062 0.263036 0.292847
C31   C     C_3   0.950370 0.286325 0.210738 -0.657921
H26   H     H_    0.944190 0.212715 0.295397 0.225393
H27   H     H_    0.046447 0.305025 0.172483 0.230496
H28   H     H_    0.902337 0.254906 0.120135 0.245749
C32   C     C_1   0.806287 0.347478 0.778583 0.330906
N8    N     N_1   0.736471 0.266316 0.792996 -0.288220
C33   C     C_1   0.076045 0.468719 0.893395 0.168410
N9    N     N_1   0.112891 0.503268 0.994957 -0.326484
C34   C     C_1   0.047413 0.292777 0.750279 0.215649
N10   N     N_1   0.060136 0.191130 0.736310 -0.332614
C35   C     C_1   0.616113 0.136633 0.269491 0.233143
N11   N     N_1   0.667333 0.189949 0.174579 -0.321238
N12   N     N_2   0.267067 0.843812 0.767745 -0.440940
H29   H     H_    0.207161 0.861633 0.690983 0.262249
C36   C     C_3   0.241874 0.730476 0.847970 -0.648876
H30   H     H_    0.144118 0.723923 0.883832 0.236687
H31   H     H_    0.296669 0.724968 0.941501 0.222569
H32   H     H_    0.262514 0.654802 0.782150 0.260401

loop_
_geom_bond_atom_site_label_1
_geom_bond_atom_site_label_2
_ccdc_geom_bond_type
C7    C35   S    
C36   H30   S    
C31   H26   S    
C21   C26   S    
C34   N10   T    
C7    C8    A    
N3    C27   S    
N4    H13   S    
C12   C23   S    
Cu2   O8    S    
C5    C6    A    
Cu2   O2    S    
Cu1   N2    S    
C15   C16   A    
C18   C19   S    
C8    H8    S    
C29   H19   S    
C24   H1    S    
C15   N1    A    
C12   O4    A    
C1    O2    A    
C4    C34   S    
C35   N11   T    
C11   H2    S    
Cu1   O1    S    
C8    C9    A    
N6    C30   S    
C2    C22   A    
C23   C24   A    
C25   N7    S    
C9    C10   A    
C5    C13   S    
C32   N8    T    
Cu1   O7    S    
N12   C36   S    
N5    H17   S    
C31   H27   S    
C14   C17   A    
C21   O7    A    
C20   O6    A    
C13   N4    S    
N4    C28   S    
N5    C29   S    
C30   H22   S    
C24   C25   A    
C4    C33   S    
N7    C31   S    
C27   H11   S    
C25   C26   A    
N12   H29   S    
Cu2   O6    S    
C1    C6    S    
C30   H23   S    
C16   N5    S    
C29   H20   S    
C12   O3    A    
C4    C22   S    
Cu1   O3    S    
C9    C20   S    
N3    H9    S    
C3    H7    S    
C27   H12   S    
C28   H14   S    
C17   C18   S    
C2    C26   A    
N6    H21   S    
C28   H15   S    
C31   H28   S    
C36   H32   S    
C18   H4    S    
C3    C4    S    
C3    C32   S    
C20   O5    A    
C13   N3    S    
C21   O8    A    
C14   C19   S    
C19   H6    S    
C15   H3    S    
C6    C7    A    
C30   H24   S    
C36   H31   S    
C2    C3    S    
C5    C10   A    
C14   N1    A    
C11   C13   S    
Cu2   N1    S    
C11   N12   S    
Cu2   O4    S    
C19   N6    S    
C17   N2    A    
C29   H18   S    
C18   H5    S    
C10   C11   S    
C1    O1    A    
C33   N9    T    
Cu1   O5    S    
N7    H25   S    
C27   H10   S    
C28   H16   S    
Cu1   Cu2   S    
C22   C23   A    
C16   N2    A    
