data_mof_unit_41816.cif
_audit_creation_date              2012-12-10T16:49:28-0500
_audit_creation_method            fapswitch 2.2
_symmetry_space_group_name_H-M    P1
_symmetry_Int_Tables_number       1
_space_group_crystal_system       triclinic
_cell_length_a                    7.741828
_cell_length_b                    8.57018
_cell_length_c                    12.950165
_cell_angle_alpha                 89.488994
_cell_angle_beta                  89.149097
_cell_angle_gamma                 93.354024
_cell_volume                      857.621081791

loop_
_atom_site_label
_atom_site_type_symbol
_atom_type_description
_atom_site_fract_x
_atom_site_fract_y
_atom_site_fract_z
_atom_type_partial_charge
C1    C     C_R   0.455594 0.205160 0.497534 0.944006
C2    C     C_R   0.675880 0.404402 0.146930 -0.314069
C3    C     C_R   0.584842 0.450369 0.871497 0.482816
C4    C     C_R   0.415158 0.549633 0.128503 0.482817
C5    C     C_R   0.567861 0.458564 0.978169 0.003551
C6    C     C_R   0.432140 0.541438 0.021831 0.003550
C7    C     C_2   0.441555 0.044805 0.478087 -0.084645
C8    C     C_2   0.558445 0.955194 0.521913 -0.084646
C9    C     C_3   0.129627 0.522968 0.176326 -0.241892
C10   C     C_3   0.870373 0.477036 0.823672 -0.241887
C11   C     C_R   0.544406 0.794840 0.502466 0.944005
C12   C     C_R   0.468347 0.502473 0.699537 0.927877
C13   C     C_R   0.531653 0.497527 0.300463 0.927877
C14   C     C_R   0.544033 0.487748 0.190220 -0.146499
C15   C     C_R   0.455968 0.512253 0.809780 -0.146499
C16   C     C_R   0.315203 0.614162 0.958361 -0.179318
C17   C     C_R   0.684798 0.385841 0.041639 -0.179317
C18   C     C_R   0.324121 0.595600 0.853070 -0.314067
H1    H     H_    0.769168 0.349611 0.194824 0.185681
H2    H     H_    0.846028 0.590509 0.785618 0.174029
H3    H     H_    0.971832 0.421787 0.777708 0.195077
H4    H     H_    0.923201 0.499892 0.901649 0.135796
H5    H     H_    0.230833 0.650390 0.805176 0.185680
H6    H     H_    0.215446 0.684551 0.989443 0.197510
H7    H     H_    0.784555 0.315451 0.010557 0.197510
H8    H     H_    0.997614 0.617263 0.422263 0.208441
H9    H     H_    0.002386 0.382737 0.577737 0.208441
H10   H     H_    0.028165 0.578220 0.222286 0.195078
H11   H     H_    0.153968 0.409495 0.214383 0.174031
H12   H     H_    0.076804 0.500108 0.098350 0.135796
I1    I     I_    0.273106 0.981389 0.352382 -0.294075
I2    I     I_    0.726894 0.018611 0.647618 -0.294076
N1    N     N_2   0.054030 0.541640 0.471970 -0.167161
N2    N     N_2   0.945970 0.458360 0.528030 -0.167162
O1    O     O_R   0.609680 0.261530 0.506880 -0.591479
O2    O     O_3   0.720693 0.373739 0.827678 -0.587878
O3    O     O_R   0.390320 0.738470 0.493120 -0.591479
O4    O     O_R   0.323330 0.288220 0.488910 -0.616132
O5    O     O_R   0.676670 0.711780 0.511090 -0.616132
O6    O     O_R   0.619510 0.488830 0.661140 -0.574126
O7    O     O_R   0.380490 0.511170 0.338860 -0.574125
O8    O     O_R   0.333160 0.515520 0.643180 -0.650019
O9    O     O_R   0.666840 0.484480 0.356820 -0.650019
O10   O     O_3   0.279308 0.626263 0.172322 -0.587878
Zn1   Zn    Zn3+2 0.691200 0.482180 0.511990 0.992505
Zn2   Zn    Zn3+2 0.308800 0.517820 0.488010 0.992505

loop_
_geom_bond_atom_site_label_1
_geom_bond_atom_site_label_2
_ccdc_geom_bond_type
C10   H3    S    
C12   O6    A    
C15   C18   A    
C10   O2    S    
O7    Zn2   S    
H8    N1    S    
C12   C15   S    
C9    H11   S    
O5    Zn1   S    
C17   H7    S    
C13   O7    A    
N1    N2    D    
C2    H1    S    
C3    C15   A    
C7    C8    D    
C16   H6    S    
N2    Zn1   S    
C13   C14   S    
C10   H4    S    
C2    C17   A    
C11   O5    A    
N1    Zn2   S    
O9    Zn1   S    
C5    C6    A    
C3    O2    S    
C8    C11   S    
C9    H12   S    
C1    O4    A    
C16   C18   A    
H9    N2    S    
C4    C14   A    
O6    Zn1   S    
C2    C14   A    
O4    Zn2   S    
C7    I1    S    
C6    C16   A    
C18   H5    S    
O1    Zn1   S    
C13   O9    A    
C5    C17   A    
C1    O1    A    
C4    C6    A    
O8    Zn2   S    
C11   O3    A    
C9    O10   S    
C12   O8    A    
C4    O10   S    
O3    Zn2   S    
C1    C7    S    
C9    H10   S    
C10   H2    S    
C3    C5    A    
C8    I2    S    
