data_mof_unit_36326.cif
_audit_creation_date              2012-12-10T19:00:48-0500
_audit_creation_method            fapswitch 2.2
_symmetry_space_group_name_H-M    P1
_symmetry_Int_Tables_number       1
_space_group_crystal_system       triclinic
_cell_length_a                    15.01804
_cell_length_b                    10.812625
_cell_length_c                    9.573568
_cell_angle_alpha                 89.745323
_cell_angle_beta                  89.439077
_cell_angle_gamma                 90.508228
_cell_volume                      1554.44680954

loop_
_atom_site_label
_atom_site_type_symbol
_atom_type_description
_atom_site_fract_x
_atom_site_fract_y
_atom_site_fract_z
_atom_type_partial_charge
C1    C     C_R   0.498547 0.262400 0.500188 0.813661
C2    C     C_R   0.908529 0.602216 0.431092 0.068014
C3    C     C_R   0.949353 0.318217 0.643777 -0.242865
C4    C     C_R   0.042252 0.316521 0.647266 -0.029663
C5    C     C_R   0.091950 0.409163 0.575934 0.050598
C6    C     C_R   0.047042 0.503347 0.501793 0.056935
C7    C     C_R   0.095782 0.595655 0.428340 0.123748
C8    C     C_R   0.051301 0.689984 0.358033 -0.200164
C9    C     C_R   0.958737 0.694065 0.360313 -0.195760
C10   C     C_R   0.185306 0.410576 0.576187 -0.211268
C11   C     C_R   0.232684 0.501123 0.501454 -0.060535
C12   C     C_R   0.329018 0.499935 0.500532 0.820848
C13   C     C_R   0.188465 0.592555 0.426772 -0.233256
C14   C     C_R   0.494601 0.062933 0.625589 0.185396
C15   C     C_R   0.490285 0.129115 0.500490 -0.103809
C16   C     C_R   0.474175 0.064681 0.375801 -0.208416
C17   C     C_R   0.474483 0.935751 0.375489 -0.198611
C18   C     C_R   0.490759 0.870630 0.499893 -0.093914
C19   C     C_R   0.494839 0.935686 0.625265 0.132732
C20   C     C_3   0.562061 0.929497 0.739030 -0.480912
C21   C     C_3   0.561779 0.069897 0.739432 -0.448851
C22   C     C_R   0.547424 0.587352 0.072021 0.238004
C23   C     C_R   0.498806 0.737562 0.499773 0.806519
C24   C     C_R   0.446467 0.422225 0.076882 -0.097293
C25   C     C_R   0.445866 0.421930 0.928839 0.325361
C26   C     C_R   0.547708 0.586928 0.924901 0.203668
C27   C     C_3   0.645800 0.607862 0.917217 -0.489187
C28   C     C_3   0.645526 0.609474 0.075554 -0.473925
C29   C     C_R   0.670941 0.502101 0.499617 0.813016
C30   C     C_R   0.814710 0.604402 0.434440 -0.070584
C31   C     C_R   0.767569 0.506447 0.499423 -0.107475
C32   C     C_R   0.812335 0.412351 0.569093 -0.253134
C33   C     C_R   0.904916 0.411761 0.571734 0.100929
C34   C     C_R   0.953449 0.505556 0.501082 0.047882
Cu1   Cu    Cu3+1 0.500000 0.499980 0.640670 0.983963
Cu2   Cu    Cu3+1 0.500000 0.500020 0.359330 0.956099
H1    H     H_    0.465898 0.887827 0.277355 0.168924
H2    H     H_    0.533918 0.887913 0.836465 0.205177
H3    H     H_    0.626433 0.889910 0.703249 0.200069
H4    H     H_    0.533468 0.109242 0.837135 0.225606
H5    H     H_    0.625999 0.112063 0.704026 0.188409
H6    H     H_    0.404527 0.357804 0.134754 0.171540
H7    H     H_    0.682340 0.527680 0.873451 0.224160
H8    H     H_    0.663393 0.698839 0.869535 0.196170
H9    H     H_    0.682711 0.531233 0.122023 0.222151
H10   H     H_    0.774570 0.339224 0.621170 0.139170
H11   H     H_    0.662034 0.702075 0.117819 0.218763
H12   H     H_    0.911471 0.246488 0.698053 0.148982
H13   H     H_    0.221871 0.340108 0.631441 0.187251
H14   H     H_    0.226492 0.662519 0.369880 0.140934
H15   H     H_    0.088224 0.761294 0.301783 0.153107
H16   H     H_    0.926923 0.768824 0.304834 0.163310
H17   H     H_    0.465354 0.113290 0.277799 0.172747
N1    N     N_R   0.500570 0.500930 0.147930 -0.208764
N2    N     N_R   0.500570 0.500890 0.852020 -0.208452
O1    O     O_R   0.500000 0.319640 0.618810 -0.543908
O2    O     O_R   0.500010 0.319680 0.381230 -0.593181
O3    O     O_R   0.370250 0.499950 0.618800 -0.538562
O4    O     O_R   0.370260 0.499990 0.381220 -0.586647
O5    O     O_R   0.499990 0.680320 0.618770 -0.580249
O6    O     O_R   0.500000 0.680360 0.381190 -0.581181
O7    O     O_R   0.629740 0.500010 0.618780 -0.589385
O8    O     O_R   0.629750 0.500050 0.381200 -0.575704
C35   C     C_1   0.766846 0.711089 0.383134 0.200355
N3    N     N_1   0.728875 0.797026 0.344021 -0.309227
Br1   Br    Br    0.366585 0.305163 0.844895 -0.541602
C36   C     C_1   0.084518 0.218232 0.724299 0.252302
N4    N     N_1   0.118355 0.139561 0.785963 -0.250017

loop_
_geom_bond_atom_site_label_1
_geom_bond_atom_site_label_2
_ccdc_geom_bond_type
C4    C36   S    
C11   C12   S    
C29   O8    A    
C28   H11   S    
C25   Br1   S    
C6    C7    A    
C1    C15   S    
C1    O2    A    
Cu2   O8    S    
C24   H6    S    
C19   C20   S    
C14   C15   A    
C7    C13   A    
C2    C30   A    
Cu2   O4    S    
C12   O3    A    
C32   C33   A    
C2    C34   A    
C17   C18   A    
C24   N1    A    
C24   C25   A    
C5    C10   A    
C22   N1    A    
C22   C28   S    
C35   N3    T    
C18   C19   A    
C23   O5    A    
C2    C9    A    
C8    H15   S    
C26   C27   S    
C5    C6    A    
C9    H16   S    
Cu1   O3    S    
C21   H5    S    
C4    C5    A    
C14   C19   A    
C14   C21   S    
C13   H14   S    
C26   N2    A    
C33   C34   A    
Cu1   O7    S    
C30   C35   S    
C12   O4    A    
Cu2   O6    S    
C22   C26   A    
C30   C31   A    
C28   H9    S    
C11   C13   A    
Cu2   N1    S    
C15   C16   A    
C3    C33   A    
Cu1   N2    S    
C36   N4    T    
C25   N2    A    
C3    H12   S    
C23   O6    A    
C20   H2    S    
C20   C21   S    
Cu2   O2    S    
C6    C34   A    
C29   C31   S    
C7    C8    A    
C10   C11   A    
C27   C28   S    
C20   H3    S    
C27   H7    S    
C29   O7    A    
Cu1   O5    S    
C17   H1    S    
Cu1   O1    S    
C16   H17   S    
C10   H13   S    
C32   H10   S    
C27   H8    S    
C1    O1    A    
C31   C32   A    
C3    C4    A    
C18   C23   S    
C16   C17   A    
C8    C9    A    
Cu1   Cu2   S    
C21   H4    S    
