data_mof_unit_51425.cif
_audit_creation_date              2012-12-10T20:02:26-0500
_audit_creation_method            fapswitch 2.2
_symmetry_space_group_name_H-M    P1
_symmetry_Int_Tables_number       1
_space_group_crystal_system       triclinic
_cell_length_a                    18.245015
_cell_length_b                    18.517245
_cell_length_c                    18.440133
_cell_angle_alpha                 120.747481
_cell_angle_beta                  119.749015
_cell_angle_gamma                 89.905748
_cell_volume                      4375.33308363

loop_
_atom_site_label
_atom_site_type_symbol
_atom_type_description
_atom_site_fract_x
_atom_site_fract_y
_atom_site_fract_z
_atom_type_partial_charge
C1    C     C_R   0.140541 0.140223 0.779784 0.883181
C2    C     C_R   0.707468 0.767505 0.426458 0.084097
C3    C     C_R   0.833954 0.796667 0.758718 0.349966
C4    C     C_R   0.860347 0.856952 0.219504 0.887940
C5    C     C_R   0.881707 0.797651 0.846792 -0.164494
C6    C     C_R   0.942790 0.752270 0.857598 -0.188382
C7    C     C_R   0.957896 0.706451 0.781307 -0.153566
C8    C     C_R   0.907449 0.699574 0.689556 0.472327
C9    C     C_R   0.842011 0.742411 0.675874 -0.168516
C10   C     C_R   0.716732 0.787797 0.054978 0.007986
C11   C     C_R   0.804888 0.790818 0.107298 -0.218124
C12   C     C_R   0.617268 0.728013 0.249557 -0.346868
C13   C     C_R   0.833182 0.726019 0.050117 0.321994
C14   C     C_R   0.769932 0.663995 0.941012 0.320044
C15   C     C_R   0.692068 0.682333 0.891100 -0.245128
C16   C     C_R   0.859666 0.139742 0.500577 0.854680
C17   C     C_R   0.661255 0.736442 0.949244 -0.080122
C18   C     C_3   0.618721 0.807444 0.951089 0.800466
C19   C     C_3   0.681857 0.863135 0.068566 -0.427160
C20   C     C_R   0.213893 0.769712 0.556172 0.047982
C21   C     C_R   0.186426 0.795377 0.490097 -0.058058
C22   C     C_R   0.204745 0.757331 0.415171 -0.160927
C23   C     C_R   0.554953 0.740129 0.175883 0.342435
C24   C     C_R   0.259360 0.704089 0.416359 -0.178267
C25   C     C_R   0.297595 0.689597 0.493575 -0.093872
C26   C     C_R   0.271044 0.720798 0.560230 0.032062
C27   C     C_3   0.321324 0.773280 0.675684 0.343819
C28   C     C_R   0.138629 0.858790 0.498254 0.802383
C29   C     C_3   0.255240 0.824103 0.669516 -0.475177
C30   C     C_R   0.210682 0.160519 0.945445 -0.107034
C31   C     C_R   0.201814 0.196061 0.891627 -0.120711
C32   C     C_R   0.258042 0.283959 0.947944 0.504361
C33   C     C_R   0.310084 0.337468 0.056186 -0.253725
C34   C     C_R   0.534293 0.820091 0.209625 0.254395
C35   C     C_R   0.310075 0.302774 0.108540 -0.131451
C36   C     C_R   0.265539 0.211849 0.051652 0.041685
C37   C     C_3   0.203676 0.163783 0.056251 0.184161
C38   C     C_3   0.143146 0.106374 0.938278 0.219284
C39   C     C_R   0.226604 0.289006 0.568828 -0.045702
C40   C     C_R   0.140936 0.140067 0.500628 0.810980
C41   C     C_R   0.203616 0.195897 0.507242 -0.216035
C42   C     C_R   0.245699 0.158409 0.455940 0.521510
C43   C     C_R   0.296999 0.212891 0.454027 -0.264786
C44   C     C_R   0.308892 0.304349 0.504563 -0.084780
C45   C     C_R   0.658461 0.711145 0.427241 -0.184981
C46   C     C_R   0.275444 0.341208 0.564125 -0.023587
C47   C     C_3   0.222611 0.403514 0.571781 0.134425
C48   C     C_3   0.169846 0.347193 0.579801 0.171807
C49   C     C_R   0.839387 0.285303 0.555767 -0.043139
C50   C     C_R   0.803782 0.195107 0.507830 -0.064967
C51   C     C_R   0.715600 0.161185 0.474207 -0.248215
C52   C     C_R   0.859071 0.860359 0.499497 0.896276
C53   C     C_R   0.661064 0.215233 0.477205 0.434073
C54   C     C_R   0.695179 0.303572 0.510484 -0.193332
C55   C     C_R   0.786401 0.337999 0.556292 -0.092900
C56   C     C_R   0.699264 0.698075 0.504675 -0.017268
C57   C     C_3   0.840407 0.394383 0.551151 0.900572
C58   C     C_3   0.898554 0.333934 0.549379 -0.519186
C59   C     C_R   0.359581 0.639678 0.499891 0.866610
C60   C     C_R   0.639922 0.359739 0.502078 0.917461
C61   C     C_R   0.639528 0.638832 0.780220 1.008786
C62   C     C_R   0.360157 0.359643 0.220138 0.827672
C63   C     C_R   0.359639 0.359980 0.499728 0.929788
C64   C     C_R   0.572244 0.882371 0.315018 -0.373695
C65   C     C_R   0.641102 0.640765 0.501667 0.861094
C66   C     C_R   0.630325 0.867767 0.387707 0.438201
C67   C     C_R   0.792819 0.742094 0.582989 0.109814
C68   C     C_R   0.654921 0.790761 0.354702 -0.055105
C69   C     C_3   0.469737 0.706997 0.829022 -0.011097
C70   C     C_3   0.432880 0.871661 0.702560 -0.027765
C71   C     C_3   0.329033 0.309342 0.887588 -0.145804
C72   C     C_3   0.304827 0.050500 0.455194 -0.188276
C73   C     C_3   0.943641 0.501101 0.734552 -0.180851
C74   C     C_R   0.842350 0.794109 0.578065 -0.072553
C75   C     C_R   0.801489 0.806055 0.499824 -0.042991
H1    H     H_    0.981371 0.755771 0.927402 0.222176
H2    H     H_    0.284820 0.896832 0.710307 0.209538
H3    H     H_    0.348898 0.406380 0.098649 0.192293
H4    H     H_    0.174725 0.207779 0.095319 0.150804
H5    H     H_    0.138209 0.034996 0.899283 0.158329
H6    H     H_    0.324335 0.182439 0.409491 0.223724
H7    H     H_    0.264803 0.472835 0.642451 0.136266
H8    H     H_    0.097432 0.311389 0.515332 0.113736
H9    H     H_    0.688954 0.092596 0.444273 0.203351
H10   H     H_    0.633970 0.667409 0.224963 0.220774
H11   H     H_    0.891172 0.290841 0.474903 0.214358
H12   H     H_    0.010421 0.677331 0.794715 0.195777
H13   H     H_    0.969176 0.364880 0.617450 0.242102
H14   H     H_    0.586581 0.680639 0.368948 0.176679
H15   H     H_    0.913394 0.828701 0.639140 0.203259
H16   H     H_    0.874889 0.836931 0.909660 0.219936
H17   H     H_    0.541064 0.980702 0.212195 0.353261
H18   H     H_    0.016657 0.688493 0.565816 0.393281
H19   H     H_    0.075435 0.834873 0.212703 0.387747
H20   H     H_    0.683779 0.428279 0.724963 0.382547
H21   H     H_    0.783406 0.940346 0.014073 0.374514
H22   H     H_    0.489849 0.651487 0.831964 0.179203
H23   H     H_    0.733876 0.925202 0.106348 0.159168
H24   H     H_    0.461355 0.703465 0.763506 0.193617
H25   H     H_    0.403246 0.698303 0.816056 0.178869
H26   H     H_    0.377939 0.891363 0.662151 0.082026
H27   H     H_    0.453438 0.829108 0.651866 0.167264
H28   H     H_    0.490956 0.933923 0.769873 0.228977
H29   H     H_    0.327126 0.334862 0.844096 0.247900
H30   H     H_    0.322406 0.237616 0.842688 0.095964
H31   H     H_    0.395073 0.348348 0.964169 0.155988
H32   H     H_    0.345077 0.029437 0.100332 0.433814
H33   H     H_    0.790233 0.036388 0.664896 0.423572
H34   H     H_    0.647577 0.872732 0.107064 0.238894
H35   H     H_    0.988469 0.230840 0.897691 0.401462
H36   H     H_    0.289925 0.977212 0.411749 0.199156
H37   H     H_    0.319453 0.075716 0.531916 0.126616
H38   H     H_    0.364836 0.079681 0.464608 0.176213
H39   H     H_    0.075979 0.256761 0.349157 0.349957
H40   H     H_    0.192489 0.537772 0.735740 0.380313
H41   H     H_    0.488627 0.213175 0.520404 0.368785
H42   H     H_    0.687813 0.443902 0.371529 0.369245
H43   H     H_    0.011331 0.506677 0.750584 0.213081
H44   H     H_    0.922035 0.450546 0.741834 0.176885
H45   H     H_    0.180266 0.771573 0.358673 0.196301
H46   H     H_    0.949853 0.565847 0.796212 0.218913
H47   H     H_    0.366997 0.617724 0.999206 0.378801
H48   H     H_    0.872161 0.985532 0.918797 0.376683
H49   H     H_    0.553345 0.941109 0.339951 0.265730
H50   H     H_    0.274688 0.677867 0.359811 0.193099
H51   H     H_    0.313151 0.730275 0.698237 0.116052
H52   H     H_    0.209036 0.807316 0.685528 0.216930
O1    O     O_3   0.000000 0.000000 0.500000 -0.527526
O2    O     O_R   0.384160 0.323450 0.268320 -0.591787
O3    O     O_R   0.384130 0.444860 0.560610 -0.639335
O4    O     O_R   0.115780 0.055050 0.731580 -0.634028
O5    O     O_R   0.555060 0.615780 0.439210 -0.648087
O6    O     O_R   0.384140 0.323430 0.439180 -0.595829
O7    O     O_R   0.676490 0.615760 0.560640 -0.614753
O8    O     O_R   0.676470 0.615740 0.731500 -0.586925
O9    O     O_R   0.384180 0.444900 0.268330 -0.649027
O10   O     O_R   0.384150 0.615750 0.560620 -0.635206
O11   O     O_R   0.555030 0.323430 0.439190 -0.561326
O12   O     O_R   0.823480 0.055090 0.439280 -0.651636
O13   O     O_R   0.823490 0.884220 0.268410 -0.653861
O14   O     O_R   0.944920 0.176520 0.560720 -0.610470
O15   O     O_R   0.115810 0.884200 0.439290 -0.635278
O16   O     O_R   0.115820 0.176530 0.560730 -0.616493
O17   O     O_R   0.944890 0.884180 0.560700 -0.616423
O18   O     O_R   0.115830 0.055100 0.439300 -0.591756
O19   O     O_R   0.823460 0.884190 0.439270 -0.632992
O20   O     O_2   0.464462 0.811415 0.035988 -0.196603
O21   O     O_2   0.364512 0.800885 0.084687 -0.208576
O22   O     O_3   0.479585 0.955610 0.189168 -0.484519
O23   O     O_R   0.115790 0.884180 0.560710 -0.640529
O24   O     O_2   0.979745 0.580287 0.612623 -0.202097
O25   O     O_2   0.852300 0.595914 0.490698 -0.255817
O26   O     O_3   0.006856 0.722109 0.620786 -0.583434
O27   O     O_2   0.972097 0.718787 0.195239 -0.294149
O28   O     O_2   0.966168 0.660096 0.039091 -0.212290
O29   O     O_3   0.014093 0.829639 0.164066 -0.520472
O30   O     O_2   0.830128 0.563078 0.830154 -0.294243
O31   O     O_2   0.820660 0.524987 0.935626 -0.197361
O32   O     O_3   0.673602 0.481711 0.767676 -0.576195
O33   O     O_2   0.586967 0.798757 0.786128 -0.282062
O34   O     O_R   0.115790 0.176500 0.731590 -0.572818
O35   O     O_2   0.622850 0.945244 0.936887 -0.244126
O36   O     O_3   0.751679 0.880052 0.947763 -0.556901
O37   O     O_3   0.529259 0.790941 0.922558 -0.563105
O38   O     O_3   0.412717 0.828358 0.738664 -0.553798
O39   O     O_3   0.257794 0.320293 0.898480 -0.551022
O40   O     O_2   0.302184 0.159329 0.220350 -0.213361
O41   O     O_2   0.178414 0.022679 0.059522 -0.259854
O42   O     O_3   0.322614 0.064308 0.072351 -0.514227
O43   O     O_2   0.622547 0.013217 0.530512 -0.249861
O44   O     O_2   0.636871 0.890224 0.546244 -0.227410
O45   O     O_R   0.944940 0.884220 0.268420 -0.564759
O46   O     O_3   0.776888 0.990601 0.596137 -0.535637
O47   O     O_2   0.980234 0.062880 0.773157 -0.293821
O48   O     O_2   0.989274 0.096411 0.924796 -0.250880
O49   O     O_3   0.050026 0.229090 0.932720 -0.551221
O50   O     O_3   0.229516 0.067489 0.398595 -0.560957
O51   O     O_2   0.075320 0.425254 0.451879 -0.222514
O52   O     O_2   0.208269 0.460279 0.458121 -0.265688
O53   O     O_3   0.117082 0.293305 0.350754 -0.504694
O54   O     O_2   0.144132 0.347773 0.712559 -0.207151
O55   O     O_2   0.289335 0.444641 0.787605 -0.267802
O56   O     O_3   0.499960 0.499960 0.499910 -0.535585
O57   O     O_3   0.149581 0.492542 0.722661 -0.518184
O58   O     O_2   0.483112 0.145348 0.333853 -0.191317
O59   O     O_2   0.544014 0.089007 0.437916 -0.282501
O60   O     O_3   0.534029 0.247547 0.524805 -0.573807
O61   O     O_2   0.843691 0.404479 0.411953 -0.180854
O62   O     O_2   0.714295 0.290160 0.344154 -0.341738
O63   O     O_3   0.722036 0.455817 0.440481 -0.528202
O64   O     O_3   0.882529 0.486003 0.638024 -0.570898
O65   O     O_2   0.547819 0.674218 0.005203 -0.257206
O66   O     O_2   0.512846 0.566187 0.031397 -0.289044
O67   O     O_R   0.384170 0.615770 0.439200 -0.639876
O68   O     O_3   0.393062 0.636290 0.972852 -0.431950
O69   O     O_2   0.791138 0.916832 0.718282 -0.227055
O70   O     O_2   0.675936 0.823553 0.695759 -0.230827
O71   O     O_3   0.808186 0.953117 0.881746 -0.447034
O72   O     O_R   0.676480 0.444870 0.560630 -0.587985
O73   O     O_R   0.555020 0.615730 0.731490 -0.688319
S1    S     S_3+6 0.458223 0.844724 0.125214 0.103181
S2    S     S_3+6 0.190355 0.407937 0.704892 0.050468
S3    S     S_3+6 0.552436 0.170526 0.439931 0.064407
S4    S     S_3+6 0.778977 0.383817 0.432049 0.087522
S5    S     S_3+6 0.502844 0.651738 0.044023 0.092796
S6    S     S_3+6 0.774596 0.872795 0.760664 0.114708
S7    S     S_3+6 0.935021 0.644951 0.599290 0.076706
S8    S     S_3+6 0.947655 0.729884 0.111601 0.082568
S9    S     S_3+6 0.776809 0.556933 0.869131 0.088880
S10   S     S_3+6 0.642593 0.859262 0.901973 0.066679
S11   S     S_3+6 0.252003 0.101066 0.104884 0.085474
S12   S     S_3+6 0.664802 0.941971 0.517327 0.067046
S13   S     S_3+6 0.036149 0.121711 0.889127 0.031426
S14   S     S_3+6 0.154141 0.397614 0.456367 0.046099
Zn1   Zn    Zn3+2 0.869870 0.956630 0.413250 1.010506
Zn2   Zn    Zn3+2 0.043380 0.130130 0.586750 1.063150
Zn3   Zn    Zn3+2 0.043390 0.956630 0.413260 1.033298
Zn4   Zn    Zn3+2 0.043360 0.956610 0.586740 1.031210
Zn5   Zn    Zn3+2 0.630090 0.543330 0.586660 1.112097
Zn6   Zn    Zn3+2 0.456570 0.543320 0.586650 1.036825
Zn7   Zn    Zn3+2 0.456580 0.369830 0.413160 1.130228
Zn8   Zn    Zn3+2 0.456590 0.543350 0.413170 1.020143

loop_
_geom_bond_atom_site_label_1
_geom_bond_atom_site_label_2
_ccdc_geom_bond_type
C66   C68   A    
C71   H29   S    
C72   H37   S    
O30   S9    D    
O56   Zn6   S    
C73   H44   S    
C32   O39   S    
O71   S6    S    
C29   H2    S    
O65   S5    D    
H48   O71   S    
C35   C36   A    
O41   S11   D    
C69   O37   S    
H47   O68   S    
C52   C75   S    
O63   S4    S    
H40   O57   S    
C70   H26   S    
C7    C8    A    
C39   C41   A    
C54   C60   S    
C53   C54   A    
C22   H45   S    
C37   H4    S    
C12   C23   A    
C26   C27   S    
C52   O17   A    
C38   H5    S    
C12   H10   S    
O4    Zn4   S    
H20   O32   S    
C63   O6    A    
C36   C37   S    
C18   S10   S    
C16   C50   S    
C57   O64   S    
C2    C68   S    
C30   C31   A    
C27   H51   S    
C33   H3    S    
C63   O3    A    
C27   C29   S    
C59   O10   A    
C42   O50   S    
C56   C65   S    
O42   S11   S    
C47   S14   S    
O60   S3    S    
C1    C31   S    
C30   C38   S    
O52   S14   D    
C18   C19   S    
C41   C42   A    
C47   H7    S    
C62   O9    A    
C34   S1    S    
C37   S11   S    
C14   C15   A    
O25   S7    D    
C60   O72   A    
O26   S7    S    
C18   O37   S    
C19   H23   S    
C7    H12   S    
O54   S2    D    
C45   C56   A    
O12   Zn1   S    
C8    C9    A    
C71   O39   S    
O6    Zn7   S    
C71   H30   S    
C69   H22   S    
C28   O23   A    
C45   H14   S    
C65   O7    A    
O13   Zn1   S    
O67   Zn8   S    
O56   Zn5   S    
O31   S9    D    
C72   H36   S    
C1    O34   A    
O62   S4    D    
C13   C14   A    
C23   S5    S    
O69   S6    D    
C62   O2    A    
O70   S6    D    
C72   O50   S    
C58   H11   S    
O14   Zn2   S    
O36   S10   S    
C44   C46   A    
O21   S1    D    
C50   C51   A    
C20   C29   S    
C19   H34   S    
C44   C63   S    
C15   C61   S    
H41   O60   S    
O66   S5    D    
C74   C75   A    
O51   S14   D    
C47   C48   S    
O20   S1    D    
O72   Zn5   S    
C24   C25   A    
O2    Zn7   S    
O28   S8    D    
H42   O63   S    
C70   O38   S    
C70   H28   S    
C2    C45   A    
O35   S10   D    
O11   Zn7   S    
C3    C5    A    
C25   C26   A    
C64   H49   S    
C72   H38   S    
O61   S4    D    
C49   C58   S    
C51   C53   A    
O57   S2    S    
C64   C66   A    
C8    S7    S    
C43   C44   A    
C9    C67   S    
O15   Zn3   S    
O17   Zn4   S    
C37   C38   S    
C3    C9    A    
C4    O13   A    
C12   C68   A    
C31   C32   A    
O68   S5    S    
C10   C19   S    
O56   Zn7   S    
C23   C34   A    
O8    Zn5   S    
H33   O46   S    
C34   C64   A    
C17   C18   S    
O23   Zn4   S    
C13   S8    S    
O18   Zn3   S    
C67   C74   A    
C53   S3    S    
C4    C11   S    
O3    Zn6   S    
C73   O64   S    
C27   O38   S    
C39   C46   A    
C40   O18   A    
C40   C41   S    
C21   C28   S    
O1    Zn2   S    
O1    Zn4   S    
C73   H46   S    
C29   H52   S    
C24   H50   S    
O73   Zn6   S    
C48   S2    S    
C22   C24   A    
C71   H31   S    
O46   S12   S    
C28   O15   A    
C42   C43   A    
C38   S13   S    
C66   S12   S    
O22   S1    S    
C65   O5    A    
C61   O8    A    
H32   O42   S    
C15   C17   A    
O43   S12   D    
C54   C55   A    
C57   S4    S    
C52   O19   A    
C73   H43   S    
C4    O45   A    
C14   S9    S    
C59   O67   A    
O55   S2    D    
C3    S6    S    
O34   Zn2   S    
O19   Zn1   S    
C1    O4    A    
C58   H13   S    
O53   S14   S    
C70   H27   S    
C6    H1    S    
C6    C7    A    
H35   O49   S    
C56   C67   A    
O33   S10   D    
H39   O53   S    
O32   S9    S    
C48   H8    S    
C30   C36   A    
O5    Zn8   S    
O47   S13   D    
C32   C33   A    
C69   H24   S    
C55   C57   S    
C16   O14   A    
O40   S11   D    
C49   C55   A    
O44   S12   D    
C11   C13   A    
O58   S3    D    
C57   C58   S    
C5    C6    A    
C20   C26   A    
O56   Zn8   S    
C43   H6    S    
C74   H15   S    
C51   H9    S    
O10   Zn6   S    
H18   O26   S    
C33   C35   A    
O59   S3    D    
C35   C62   S    
C61   O73   A    
O29   S8    S    
C46   C47   S    
C10   C11   A    
O45   Zn3   S    
O1    Zn1   S    
C16   O12   A    
C69   H25   S    
O9    Zn8   S    
C20   C21   A    
C5    H16   S    
H19   O29   S    
C49   C50   A    
C40   O16   A    
H17   O22   S    
O48   S13   D    
O49   S13   S    
O16   Zn2   S    
C25   C59   S    
C10   C17   A    
O24   S7    D    
C21   C22   A    
O1    Zn3   S    
O27   S8    D    
C2    C75   A    
O7    Zn5   S    
C60   O11   A    
C39   C48   S    
H21   O36   S    
