data_mof_unit_22829.cif
_audit_creation_date              2012-12-10T17:47:48-0500
_audit_creation_method            fapswitch 2.2
_symmetry_space_group_name_H-M    P1
_symmetry_Int_Tables_number       1
_space_group_crystal_system       triclinic
_cell_length_a                    14.837357
_cell_length_b                    14.666842
_cell_length_c                    14.30284
_cell_angle_alpha                 76.289038
_cell_angle_beta                  101.732155
_cell_angle_gamma                 115.289484
_cell_volume                      2715.51982002

loop_
_atom_site_label
_atom_site_type_symbol
_atom_type_description
_atom_site_fract_x
_atom_site_fract_y
_atom_site_fract_z
_atom_type_partial_charge
C1    C     C_R   0.880271 0.312392 0.507509 0.836543
C2    C     C_R   0.119613 0.687928 0.491276 0.869087
C3    C     C_R   0.637874 0.078387 0.492195 -0.003335
C4    C     C_R   0.361194 0.922436 0.502516 -0.008526
C5    C     C_R   0.673113 0.999161 0.514249 0.021398
C6    C     C_R   0.326253 0.001392 0.482799 0.040704
C7    C     C_R   0.533810 0.052495 0.492689 0.108994
C8    C     C_R   0.465309 0.948146 0.501953 0.099956
C9    C     C_R   0.502272 0.873101 0.506294 -0.064693
C10   C     C_R   0.497070 0.127305 0.489744 -0.108647
C11   C     C_R   0.604825 0.897434 0.517820 -0.098432
C12   C     C_R   0.394744 0.102529 0.481694 -0.125597
C13   C     C_R   0.672782 0.572050 0.306242 0.320140
C14   C     C_R   0.319315 0.432397 0.701838 0.318166
C15   C     C_R   0.772499 0.594012 0.344310 0.441574
C16   C     C_R   0.221674 0.398470 0.653749 0.463535
C17   C     C_R   0.723795 0.528127 0.504348 0.663385
C18   C     C_R   0.284363 0.486305 0.503320 0.626813
C19   C     C_R   0.631100 0.540358 0.470593 -0.144154
C20   C     C_R   0.379240 0.481785 0.544783 -0.106747
C21   C     C_R   0.605774 0.558468 0.368905 -0.235290
C22   C     C_R   0.399844 0.463163 0.647071 -0.245553
C23   C     C_R   0.999742 0.499607 0.668597 0.825293
C24   C     C_R   0.999445 0.499224 0.331520 0.797223
C25   C     C_R   0.557624 0.526190 0.530959 -0.119797
C26   C     C_R   0.456350 0.503490 0.487920 -0.054246
C27   C     C_R   0.434605 0.498525 0.388828 0.294734
C28   C     C_R   0.578945 0.530501 0.631015 0.369634
C29   C     C_R   0.511373 0.558335 0.332178 0.459021
C30   C     C_R   0.500146 0.480012 0.689514 0.381928
C31   C     C_1   0.999327 0.499109 0.771019 -0.031988
C32   C     C_1   0.998562 0.498032 0.229190 -0.098798
C33   C     C_1   0.998979 0.498644 0.856584 0.061528
C34   C     C_1   0.998323 0.497679 0.143700 0.058561
C35   C     C_1   0.998617 0.498122 0.957375 0.058073
C36   C     C_1   0.998394 0.497794 0.042949 0.063605
C37   C     C_R   0.810826 0.204307 0.500971 -0.264976
C38   C     C_R   0.188168 0.796921 0.494928 -0.237020
C39   C     C_R   0.776228 0.022996 0.527008 -0.240240
C40   C     C_R   0.223268 0.978195 0.469909 -0.277383
C41   C     C_R   0.845252 0.124754 0.522278 0.471826
C42   C     C_R   0.152506 0.876221 0.469373 0.480178
C43   C     C_R   0.707929 0.180039 0.467175 0.243767
C44   C     C_R   0.291190 0.821480 0.528373 0.278762
Cu1   Cu    Cu3+1 0.081740 0.475690 0.523180 1.092316
Cu2   Cu    Cu3+1 0.918260 0.524310 0.476820 1.122516
H1    H     H_    0.630675 0.836623 0.527152 0.192508
H2    H     H_    0.368914 0.162388 0.476794 0.215373
H3    H     H_    0.803667 0.962717 0.541806 0.189318
H4    H     H_    0.199234 0.040401 0.458745 0.168615
H5    H     H_    0.452390 0.794898 0.501158 0.206905
H6    H     H_    0.546850 0.205565 0.493961 0.178521
N1    N     N_R   0.795420 0.560790 0.441960 -0.286084
N2    N     N_R   0.204580 0.439210 0.558040 -0.282077
O1    O     O_R   0.977910 0.338120 0.530560 -0.500550
O2    O     O_R   0.022090 0.661880 0.469440 -0.489168
O3    O     O_R   0.839850 0.379180 0.491410 -0.561701
O4    O     O_R   0.160150 0.620820 0.508590 -0.512045
O5    O     O_R   0.069040 0.479460 0.643530 -0.508598
O6    O     O_R   0.930960 0.520540 0.356470 -0.485757
O7    O     O_R   0.930990 0.520530 0.604380 -0.528923
O8    O     O_R   0.069010 0.479470 0.395620 -0.612951
S1    S     S_3+6 0.358818 0.377393 0.354737 -0.022359
O9    O     O_2   0.286035 0.310113 0.426698 -0.352763
O10   O     O_2   0.302396 0.390654 0.256018 -0.264729
O11   O     O_3   0.435375 0.321585 0.349260 -0.509717
H7    H     H_    0.397001 0.271168 0.305315 0.392974
S2    S     S_3+6 0.690392 0.626704 0.677276 0.078308
O12   O     O_2   0.757930 0.580414 0.743777 -0.183467
O13   O     O_2   0.746092 0.702411 0.596039 -0.319020
O14   O     O_3   0.657593 0.688623 0.740597 -0.474915
H8    H     H_    0.721296 0.744171 0.760559 0.383988
S3    S     S_3+6 0.322536 0.746978 0.637847 0.040974
O15   O     O_2   0.235870 0.699088 0.697314 -0.280953
O16   O     O_2   0.344665 0.664047 0.615825 -0.278459
O17   O     O_3   0.423765 0.822027 0.702633 -0.505577
H9    H     H_    0.432940 0.776514 0.763730 0.410488
S4    S     S_3+6 0.677680 0.255318 0.357388 0.029786
O18   O     O_2   0.656387 0.339407 0.378151 -0.305358
O19   O     O_2   0.764585 0.302211 0.298283 -0.270636
O20   O     O_3   0.576297 0.181003 0.292199 -0.496567
H10   H     H_    0.558580 0.229271 0.238371 0.400836
O21   O     O_3   0.049062 0.849330 0.457902 -0.523953
C45   C     C_3   0.019671 0.926157 0.398850 -0.150246
H11   H     H_    0.938064 0.890934 0.374945 0.218818
H12   H     H_    0.058768 0.960453 0.332433 0.159429
H13   H     H_    0.031196 0.985384 0.441187 0.135048
O22   O     O_3   0.946182 0.145321 0.534270 -0.521166
C46   C     C_3   0.976450 0.161091 0.442281 -0.173345
H14   H     H_    0.057091 0.174962 0.451703 0.216659
H15   H     H_    0.968091 0.229614 0.394492 0.152540
H16   H     H_    0.933906 0.092630 0.406494 0.125740
S5    S     S_3+6 0.500643 0.663559 0.246481 0.051454
O23   O     O_2   0.458476 0.717619 0.291352 -0.316351
O24   O     O_2   0.601307 0.738412 0.216367 -0.209770
O25   O     O_3   0.422685 0.620803 0.148656 -0.460685
H17   H     H_    0.416711 0.682471 0.106192 0.383793
S6    S     S_3+6 0.527693 0.414399 0.805995 0.098669
O26   O     O_2   0.555604 0.481068 0.881250 -0.155563
O27   O     O_2   0.438798 0.316686 0.831402 -0.237305
O28   O     O_3   0.624788 0.384107 0.805796 -0.532785
H18   H     H_    0.638161 0.352153 0.873420 0.382231
O29   O     O_3   0.285399 0.566393 0.427864 -0.566409
C47   C     C_3   0.244469 0.533209 0.337684 -0.100662
H19   H     H_    0.200998 0.578229 0.296431 0.157327
H20   H     H_    0.197067 0.449731 0.342912 0.173070
H21   H     H_    0.303138 0.554654 0.291312 0.213766
O30   O     O_3   0.742794 0.483091 0.598394 -0.518567
C48   C     C_3   0.681666 0.377296 0.611607 -0.183802
H22   H     H_    0.686575 0.339636 0.555724 0.158378
H23   H     H_    0.601958 0.361903 0.613041 0.159535
H24   H     H_    0.708402 0.340648 0.682259 0.204962
S7    S     S_3+6 0.133726 0.281874 0.710485 0.095364
O31   O     O_2   0.174587 0.254944 0.813467 -0.225705
O32   O     O_2   0.034149 0.285007 0.710996 -0.260994
O33   O     O_3   0.118521 0.189894 0.650458 -0.501663
H25   H     H_    0.084730 0.124648 0.693430 0.393734
S8    S     S_3+6 0.861487 0.681072 0.262693 0.075205
O34   O     O_2   0.965001 0.734260 0.309642 -0.282518
O35   O     O_2   0.867051 0.626629 0.188720 -0.240576
O36   O     O_3   0.819893 0.772156 0.204257 -0.493366
H26   H     H_    0.864799 0.812319 0.153274 0.386115
S9    S     S_3+6 0.629679 0.537155 0.188018 0.167710
O37   O     O_2   0.518572 0.474256 0.176869 -0.189654
O38   O     O_2   0.653323 0.631008 0.111001 -0.152612
O39   O     O_3   0.687686 0.466434 0.171864 -0.449053
H27   H     H_    0.661459 0.450511 0.105611 0.390988
S10   S     S_3+6 0.334698 0.479494 0.810512 0.152385
O40   O     O_2   0.344054 0.403105 0.898662 -0.143714
O41   O     O_2   0.426129 0.578056 0.812447 -0.208985
O42   O     O_3   0.233414 0.501853 0.813985 -0.495098
H28   H     H_    0.248541 0.532264 0.873145 0.381568

loop_
_geom_bond_atom_site_label_1
_geom_bond_atom_site_label_2
_ccdc_geom_bond_type
C7    C10   A    
S1    O10   D    
S5    O23   D    
C27   C29   A    
S3    O15   D    
C11   H1    S    
C35   C36   T    
C9    H5    S    
C45   H13   S    
C12   H2    S    
C10   H6    S    
C16   S7    S    
C47   H20   S    
O20   H10   S    
C7    C8    A    
C39   C41   A    
Cu1   Cu2   S    
O30   C48   S    
C25   C28   A    
C23   O5    A    
C3    C43   A    
C26   C27   A    
O39   H27   S    
C15   N1    A    
C19   C21   A    
C45   H12   S    
C5    C11   A    
C3    C7    A    
C48   H23   S    
C6    C12   A    
C13   S9    S    
S4    O19   D    
S9    O38   D    
Cu1   O8    S    
C14   S10   S    
O33   H25   S    
S8    O34   D    
C17   C19   A    
C8    C9    A    
C31   C33   T    
C46   H15   S    
C18   C20   A    
C4    C8    A    
S7    O33   S    
Cu2   O6    S    
C40   C42   A    
O11   H7    S    
S1    O11   S    
S5    O24   D    
S10   O40   D    
S3    O16   D    
C10   C12   A    
C47   H19   S    
C16   N2    A    
Cu1   O4    S    
Cu2   O7    S    
O28   H18   S    
S9    O37   D    
C6    C40   A    
O17   H9    S    
C4    C6    A    
C17   O30   S    
S4    O18   D    
S2    O12   D    
S9    O39   S    
C4    C44   A    
C25   C26   A    
C21   C29   A    
C43   S4    S    
S8    O36   S    
C23   C31   S    
C37   C43   A    
C24   C32   S    
C38   C44   A    
C1    O3    A    
C2    C38   S    
O21   C45   S    
C24   O6    A    
O25   H17   S    
C13   C21   A    
C45   H11   S    
C46   H16   S    
C9    C11   A    
O36   H26   S    
C27   S1    S    
C39   H3    S    
C20   C22   A    
Cu1   N2    S    
S5    O25   S    
S6    O27   D    
C13   C15   A    
Cu2   O3    S    
S3    O17   S    
C14   C16   A    
C48   H24   S    
O42   H28   S    
S10   O42   S    
C17   N1    A    
S7    O31   D    
C41   O22   S    
Cu1   O5    S    
C24   O8    A    
C22   C30   A    
C28   S2    S    
C42   O21   S    
C3    C5    A    
S10   O41   D    
C2    O4    A    
C38   C42   A    
C1    C37   S    
S6    O28   S    
C30   S6    S    
C15   S8    S    
C14   C22   A    
C5    C39   A    
C1    O1    A    
O14   H8    S    
C2    O2    A    
C48   H22   S    
C29   S5    S    
S4    O20   S    
C20   C26   A    
S2    O14   S    
C40   H4    S    
Cu2   N1    S    
C28   C30   A    
C33   C35   S    
C34   C36   S    
C18   O29   S    
C37   C41   A    
C44   S3    S    
C19   C25   A    
S8    O35   D    
C18   N2    A    
S1    O9    D    
C23   O7    A    
O22   C46   S    
Cu1   O1    S    
S2    O13   D    
S6    O26   D    
Cu2   O2    S    
O29   C47   S    
C46   H14   S    
C47   H21   S    
C32   C34   T    
S7    O32   D    
