data_mof_unit_37875.cif
_audit_creation_date              2012-12-10T17:14:10-0500
_audit_creation_method            fapswitch 2.2
_symmetry_space_group_name_H-M    P1
_symmetry_Int_Tables_number       1
_space_group_crystal_system       triclinic
_cell_length_a                    15.889489
_cell_length_b                    13.01174
_cell_length_c                    11.66882
_cell_angle_alpha                 100.226902
_cell_angle_beta                  93.392067
_cell_angle_gamma                 90.274549
_cell_volume                      2369.75111953

loop_
_atom_site_label
_atom_site_type_symbol
_atom_type_description
_atom_site_fract_x
_atom_site_fract_y
_atom_site_fract_z
_atom_type_partial_charge
C1    C     C_R   0.502451 0.298875 0.477851 0.814562
C2    C     C_3   0.951010 0.395969 0.508706 -0.362804
C3    C     C_3   0.916684 0.506167 0.498670 -0.080285
C4    C     C_3   0.955748 0.588040 0.607960 0.606201
C5    C     C_3   0.053739 0.591005 0.599384 -0.401880
C6    C     C_1   0.824515 0.503362 0.497638 0.146033
C7    C     C_1   0.175167 0.503314 0.501416 -0.016180
C8    C     C_1   0.250650 0.501628 0.501954 -0.132252
C9    C     C_R   0.503475 0.814430 0.535282 -0.083420
C10   C     C_R   0.509023 0.184877 0.464029 -0.138377
C11   C     C_R   0.518497 0.011981 0.347449 -0.179648
C12   C     C_R   0.340156 0.500127 0.500692 0.820586
C13   C     C_R   0.520483 0.119914 0.354857 -0.027463
C14   C     C_R   0.502344 0.139956 0.563857 -0.204447
C15   C     C_R   0.507148 0.032114 0.558198 0.090586
C16   C     C_R   0.511675 0.968074 0.447354 0.124268
C17   C     C_R   0.509705 0.860268 0.436852 -0.190436
C18   C     C_R   0.501321 0.876982 0.645966 -0.196894
C19   C     C_R   0.504596 0.985906 0.659243 -0.017597
C20   C     C_R   0.425218 0.398423 0.021221 -0.273428
C21   C     C_R   0.431534 0.408251 0.143218 0.129564
C22   C     C_R   0.533056 0.544604 0.158327 0.117949
C23   C     C_R   0.501354 0.700968 0.521796 0.832386
C24   C     C_R   0.529160 0.538150 0.034987 -0.079264
C25   C     C_R   0.473800 0.463574 0.966138 0.006362
C26   C     C_R   0.468118 0.455740 0.843389 0.039612
C27   C     C_R   0.569591 0.591436 0.855019 0.044903
C28   C     C_R   0.578143 0.602946 0.977745 0.304422
C29   C     C_R   0.659763 0.500017 0.499304 0.838104
C30   C     C_3   0.048718 0.397982 0.516904 -0.368368
C31   C     C_3   0.044826 0.524553 0.378183 -0.255856
C32   C     C_3   0.946920 0.533918 0.380754 0.175406
C33   C     C_1   0.749100 0.501375 0.498061 0.012040
C34   C     C_3   0.082822 0.505657 0.499051 0.034210
Cu1   Cu    Cu3+1 0.506190 0.507730 0.615930 0.991336
Cu2   Cu    Cu3+1 0.493810 0.492270 0.384070 1.007885
H1    H     H_    0.927668 0.337034 0.432961 0.238874
H2    H     H_    0.073114 0.380931 0.602615 0.240554
H3    H     H_    0.926726 0.367100 0.584471 0.240714
H4    H     H_    0.512970 0.811953 0.351365 0.188630
H5    H     H_    0.498895 0.840905 0.722643 0.195977
H6    H     H_    0.524694 0.961836 0.263595 0.202009
H7    H     H_    0.490963 0.189752 0.645715 0.187959
H8    H     H_    0.425605 0.398846 0.790173 0.135388
H9    H     H_    0.071732 0.334612 0.449447 0.193537
H10   H     H_    0.606379 0.640434 0.810468 0.198655
H11   H     H_    0.382567 0.340196 0.970327 0.156150
H12   H     H_    0.393962 0.357539 0.184712 0.138045
H13   H     H_    0.574680 0.600273 0.214267 0.188901
H14   H     H_    0.059416 0.453458 0.314272 0.203418
H15   H     H_    0.928690 0.614454 0.376027 0.195549
H16   H     H_    0.086790 0.579826 0.682920 0.221592
H17   H     H_    0.075804 0.668863 0.586525 0.233856
N1    N     N_R   0.515490 0.519350 0.790130 -0.219197
N2    N     N_R   0.484510 0.480650 0.209890 -0.199646
O1    O     O_R   0.504390 0.354460 0.582000 -0.585554
O2    O     O_R   0.493940 0.341410 0.386200 -0.574383
O3    O     O_R   0.384660 0.506540 0.597940 -0.579019
O4    O     O_R   0.374210 0.493480 0.402140 -0.575569
O5    O     O_R   0.506060 0.658590 0.613800 -0.589866
O6    O     O_R   0.495610 0.645540 0.418000 -0.594140
O7    O     O_R   0.625790 0.506520 0.597860 -0.562632
O8    O     O_R   0.615340 0.493460 0.402060 -0.551288
S1    S     S_3+6 0.914584 0.720144 0.615279 0.050392
O9    O     O_2   0.928154 0.765696 0.508255 -0.271757
O10   O     O_2   0.821806 0.719655 0.634169 -0.259978
O11   O     O_3   0.964286 0.799685 0.728795 -0.462953
H18   H     H_    0.933175 0.866101 0.736222 0.392438
C35   C     C_2   0.509381 0.047634 0.779514 0.835805
O12   O     O_2   0.467345 0.020869 0.853959 -0.559140
O13   O     O_R   0.564739 0.133422 0.809161 -0.745231
H19   H     H_    0.562547 0.168866 0.893543 0.337375
C36   C     C_2   0.536429 0.159882 0.246948 0.876730
O14   O     O_2   0.593852 0.222731 0.246524 -0.555782
O15   O     O_R   0.487684 0.122093 0.144361 -0.729084
H20   H     H_    0.503614 0.156079 0.076874 0.341224
S2    S     S_3+6 0.650132 0.698554 0.055023 0.023871
O16   O     O_2   0.603215 0.776517 0.137623 -0.324672
O17   O     O_2   0.715095 0.646593 0.123354 -0.228086
O18   O     O_3   0.698763 0.760953 0.962345 -0.486303
H21   H     H_    0.737967 0.811526 0.012641 0.405110
C37   C     C_2   0.084880 0.615597 0.334862 0.889897
O19   O     O_2   0.124937 0.598860 0.247283 -0.537325
O20   O     O_R   0.076081 0.717985 0.393340 -0.720808
H22   H     H_    0.105801 0.770957 0.355141 0.357320
S3    S     S_3+6 0.896543 0.460853 0.246953 0.035171
O21   O     O_2   0.926017 0.506730 0.146508 -0.207767
O22   O     O_2   0.919960 0.347627 0.229663 -0.286373
O23   O     O_3   0.791068 0.470565 0.246859 -0.497881
H23   H     H_    0.769715 0.432408 0.169405 0.399892
S4    S     S_3+6 0.932850 0.550887 0.747716 0.063640
O24   O     O_2   0.953576 0.640443 0.846023 -0.158802
O25   O     O_2   0.841013 0.522952 0.748532 -0.262785
O26   O     O_3   0.990758 0.449012 0.774674 -0.579638
H24   H     H_    0.972279 0.434326 0.849829 0.409170

loop_
_geom_bond_atom_site_label_1
_geom_bond_atom_site_label_2
_ccdc_geom_bond_type
C29   O8    A    
C36   O14   D    
C30   H9    S    
Cu1   Cu2   S    
Cu2   O4    S    
C27   N1    A    
C26   H8    S    
C7    C8    T    
S2    O16   D    
C15   C19   A    
C31   C37   S    
Cu1   O3    S    
C5    H17   S    
C1    O1    A    
C35   O12   D    
S3    O22   D    
C20   C25   A    
C15   C16   A    
C29   C33   S    
C30   H2    S    
C11   H6    S    
C18   C19   A    
C35   O13   S    
C12   O4    A    
C2    H3    S    
C16   C17   A    
C5    H16   S    
Cu2   O8    S    
C21   H12   S    
C12   O3    A    
C3    C6    S    
Cu1   N1    S    
C36   O15   S    
C3    C32   S    
C26   N1    A    
S2    O17   D    
C23   O5    A    
C30   C34   S    
O11   H18   S    
S1    O11   S    
O20   H22   S    
Cu2   O2    S    
C10   C14   A    
C18   H5    S    
S4    O24   D    
C21   N2    A    
S3    O21   D    
C9    C23   S    
C25   C26   A    
C10   C13   A    
Cu1   O5    S    
C17   H4    S    
S1    O10   D    
O15   H20   S    
C32   H15   S    
C1    O2    A    
S4    O25   D    
C11   C16   A    
C31   C32   S    
C23   O6    A    
C8    C12   S    
C32   S3    S    
C5    C34   S    
C31   C34   S    
C24   C25   A    
C28   S2    S    
C22   H13   S    
C27   H10   S    
C9    C17   A    
C13   C36   S    
C37   O20   S    
C7    C34   S    
C22   C24   A    
C19   C35   S    
C31   H14   S    
Cu2   O6    S    
S2    O18   S    
C29   O7    A    
Cu1   O1    S    
C1    C10   S    
C24   C28   A    
O18   H21   S    
S3    O23   S    
C22   N2    A    
C4    S1    S    
C6    C33   T    
C2    C30   S    
S1    O9    D    
C4    S4    S    
C2    C3    S    
O13   H19   S    
Cu2   N2    S    
S4    O26   S    
C11   C13   A    
C2    H1    S    
Cu1   O7    S    
O26   H24   S    
C20   H11   S    
C9    C18   A    
C4    C5    S    
C20   C21   A    
C37   O19   D    
C27   C28   A    
C14   C15   A    
O23   H23   S    
C3    C4    S    
C14   H7    S    
