data_mof_unit_56263.cif
_audit_creation_date              2012-12-11T16:44:10-0500
_audit_creation_method            fapswitch 2.2
_symmetry_space_group_name_H-M    P1
_symmetry_Int_Tables_number       1
_space_group_crystal_system       triclinic
_cell_length_a                    27.281211
_cell_length_b                    7.197848
_cell_length_c                    22.725588
_cell_angle_alpha                 90.000012
_cell_angle_beta                  101.560609
_cell_angle_gamma                 90.000086
_cell_volume                      4372.00279229

loop_
_atom_site_label
_atom_site_type_symbol
_atom_type_description
_atom_site_fract_x
_atom_site_fract_y
_atom_site_fract_z
_atom_type_partial_charge
O1    O     O_R   0.707300 0.594030 0.176840 -0.525172
O2    O     O_R   0.292700 0.405970 0.823160 -0.528201
O3    O     O_R   0.792700 0.094030 0.323160 -0.525187
O4    O     O_R   0.207300 0.905970 0.676840 -0.528208
O5    O     O_R   0.697330 0.262360 0.295660 -0.545252
O6    O     O_R   0.302670 0.737640 0.704340 -0.547848
O7    O     O_R   0.802670 0.762360 0.204340 -0.545233
O8    O     O_R   0.197330 0.237640 0.795660 -0.547843
C1    C     C_R   0.684443 0.432444 0.311274 0.724542
C2    C     C_R   0.315489 0.567395 0.688589 0.725445
C3    C     C_R   0.815557 0.932444 0.188726 0.724556
C4    C     C_R   0.184511 0.067394 0.811411 0.725456
O9    O     O_R   0.701410 0.264250 0.175600 -0.526990
O10   O     O_R   0.298590 0.735750 0.824400 -0.523433
O11   O     O_R   0.798590 0.764250 0.324400 -0.526979
O12   O     O_R   0.201410 0.235750 0.675600 -0.523437
O13   O     O_R   0.796800 0.094950 0.202240 -0.536532
O14   O     O_R   0.203200 0.905050 0.797760 -0.534707
O15   O     O_R   0.703200 0.594950 0.297760 -0.536508
O16   O     O_R   0.296800 0.405050 0.702240 -0.534715
C5    C     C_R   0.689790 0.433050 0.153170 0.737777
C6    C     C_R   0.310166 0.567260 0.846846 0.732067
C7    C     C_R   0.810210 0.933050 0.346830 0.737798
C8    C     C_R   0.189834 0.067260 0.653154 0.732013
O17   O     O_3   0.781290 0.427390 0.258880 -0.385220
O18   O     O_3   0.218710 0.572610 0.741120 -0.384924
O19   O     O_3   0.718710 0.927390 0.241120 -0.385215
O20   O     O_3   0.281290 0.072610 0.758880 -0.384932
V1    V     V_3+5 0.744190 0.152150 0.248350 1.485510
V2    V     V_3+5 0.255810 0.847850 0.751650 1.487650
V3    V     V_3+5 0.755810 0.652150 0.251650 1.485554
V4    V     V_3+5 0.244190 0.347850 0.748350 1.487652
C9    C     C_R   0.155536 0.059126 0.593667 -0.160190
C10   C     C_R   0.844400 0.943075 0.406380 -0.163067
C11   C     C_R   0.344465 0.559124 0.906332 -0.160199
C12   C     C_R   0.655600 0.443078 0.093620 -0.163059
C13   C     C_R   0.140430 0.073553 0.485052 -0.162282
C14   C     C_R   0.858649 0.966290 0.514812 -0.161210
C15   C     C_R   0.359570 0.573519 0.014948 -0.162291
C16   C     C_R   0.641352 0.466343 0.985188 -0.161217
C17   C     C_R   0.173499 0.086359 0.540478 0.421193
C18   C     C_R   0.825474 0.957803 0.459400 0.424133
C19   C     C_R   0.326501 0.586340 0.959522 0.421214
C20   C     C_R   0.674527 0.457846 0.040601 0.424137
C21   C     C_R   0.104259 0.024809 0.590218 -0.254649
C22   C     C_R   0.896520 0.946152 0.409958 -0.257659
C23   C     C_R   0.395742 0.524814 0.909780 -0.254660
C24   C     C_R   0.603480 0.446134 0.090040 -0.257657
C25   C     C_R   0.069636 0.018567 0.534084 0.083538
C26   C     C_R   0.930851 0.964989 0.466006 0.084168
C27   C     C_R   0.430365 0.518561 0.965915 0.083542
C28   C     C_R   0.569150 0.464988 0.033993 0.084166
C29   C     C_R   0.089069 0.038775 0.480913 0.001030
C30   C     C_R   0.910811 0.968331 0.519080 -0.000313
C31   C     C_R   0.410930 0.538746 0.019087 0.001030
C32   C     C_R   0.589190 0.468364 0.980919 -0.000313
C33   C     C_R   0.016507 0.995330 0.529019 0.037273
C34   C     C_R   0.984110 0.983757 0.471076 0.037470
C35   C     C_R   0.483494 0.495335 0.970980 0.037273
C36   C     C_R   0.515890 0.483744 0.028923 0.037469
C37   C     C_R   0.005789 0.997968 0.419975 -0.192109
C38   C     C_R   0.994597 0.989169 0.580092 -0.192483
C39   C     C_R   0.494210 0.497928 0.080024 -0.192111
C40   C     C_R   0.505404 0.489204 0.919907 -0.192483
C41   C     C_R   0.056817 0.026143 0.424357 0.169739
C42   C     C_R   0.943129 0.977539 0.575646 0.169479
C43   C     C_R   0.443182 0.526096 0.075643 0.169740
C44   C     C_R   0.556873 0.477588 0.924354 0.169479
H1    H     H_    0.908827 0.934561 0.367949 0.115103
H2    H     H_    0.092858 0.003499 0.632410 0.114936
H3    H     H_    0.591172 0.434515 0.132049 0.115106
H4    H     H_    0.407143 0.503516 0.867588 0.114934
H5    H     H_    0.155340 0.093375 0.444986 0.209779
H6    H     H_    0.843030 0.976160 0.554715 0.210019
H7    H     H_    0.344659 0.593322 0.055015 0.209778
H8    H     H_    0.656972 0.476239 0.945286 0.210020
H9    H     H_    0.983780 0.993143 0.375113 0.142604
H10   H     H_    0.016425 0.998586 0.624954 0.142570
H11   H     H_    0.516220 0.493089 0.124886 0.142604
H12   H     H_    0.483577 0.498636 0.875045 0.142571
C45   C     C_R   0.876690 0.114847 0.141910 -0.095971
C46   C     C_R   0.127991 0.881462 0.864206 -0.074762
C47   C     C_R   0.623305 0.614845 0.358082 -0.095967
C48   C     C_R   0.372010 0.381465 0.635795 -0.074761
H13   H     H_    0.866461 0.240650 0.162562 0.113564
H14   H     H_    0.141815 0.754056 0.848198 0.116753
H15   H     H_    0.633530 0.740644 0.337423 0.113565
H16   H     H_    0.358187 0.254059 0.651805 0.116767
C49   C     C_R   0.912085 0.127407 0.105256 -0.100078
C50   C     C_R   0.092391 0.868275 0.900558 -0.101316
C51   C     C_R   0.587909 0.627406 0.394734 -0.100089
C52   C     C_R   0.407609 0.368280 0.599443 -0.101307
H17   H     H_    0.927858 0.262083 0.098668 0.104924
H18   H     H_    0.079736 0.731554 0.910647 0.104021
H19   H     H_    0.572130 0.762080 0.401313 0.104921
H20   H     H_    0.420267 0.231559 0.589358 0.104016
C53   C     C_R   0.927492 0.968122 0.078144 0.082449
C54   C     C_R   0.072964 0.028744 0.922835 0.084177
C55   C     C_R   0.572509 0.468126 0.421856 0.082454
C56   C     C_R   0.427034 0.528748 0.577162 0.084177
C57   C     C_R   0.907047 0.795260 0.089365 -0.105664
C58   C     C_R   0.089572 0.203176 0.906549 -0.101112
C59   C     C_R   0.592961 0.295267 0.410645 -0.105657
C60   C     C_R   0.410423 0.703179 0.593445 -0.101110
H21   H     H_    0.917930 0.669856 0.068972 0.114616
H22   H     H_    0.075915 0.330143 0.923103 0.108855
H23   H     H_    0.582084 0.169866 0.431047 0.114622
H24   H     H_    0.424076 0.830146 0.576888 0.108856
C61   C     C_R   0.871307 0.782798 0.125778 -0.077336
C62   C     C_R   0.124907 0.216380 0.869616 -0.097553
C63   C     C_R   0.628701 0.282802 0.374232 -0.077345
C64   C     C_R   0.375089 0.716382 0.630379 -0.097552
H25   H     H_    0.855947 0.647742 0.132689 0.136762
H26   H     H_    0.136426 0.352978 0.857929 0.129768
H27   H     H_    0.644066 0.147750 0.367329 0.136767
H28   H     H_    0.363567 0.852979 0.642063 0.129803
C65   C     C_R   0.855074 0.942954 0.151921 -0.043730
C66   C     C_R   0.145256 0.055603 0.848636 -0.044647
C67   C     C_R   0.644927 0.442955 0.348080 -0.043728
C68   C     C_R   0.354743 0.555605 0.651362 -0.044654
C69   C     C_R   0.003014 0.851045 0.041232 -0.134944
C70   C     C_R   0.997039 0.145117 0.959746 -0.133634
C71   C     C_R   0.496994 0.351024 0.458778 -0.134943
C72   C     C_R   0.502951 0.645148 0.540241 -0.133630
H29   H     H_    0.006457 0.737425 0.073030 0.123533
H30   H     H_    0.993164 0.258222 0.927763 0.122662
H31   H     H_    0.493557 0.237383 0.426989 0.123523
H32   H     H_    0.506820 0.758274 0.572215 0.122650
C73   C     C_R   0.038153 0.866501 0.004210 -0.115332
C74   C     C_R   0.962158 0.130416 0.997128 -0.115467
C75   C     C_R   0.461854 0.366481 0.495798 -0.115329
C76   C     C_R   0.537832 0.630448 0.502859 -0.115465
H33   H     H_    0.067805 0.764390 0.008848 0.136752
H34   H     H_    0.932642 0.233031 0.993087 0.137315
H35   H     H_    0.432208 0.264348 0.491168 0.136738
H36   H     H_    0.567342 0.733085 0.506891 0.137299
C77   C     C_R   0.035644 0.013524 0.962754 0.079741
C78   C     C_R   0.964641 0.983062 0.038294 0.078748
C79   C     C_R   0.464355 0.513529 0.537243 0.079751
C80   C     C_R   0.535358 0.483068 0.461704 0.078756
I1    I     I_    0.081202 0.048989 0.341153 -0.307488
I2    I     I_    0.918126 0.975710 0.658763 -0.306536
I3    I     I_    0.418796 0.548903 0.158846 -0.307482
I4    I     I_    0.581877 0.475806 0.841238 -0.306532
S1    S     S_3+6 0.760512 0.976690 0.458047 0.037366
O21   O     O_2   0.749565 0.942059 0.519358 -0.274886
O22   O     O_2   0.743918 0.170288 0.438676 -0.341803
O23   O     O_3   0.728386 0.822162 0.409771 -0.494454
H37   H     H_    0.712144 0.896222 0.374510 0.325022
S2    S     S_3+6 0.237212 0.138237 0.541847 0.042421
O24   O     O_2   0.248102 0.134975 0.479588 -0.274058
O25   O     O_2   0.248731 0.328894 0.567989 -0.338618
O26   O     O_3   0.273881 0.980779 0.584214 -0.496680
H38   H     H_    0.286404 0.043138 0.623145 0.322792
S3    S     S_3+6 0.739489 0.476762 0.041957 0.037369
O27   O     O_2   0.750436 0.442238 0.980642 -0.274887
O28   O     O_2   0.756082 0.670331 0.061359 -0.341814
O29   O     O_3   0.771614 0.322173 0.090208 -0.494447
H39   H     H_    0.787849 0.396176 0.125483 0.325027
S4    S     S_3+6 0.262787 0.638207 0.958154 0.042406
O30   O     O_2   0.251896 0.634967 0.020412 -0.274061
O31   O     O_2   0.251265 0.828851 0.932003 -0.338634
O32   O     O_3   0.226123 0.480723 0.915792 -0.496674
H40   H     H_    0.213579 0.543110 0.876870 0.322798

loop_
_geom_bond_atom_site_label_1
_geom_bond_atom_site_label_2
_ccdc_geom_bond_type
O17   V3    S    
C55   C59   A    
O1    C5    A    
O19   V1    S    
C9    C21   A    
C72   C79   A    
O3    C7    A    
O32   H40   S    
C10   C18   A    
O1    V3    S    
O15   V3    S    
C62   C66   A    
S1    O21   D    
C61   C65   A    
C33   C38   A    
C5    C12   S    
C39   H11   S    
O7    C3    A    
C6    C11   S    
O5    C1    A    
C26   C30   A    
C36   C39   A    
C40   C44   A    
O2    V4    S    
O9    V1    S    
C14   C18   A    
C75   H35   S    
O16   V4    S    
O4    C8    A    
S3    O28   D    
C57   C61   A    
C45   C65   A    
C60   H24   S    
C52   H20   S    
O13   V1    S    
C48   C68   A    
C72   C76   A    
C59   C63   A    
C47   C67   A    
O3    V1    S    
C22   H1    S    
C28   C36   A    
C1    O15   A    
C56   C60   A    
C15   C31   A    
C76   C80   A    
C37   H9    S    
C16   C32   A    
S2    O26   S    
C42   I2    S    
O2    C6    A    
C44   I4    S    
C10   C22   A    
C15   H7    S    
C11   C19   A    
C62   H26   S    
C16   C20   A    
C27   C31   A    
C12   C20   A    
C76   H36   S    
C72   H32   S    
C13   C29   A    
C34   C37   A    
O11   C7    A    
C11   C23   A    
C35   C36   A    
O12   C8    A    
S3    O29   S    
C13   C17   A    
C40   H12   S    
C43   I3    S    
C74   H34   S    
O10   V2    S    
S1    O22   D    
C50   H18   S    
O5    V1    S    
C57   H21   S    
C39   C43   A    
O7    V3    S    
C38   C42   A    
C54   C77   S    
O8    V4    S    
S4    O32   S    
C75   C79   A    
O23   H37   S    
C19   S4    S    
C2    O16   A    
C60   C64   A    
O18   V4    S    
C15   C19   A    
C17   S2    S    
C32   C44   A    
C71   C80   A    
O4    V2    S    
C16   H8    S    
C49   C53   A    
C26   C34   A    
C69   C78   A    
C70   H30   S    
C69   H29   S    
C56   C79   S    
C41   I1    S    
C71   H31   S    
C14   C30   A    
C21   C25   A    
O8    C4    A    
C7    C10   S    
C35   C40   A    
O9    C5    A    
C4    C66   S    
C63   C67   A    
O6    V2    S    
O29   H39   S    
C1    C67   S    
C73   H33   S    
C55   C80   S    
C58   C62   A    
C27   C35   A    
C46   C66   A    
C24   H3    S    
C3    C65   S    
C53   C78   S    
C64   H28   S    
S1    O23   S    
C29   C41   A    
C52   C56   A    
C64   C68   A    
C14   H6    S    
C13   H5    S    
C3    O13   A    
C71   C75   A    
C21   H2    S    
C20   S3    S    
C38   H10   S    
C48   H16   S    
C70   C77   A    
C69   C73   A    
C47   H15   S    
O6    C2    A    
C25   C33   A    
C23   C27   A    
O11   V3    S    
C30   C42   A    
C61   H25   S    
O12   V4    S    
C47   C51   A    
C22   C26   A    
C8    C9    S    
C46   C50   A    
C59   H23   S    
C9    C17   A    
S4    O30   D    
O10   C6    A    
O20   V2    S    
C45   C49   A    
C31   C43   A    
C54   C58   A    
C46   H14   S    
C33   C34   A    
C25   C29   A    
C50   C54   A    
C12   C24   A    
S2    O25   D    
C49   H17   S    
C45   H13   S    
C23   H4    S    
C2    C68   S    
O14   V2    S    
C51   H19   S    
C37   C41   A    
C24   C28   A    
C73   C77   A    
C58   H22   S    
C4    O14   A    
S3    O27   D    
S2    O24   D    
C63   H27   S    
C48   C52   A    
C51   C55   A    
O26   H38   S    
C18   S1    S    
C70   C74   A    
C53   C57   A    
C28   C32   A    
S4    O31   D    
C74   C78   A    
