data_mof_unit_41960.cif
_audit_creation_date              2012-10-26T21:13:37-0400
_audit_creation_method            fapswitch 2.2
_symmetry_space_group_name_H-M    P1
_symmetry_Int_Tables_number       1
_space_group_crystal_system       triclinic
_cell_length_a                    9.045473
_cell_length_b                    10.831396
_cell_length_c                    9.598028
_cell_angle_alpha                 90.209917
_cell_angle_beta                  89.73466
_cell_angle_gamma                 90.592106
_cell_volume                      940.301309425

loop_
_atom_site_label
_atom_site_type_symbol
_atom_type_description
_atom_site_fract_x
_atom_site_fract_y
_atom_site_fract_z
_atom_type_partial_charge
C1    C     C_R   0.498951 0.262497 0.499765 0.579136
C2    C     C_R   0.572854 0.590075 0.927272 0.112533
C3    C     C_3   0.731907 0.631514 0.922207 -0.085193
C4    C     C_R   0.220879 0.499466 0.500263 0.535501
C5    C     C_3   0.726033 0.640016 0.081710 0.165290
C6    C     C_R   0.495928 0.737452 0.500213 0.522985
C7    C     C_R   0.779089 0.499676 0.499903 0.571527
C8    C     C_1   0.065626 0.498978 0.500754 -0.073321
C9    C     C_1   0.934317 0.499020 0.500199 -0.038098
C10   C     C_R   0.498013 0.063613 0.624123 0.043018
C11   C     C_R   0.487920 0.129162 0.499603 -0.013609
C12   C     C_R   0.454278 0.934847 0.376342 -0.166725
C13   C     C_R   0.456196 0.063792 0.376199 -0.175971
C14   C     C_3   0.959854 0.617025 0.171021 -0.113895
C15   C     C_3   0.376363 0.876824 0.883746 -0.098222
C16   C     C_3   0.644963 0.132285 0.972696 -0.048862
C17   C     C_2   0.759303 0.113804 0.693160 0.184010
C18   C     C_3   0.181808 0.328290 0.901311 -0.103421
C19   C     C_2   0.840007 0.537092 0.868521 0.308092
C20   C     C_R   0.480045 0.870418 0.500810 -0.031910
C21   C     C_R   0.486722 0.936897 0.625470 -0.045228
C22   C     C_3   0.590686 0.927286 0.747004 0.146651
C23   C     C_3   0.607827 0.068921 0.741525 0.296881
C24   C     C_R   0.569860 0.592128 0.073091 0.153731
C25   C     C_R   0.416300 0.417939 0.074814 -0.010429
C26   C     C_R   0.411961 0.419753 0.924902 0.404204
Cu1   Cu    Cu3+1 0.499990 0.499980 0.640670 1.071939
Cu2   Cu    Cu3+1 0.500010 0.500020 0.359330 0.969341
H1    H     H_    0.438902 0.111618 0.278912 0.133594
H2    H     H_    0.332015 0.805458 0.811279 0.130310
H3    H     H_    0.326199 0.968188 0.863290 0.161604
H4    H     H_    0.343900 0.849126 0.990845 0.105668
H5    H     H_    0.732320 0.203922 0.959802 0.192798
H6    H     H_    0.696842 0.041013 0.989895 0.113930
H7    H     H_    0.581333 0.155936 0.067854 0.126011
H8    H     H_    0.843917 0.048215 0.663788 0.045212
H9    H     H_    0.109933 0.290365 0.817782 0.185481
H10   H     H_    0.137858 0.420737 0.930129 0.109354
H11   H     H_    0.174006 0.264052 0.990999 0.102724
H12   H     H_    0.747615 0.722926 0.872979 0.062484
H13   H     H_    0.937350 0.567890 0.811515 0.060252
H14   H     H_    0.728581 0.736286 0.123684 0.079449
H15   H     H_    0.438608 0.886308 0.278548 0.141646
H16   H     H_    0.692753 0.877202 0.717330 0.060112
H17   H     H_    0.354336 0.348867 0.132109 0.111640
H18   H     H_    0.949703 0.685205 0.257329 0.106173
H19   H     H_    0.003897 0.663177 0.075782 0.067528
H20   H     H_    0.041641 0.546823 0.201925 0.157250
N1    N     N_R   0.500920 0.500930 0.147930 -0.248029
N2    N     N_R   0.500930 0.500890 0.852020 -0.205756
O1    O     O_R   0.500000 0.319640 0.618810 -0.382665
O2    O     O_3   0.532365 0.882714 0.876384 -0.581292
O3    O     O_3   0.547645 0.132842 0.857789 -0.492054
O4    O     O_2   0.786927 0.223981 0.684156 -0.460647
O5    O     O_3   0.328293 0.334580 0.850260 -0.508245
O6    O     O_2   0.822374 0.427162 0.891839 -0.454950
O7    O     O_R   0.500020 0.319680 0.381230 -0.527961
O8    O     O_R   0.288380 0.499980 0.618770 -0.484360
O9    O     O_R   0.288400 0.500020 0.381190 -0.526382
O10   O     O_R   0.499980 0.680320 0.618770 -0.515271
O11   O     O_R   0.500000 0.680360 0.381190 -0.518946
O12   O     O_R   0.711600 0.499980 0.618810 -0.472430
O13   O     O_R   0.711620 0.500020 0.381230 -0.433910
O14   O     O_3   0.822884 0.557118 0.147238 -0.500277

loop_
_geom_bond_atom_site_label_1
_geom_bond_atom_site_label_2
_ccdc_geom_bond_type
C19   O6    D    
C18   H11   S    
C7    O12   A    
C15   H3    S    
C14   H19   S    
C17   H8    S    
C1    O7    A    
C16   H5    S    
C6    C20   S    
Cu2   N1    S    
C1    C11   S    
Cu1   N2    S    
C4    C8    S    
C14   O14   S    
C26   O5    S    
C12   C20   A    
C15   O2    S    
C2    C3    S    
C18   H10   S    
C3    C5    S    
C15   H4    S    
C14   H18   S    
C25   C26   A    
Cu2   O7    S    
Cu2   O11   S    
C3    C19   S    
C1    O1    A    
C6    O10   A    
C7    O13   A    
C17   C23   S    
C5    C24   S    
C18   O5    S    
C15   H2    S    
C4    O9    A    
C13   H1    S    
Cu1   O12   S    
C18   H9    S    
Cu1   O1    S    
C3    H12   S    
C23   O3    S    
C12   H15   S    
Cu1   O10   S    
C26   N2    A    
C16   H7    S    
C2    C24   A    
C10   C23   S    
C25   N1    A    
C10   C11   A    
Cu2   O13   S    
C25   H17   S    
C11   C13   A    
C12   C13   A    
C6    O11   A    
C5    H14   S    
C22   O2    S    
Cu2   O9    S    
C4    O8    A    
C24   N1    A    
C7    C9    S    
C22   C23   S    
C14   H20   S    
C2    N2    A    
C16   H6    S    
C20   C21   A    
C21   C22   S    
C10   C21   A    
C17   O4    D    
C16   O3    S    
C22   H16   S    
C19   H13   S    
C5    O14   S    
C8    C9    T    
Cu1   Cu2   S    
Cu1   O8    S    
