data_mof_unit_6473.cif
_audit_creation_date              2012-12-11T15:11:51-0500
_audit_creation_method            fapswitch 2.2
_symmetry_space_group_name_H-M    P1
_symmetry_Int_Tables_number       1
_space_group_crystal_system       triclinic
_cell_length_a                    19.891077
_cell_length_b                    7.238815
_cell_length_c                    14.207207
_cell_angle_alpha                 87.80734
_cell_angle_beta                  102.615189
_cell_angle_gamma                 90.346656
_cell_volume                      1994.81305284

loop_
_atom_site_label
_atom_site_type_symbol
_atom_type_description
_atom_site_fract_x
_atom_site_fract_y
_atom_site_fract_z
_atom_type_partial_charge
O1    O     O_R   0.449830 0.506740 0.599960 -0.542009
O2    O     O_R   0.550170 0.006740 0.400040 -0.530477
O3    O     O_R   0.588980 0.179860 0.596720 -0.544458
O4    O     O_R   0.411020 0.679860 0.403280 -0.503461
C1    C     C_R   0.616394 0.341788 0.617203 0.902712
C2    C     C_R   0.384265 0.845670 0.381021 0.799736
O5    O     O_R   0.452740 0.177340 0.612040 -0.536695
O6    O     O_R   0.547260 0.677340 0.387960 -0.530898
O7    O     O_R   0.412960 0.002070 0.415460 -0.509316
O8    O     O_R   0.587040 0.502070 0.584540 -0.545701
C3    C     C_R   0.436923 0.343389 0.637740 0.870724
C4    C     C_R   0.564971 0.848279 0.364757 0.781261
O9    O     O_3   0.487110 0.337570 0.435490 -0.360425
O10   O     O_3   0.512890 0.837570 0.564510 -0.398139
V1    V     V_3+5 0.502390 0.064650 0.511970 1.684130
V2    V     V_3+5 0.497610 0.564650 0.488030 1.688117
C5    C     C_R   0.612682 0.760673 0.129371 0.297348
C6    C     C_R   0.387629 0.433013 0.873394 0.329819
C7    C     C_R   0.602803 0.859255 0.286643 -0.193492
C8    C     C_R   0.396174 0.347164 0.712653 -0.204467
C9    C     C_R   0.935526 0.914094 0.311480 0.345275
C10   C     C_R   0.072301 0.223458 0.712274 0.333529
C11   C     C_R   0.899427 0.925236 0.385697 -0.293918
C12   C     C_R   0.113776 0.137410 0.658974 -0.243991
C13   C     C_R   0.827575 0.898277 0.368063 0.466287
C14   C     C_R   0.184575 0.170618 0.676406 0.502075
C15   C     C_R   0.789920 0.872753 0.272576 0.065710
C16   C     C_R   0.213179 0.312365 0.738671 0.065596
C17   C     C_R   0.828771 0.828246 0.203517 -0.212094
C18   C     C_R   0.170965 0.407941 0.789908 -0.221668
C19   C     C_R   0.715764 0.863088 0.245518 -0.072529
C20   C     C_R   0.284640 0.353290 0.756445 -0.076149
C21   C     C_R   0.684286 0.796200 0.153491 -0.162562
C22   C     C_R   0.315371 0.444028 0.839930 -0.169517
C23   C     C_R   0.725787 0.756090 0.088888 0.432996
C24   C     C_R   0.273594 0.567825 0.875902 0.512024
C25   C     C_R   0.796266 0.735446 0.122747 0.396293
C26   C     C_R   0.201246 0.556205 0.846000 0.395302
C27   C     C_R   0.670959 0.925499 0.302791 0.376545
C28   C     C_R   0.324003 0.340746 0.686492 0.378497
C29   C     C_R   0.574051 0.773866 0.200610 0.241760
C30   C     C_R   0.428269 0.370697 0.809662 0.220058
C31   C     C_R   0.900706 0.858641 0.220259 -0.058246
C32   C     C_R   0.100970 0.352745 0.782034 -0.059032
H1    H     H_    0.927626 0.951774 0.458202 0.123030
H2    H     H_    0.091745 0.031950 0.609352 0.122783
C33   C     C_3   0.244417 0.809780 0.134871 0.606555
C34   C     C_3   0.790282 0.146662 0.789090 0.620507
C35   C     C_3   0.319235 0.809083 0.204400 0.538302
C36   C     C_3   0.721136 0.139367 0.707535 0.569053
C37   C     C_3   0.187159 0.716858 0.277067 0.536156
C38   C     C_3   0.815459 0.444607 0.701614 0.514756
C39   C     C_3   0.205211 0.061504 0.236583 0.532142
C40   C     C_3   0.756147 0.450656 0.847581 0.607122
C41   C     C_3   0.186399 0.862561 0.190732 -0.429477
C42   C     C_3   0.814067 0.353090 0.805226 -0.435499
C43   C     C_3   0.312555 0.852942 0.311091 -0.475594
C44   C     C_3   0.687580 0.342281 0.686320 -0.363182
C45   C     C_3   0.262047 0.703503 0.344366 0.585411
C46   C     C_3   0.738754 0.471306 0.641348 0.541765
C47   C     C_3   0.278216 0.050120 0.310254 0.592225
C48   C     C_3   0.680598 0.414367 0.786917 0.475760
O11   O     O_R   0.912980 0.203550 0.915410 -0.512234
O12   O     O_R   0.087020 0.703550 0.084590 -0.533523
O13   O     O_R   0.047270 0.535570 0.887960 -0.524848
O14   O     O_R   0.952730 0.035570 0.112040 -0.523927
C49   C     C_R   0.065059 0.369780 0.863338 0.772929
C50   C     C_R   0.937080 0.866200 0.138583 0.800484
O15   O     O_R   0.911030 0.532970 0.903270 -0.489801
O16   O     O_R   0.088970 0.032970 0.096730 -0.543297
O17   O     O_R   0.949820 0.708150 0.099970 -0.527824
O18   O     O_R   0.050180 0.208150 0.900030 -0.523083
C51   C     C_R   0.885249 0.364806 0.878468 0.904342
C52   C     C_R   0.115039 0.864662 0.119588 0.880602
O19   O     O_3   0.012900 0.375230 0.064480 -0.401128
O20   O     O_3   0.987100 0.875230 0.935520 -0.345006
V3    V     V_3+5 0.997610 0.648190 0.988040 1.774285
V4    V     V_3+5 0.002390 0.148190 0.011960 1.732384
O21   O     O_3   0.507912 0.705556 0.187844 -0.606831
H3    H     H_    0.502106 0.605541 0.141153 0.354065
O22   O     O_3   0.498450 0.345838 0.837435 -0.614647
H4    H     H_    0.509153 0.296254 0.904995 0.313197
Cl1   Cl    Cl    0.241394 0.968799 0.032639 -0.426075
Cl2   Cl    Cl    0.778919 0.053637 0.904937 -0.449923
O23   O     O_3   0.360625 0.942586 0.169848 -0.591585
H5    H     H_    0.407561 0.936777 0.211765 0.327390
O24   O     O_3   0.675742 0.014888 0.740962 -0.530435
H6    H     H_    0.652511 0.936203 0.688257 0.384000
Cl3   Cl    Cl    0.364525 0.592897 0.200911 -0.410782
Cl4   Cl    Cl    0.736737 0.053949 0.596187 -0.485076
O25   O     O_3   0.167759 0.541467 0.240386 -0.604267
H7    H     H_    0.117436 0.524360 0.234181 0.336187
O26   O     O_3   0.851323 0.330693 0.651033 -0.601207
H8    H     H_    0.900997 0.346050 0.679377 0.337938
O27   O     O_3   0.288719 0.525980 0.340331 -0.546211
H9    H     H_    0.260046 0.439761 0.370186 0.420624
O28   O     O_3   0.734883 0.428614 0.543953 -0.581499
H10   H     H_    0.764159 0.518720 0.516894 0.342548
Cl5   Cl    Cl    0.137460 0.143020 0.293996 -0.510782
Cl6   Cl    Cl    0.775187 0.683320 0.849282 -0.363553
O29   O     O_3   0.210087 0.194926 0.163268 -0.583405
H11   H     H_    0.166873 0.266357 0.142509 0.386026
O30   O     O_3   0.761924 0.395750 0.944408 -0.574624
H12   H     H_    0.721637 0.440015 0.967014 0.373354
O31   O     O_3   0.323368 0.191864 0.291530 -0.556999
H13   H     H_    0.323946 0.205436 0.222467 0.404811
O32   O     O_3   0.648207 0.275102 0.833559 -0.587230
H14   H     H_    0.628972 0.329175 0.885040 0.354769
Cl7   Cl    Cl    0.270540 0.092707 0.430649 -0.463574
Cl8   Cl    Cl    0.624947 0.616225 0.776985 -0.509823
O33   O     O_3   0.139396 0.770444 0.331492 -0.586956
H15   H     H_    0.134271 0.666426 0.377107 0.353504
O34   O     O_3   0.849543 0.616226 0.711028 -0.563778
H16   H     H_    0.853652 0.660676 0.645531 0.333655
O35   O     O_3   0.699145 0.744017 0.991971 -0.558207
H17   H     H_    0.666473 0.848493 0.971789 0.388208
O36   O     O_3   0.301484 0.719010 0.926293 -0.529616
H18   H     H_    0.344947 0.754428 0.907183 0.335082
O37   O     O_3   0.257025 0.727251 0.440698 -0.586496
H19   H     H_    0.303896 0.718425 0.482468 0.341417
O38   O     O_3   0.719419 0.657523 0.644206 -0.579735
H20   H     H_    0.686451 0.692638 0.583129 0.335789
O39   O     O_3   0.582424 0.696142 0.039993 -0.624942
H21   H     H_    0.535957 0.752760 0.020472 0.310470
O40   O     O_3   0.415824 0.484798 0.966230 -0.593943
H22   H     H_    0.465656 0.505529 0.973092 0.310654
Cl9   Cl    Cl    0.690077 0.129471 0.367338 -0.493925
Cl10  Cl    Cl    0.282588 0.398701 0.568242 -0.573395
O41   O     O_3   0.005364 0.947674 0.327771 -0.594490
H23   H     H_    0.022080 0.984107 0.395472 0.333152
O42   O     O_3   0.004684 0.169304 0.704249 -0.631849
H24   H     H_    0.992417 0.076966 0.653513 0.318090
O43   O     O_3   0.795579 0.872839 0.444349 -0.594941
H25   H     H_    0.830377 0.880687 0.505748 0.340544
O44   O     O_3   0.227178 0.057033 0.639070 -0.583842
H26   H     H_    0.199158 0.962425 0.599482 0.349618
Cl11  Cl    Cl    0.831115 0.514957 0.116417 -0.562513
Cl12  Cl    Cl    0.152715 0.757548 0.850245 -0.548072
Cl13  Cl    Cl    0.224694 0.591182 0.078614 -0.463745
Cl14  Cl    Cl    0.856861 0.002698 0.760388 -0.434842

loop_
_geom_bond_atom_site_label_1
_geom_bond_atom_site_label_2
_ccdc_geom_bond_type
C44   C48   S    
O14   C50   A    
O24   H6    S    
O26   H8    S    
C11   H1    S    
C10   O42   S    
O16   V4    S    
O12   V3    S    
O15   V3    S    
O27   H9    S    
O1    C3    A    
C47   Cl7   S    
C2    O7    A    
O28   H10   S    
O39   H21   S    
C33   C35   S    
C38   O34   S    
C39   Cl5   S    
O5    C3    A    
O29   H11   S    
C5    C21   A    
C1    C44   S    
C23   C25   A    
O20   V4    S    
O34   H16   S    
C6    C30   A    
C6    O40   S    
C21   C23   A    
C43   C45   S    
C15   C17   A    
C44   C46   S    
O35   H17   S    
C28   Cl10  S    
C35   C43   S    
C18   C26   A    
C49   O18   A    
O18   V4    S    
C14   O44   S    
C38   C46   S    
C37   O25   S    
C9    C31   A    
C41   C52   S    
C39   C47   S    
C5    O39   S    
C10   C32   A    
O33   H15   S    
C39   O29   S    
C31   C50   S    
O13   C49   A    
O16   C52   A    
C45   O37   S    
O32   H14   S    
C19   C21   A    
C23   O35   S    
C33   Cl1   S    
C13   O43   S    
C37   C41   S    
O5    V1    S    
O2    C4    A    
O6    V2    S    
C25   Cl11  S    
C17   C31   A    
C2    C43   S    
C18   C32   A    
C30   O22   S    
C45   O27   S    
C36   Cl4   S    
O22   H4    S    
C39   C41   S    
O14   V4    S    
C40   C42   S    
C3    C8    S    
O13   V3    S    
C34   Cl14  S    
C15   C19   A    
C36   C44   S    
C35   O23   S    
C40   O30   S    
O44   H26   S    
C27   Cl9   S    
O20   V3    S    
O4    C2    A    
C46   O28   S    
C35   Cl3   S    
O25   H7    S    
C48   O32   S    
C40   C48   S    
O23   H5    S    
C34   C36   S    
C34   Cl2   S    
C20   C22   A    
O4    V2    S    
C24   O36   S    
O19   V3    S    
C48   Cl8   S    
C16   C20   A    
O6    C4    A    
C26   Cl12  S    
C38   O26   S    
O1    V2    S    
O15   C51   A    
O2    V1    S    
C6    C22   A    
C9    O41   S    
O38   H20   S    
C7    C27   A    
C36   O24   S    
C9    C11   A    
O43   H25   S    
C10   C12   A    
C37   C45   S    
C47   O31   S    
C33   Cl13  S    
O42   H24   S    
O17   V3    S    
O3    V1    S    
C33   C41   S    
O41   H23   S    
C34   C42   S    
C37   O33   S    
C42   C51   S    
C12   C14   A    
O3    C1    A    
C29   O21   S    
C8    C30   A    
O37   H19   S    
C43   C47   S    
C13   C15   A    
O11   C51   A    
O31   H13   S    
C14   C16   A    
C12   H2    S    
C16   C18   A    
O7    V1    S    
C1    O8    A    
O8    V2    S    
O36   H18   S    
O40   H22   S    
C50   O17   A    
C8    C28   A    
C4    C7    S    
C24   C26   A    
C40   Cl6   S    
C19   C27   A    
C22   C24   A    
C20   C28   A    
C46   O38   S    
O19   V4    S    
C5    C29   A    
O21   H3    S    
C38   C42   S    
C11   C13   A    
O9    V2    S    
C17   C25   A    
O30   H12   S    
O12   C52   A    
O10   V1    S    
C32   C49   S    
C7    C29   A    
O11   V4    S    
