data_mof_unit_12853.cif
_audit_creation_date              2012-12-11T15:31:46-0500
_audit_creation_method            fapswitch 2.2
_symmetry_space_group_name_H-M    P1
_symmetry_Int_Tables_number       1
_space_group_crystal_system       triclinic
_cell_length_a                    13.569189
_cell_length_b                    13.590083
_cell_length_c                    27.651877
_cell_angle_alpha                 90.382771
_cell_angle_beta                  90.079247
_cell_angle_gamma                 119.957871
_cell_volume                      4417.73157896

loop_
_atom_site_label
_atom_site_type_symbol
_atom_type_description
_atom_site_fract_x
_atom_site_fract_y
_atom_site_fract_z
_atom_type_partial_charge
C1    C     C_R   0.619628 0.898389 0.431320 0.540873
C2    C     C_R   0.631097 0.234610 0.208729 -0.103447
C3    C     C_R   0.620672 0.217357 0.258683 -0.100829
C4    C     C_R   0.666567 0.310510 0.290685 0.042033
C5    C     C_R   0.687701 0.345204 0.190608 0.041996
C6    C     C_1   0.694051 0.364919 0.139383 -0.054130
C7    C     C_1   0.650768 0.290755 0.341849 -0.054843
C8    C     C_1   0.701316 0.390431 0.097369 -0.009325
C9    C     C_1   0.232516 0.862902 0.382742 -0.010522
C10   C     C_R   0.276251 0.893689 0.257329 -0.100863
C11   C     C_R   0.257220 0.884357 0.207339 -0.103211
C12   C     C_R   0.599872 0.218683 0.431347 0.544257
C13   C     C_R   0.053685 0.784223 0.221282 -0.101136
C14   C     C_R   0.072713 0.793443 0.271269 -0.103726
C15   C     C_R   0.184098 0.847761 0.289406 0.041970
C16   C     C_R   0.145823 0.829138 0.189199 0.041874
C17   C     C_1   0.124209 0.813950 0.137912 -0.053941
C18   C     C_1   0.205577 0.854386 0.340682 -0.054873
C19   C     C_1   0.096930 0.794512 0.095884 -0.008067
C20   C     C_1   0.634935 0.866000 0.383706 -0.010512
C21   C     C_R   0.600288 0.874100 0.258333 -0.100743
C22   C     C_R   0.607679 0.862216 0.208402 -0.103431
C23   C     C_R   0.279496 0.878863 0.430562 0.544900
C24   C     C_R   0.708497 0.759578 0.222742 -0.100965
C25   C     C_R   0.701210 0.771568 0.272679 -0.103908
C26   C     C_R   0.647505 0.829330 0.290569 0.041942
C27   C     C_R   0.662233 0.805302 0.190501 0.041968
C28   C     C_1   0.675216 0.796523 0.139272 -0.054134
C29   C     C_1   0.642481 0.846112 0.341755 -0.054977
C30   C     C_1   0.692638 0.786864 0.097251 -0.009648
C31   C     C_R   0.640713 0.279206 0.615251 0.020008
C32   C     C_R   0.722210 0.264746 0.640633 -0.125386
C33   C     C_R   0.734711 0.283423 0.689956 -0.124416
C34   C     C_R   0.621062 0.900229 0.568758 0.555232
C35   C     C_R   0.669324 0.321272 0.714355 0.032137
C36   C     C_R   0.597521 0.348442 0.688053 -0.122789
C37   C     C_R   0.582256 0.326250 0.638674 -0.130014
C38   C     C_R   0.575530 0.302956 0.793655 -0.118798
C39   C     C_R   0.583386 0.324413 0.843059 -0.121672
C40   C     C_R   0.783716 0.381555 0.840963 -0.134760
C41   C     C_R   0.776888 0.364222 0.791496 -0.127960
C42   C     C_R   0.673760 0.328996 0.767190 0.038950
C43   C     C_R   0.689058 0.369690 0.866380 0.027309
C44   C     C_R   0.212806 0.858037 0.612915 0.057285
C45   C     C_R   0.601839 0.223105 0.568446 0.540732
C46   C     C_R   0.219664 0.950182 0.639267 -0.167366
C47   C     C_R   0.181029 0.935976 0.686654 -0.144087
C48   C     C_R   0.134833 0.829445 0.708472 0.017877
C49   C     C_R   0.118984 0.735415 0.680996 -0.107290
C50   C     C_R   0.156452 0.748535 0.633290 0.092726
C51   C     C_R   0.015442 0.717638 0.777252 -0.156417
C52   C     C_R   0.999089 0.697991 0.826311 -0.186070
C53   C     C_R   0.165620 0.881816 0.844206 0.267875
C54   C     C_R   0.185285 0.898400 0.793978 -0.108073
C55   C     C_R   0.109980 0.816556 0.760549 -0.012890
C56   C     C_R   0.278165 0.880719 0.567923 0.564040
C57   C     C_R   0.074343 0.778256 0.859756 0.051758
C58   C     C_R   0.643554 0.857324 0.613676 0.026446
C59   C     C_R   0.554244 0.759882 0.635087 -0.176944
C60   C     C_R   0.564768 0.730319 0.682036 -0.143708
C61   C     C_R   0.664389 0.798080 0.708459 -0.009899
C62   C     C_R   0.756431 0.890816 0.686110 -0.099256
C63   C     C_R   0.748316 0.918849 0.638423 0.268047
C64   C     C_R   0.775501 0.796696 0.779078 -0.127520
C65   C     C_R   0.789498 0.794937 0.828451 -0.114695
C66   C     C_R   0.592672 0.743409 0.841237 -0.130757
C67   C     C_1   0.631527 0.264824 0.383782 -0.010637
C68   C     C_R   0.579421 0.748957 0.791356 -0.109362
C69   C     C_R   0.671734 0.777621 0.760089 0.033997
C70   C     C_R   0.699101 0.770137 0.859814 0.037720
C71   C     C_R   0.049296 0.761126 0.048221 0.553062
C72   C     C_R   0.714182 0.435628 0.049679 0.546657
C73   C     C_R   0.723421 0.770728 0.049506 0.546573
C74   C     C_R   0.043116 0.755253 0.910338 0.583918
C75   C     C_R   0.707679 0.427832 0.912744 0.538375
C76   C     C_R   0.719435 0.763959 0.910973 0.533990
C77   C     C_R   0.724193 0.421100 0.272578 -0.103787
C78   C     C_R   0.734734 0.438355 0.222618 -0.100990
Cr1   Cr    Cr6+3 0.417720 0.831920 0.499820 1.036305
Cr2   Cr    Cr6+3 0.668190 0.085770 0.500360 1.044882
Cr3   Cr    Cr6+3 0.414060 0.082260 0.499840 1.019344
Cr4   Cr    Cr6+3 0.908000 0.821090 0.979770 1.041332
Cr5   Cr    Cr6+3 0.912420 0.571130 0.979880 1.027055
Cr6   Cr    Cr6+3 0.657970 0.566940 0.980940 1.028151
H1    H     H_    0.759687 0.493663 0.296936 0.103584
H2    H     H_    0.572059 0.898294 0.183880 0.104587
H3    H     H_    0.751301 0.715752 0.209244 0.098474
H4    H     H_    0.738254 0.736906 0.297196 0.103354
H5    H     H_    0.769016 0.228885 0.623436 0.161162
H6    H     H_    0.493782 0.270640 0.775932 0.093505
H7    H     H_    0.508836 0.312779 0.862264 0.117210
H8    H     H_    0.790421 0.261321 0.709164 0.114264
H9    H     H_    0.854137 0.385135 0.772156 0.100816
H10   H     H_    0.866156 0.415140 0.858238 0.133567
H11   H     H_    0.549753 0.382358 0.705905 0.105279
H12   H     H_    0.778228 0.524316 0.208919 0.098585
H13   H     H_    0.520162 0.339449 0.619527 0.124922
H14   H     H_    0.261054 0.034945 0.624353 0.133282
H15   H     H_    0.954445 0.654739 0.752361 0.123119
H16   H     H_    0.924870 0.621142 0.838400 0.130820
H17   H     H_    0.191125 0.009096 0.706805 0.104197
H18   H     H_    0.260657 0.972606 0.780908 0.105768
H19   H     H_    0.082728 0.652126 0.697129 0.103485
H20   H     H_    0.473717 0.709373 0.616529 0.142516
H21   H     H_    0.593942 0.162060 0.184363 0.104599
H22   H     H_    0.846802 0.815256 0.755811 0.109024
H23   H     H_    0.871295 0.811925 0.842263 0.132970
H24   H     H_    0.493680 0.656840 0.698213 0.114067
H25   H     H_    0.498549 0.734446 0.777477 0.112990
H26   H     H_    0.521684 0.721545 0.865177 0.113719
H27   H     H_    0.833555 0.945494 0.706225 0.115246
H28   H     H_    0.575646 0.131411 0.272365 0.098622
H29   H     H_    0.362818 0.935627 0.270986 0.098444
H30   H     H_    0.329059 0.918951 0.182962 0.104972
H31   H     H_    0.967105 0.740899 0.207623 0.098310
H32   H     H_    0.000855 0.757326 0.295639 0.103324
H33   H     H_    0.558779 0.919209 0.271820 0.098517
O1    O     O_R   0.302900 0.805360 0.446400 -0.501725
O2    O     O_R   0.657980 0.180990 0.549630 -0.503954
O3    O     O_R   0.503420 0.197810 0.553190 -0.520039
O4    O     O_R   0.320350 0.978840 0.548910 -0.517714
O5    O     O_3   0.499990 0.999990 0.500010 -0.254132
O6    O     O_R   0.819150 0.845650 0.033320 -0.502857
O7    O     O_R   0.006060 0.815720 0.028680 -0.490006
O8    O     O_R   0.028100 0.664460 0.032550 -0.502015
O9    O     O_R   0.811290 0.477490 0.029660 -0.492622
O10   O     O_R   0.638120 0.455970 0.034270 -0.503884
O11   O     O_R   0.667540 0.672320 0.030160 -0.492903
O12   O     O_R   0.522090 0.841370 0.450730 -0.495615
O13   O     O_R   0.814460 0.840990 0.926980 -0.516343
O14   O     O_R   0.001710 0.811400 0.930110 -0.489552
O15   O     O_R   0.023410 0.659800 0.926210 -0.521536
O16   O     O_R   0.806940 0.473170 0.931090 -0.512016
O17   O     O_R   0.633420 0.451310 0.927930 -0.515655
O18   O     O_R   0.663190 0.668000 0.931580 -0.496726
O19   O     O_3   0.826130 0.653050 0.980200 -0.258435
O20   O     O_R   0.693280 0.995650 0.447220 -0.506634
O21   O     O_R   0.657260 0.178740 0.451050 -0.494019
O22   O     O_R   0.502640 0.195380 0.446850 -0.504736
O23   O     O_R   0.319630 0.976590 0.450330 -0.495055
O24   O     O_R   0.303680 0.807790 0.552740 -0.471441
O25   O     O_R   0.522820 0.843620 0.549310 -0.518679
O26   O     O_R   0.694060 0.998080 0.553560 -0.457606
O27   O     O_3   0.238340 0.958604 0.878846 -0.561800
C79   C     C_3   0.272019 0.071650 0.866436 -0.121049
H34   H     H_    0.200079 0.080261 0.851886 0.105728
H35   H     H_    0.343756 0.105245 0.840512 0.112748
H36   H     H_    0.303281 0.125052 0.899606 0.148398
N1    N     N_3   0.140215 0.650977 0.606393 -0.603093
H37   H     H_    0.180373 0.614047 0.625152 0.225114
H38   H     H_    0.053062 0.592236 0.605263 0.223538
O28   O     O_3   0.838616 0.014014 0.618289 -0.554155
C80   C     C_3   0.922949 0.987294 0.605069 -0.116680
H39   H     H_    0.888695 0.913815 0.579458 0.117899
H40   H     H_    0.960927 0.970225 0.637374 0.107757
H41   H     H_    0.992273 0.061421 0.586321 0.143365

loop_
_geom_bond_atom_site_label_1
_geom_bond_atom_site_label_2
_ccdc_geom_bond_type
Cr6   O11   S    
Cr3   O23   S    
C66   C68   A    
C21   C26   A    
Cr6   O18   S    
C47   H17   S    
C74   O15   A    
C48   C55   S    
C41   C42   A    
C54   C55   A    
C15   C18   S    
C19   C71   S    
C35   C36   A    
C36   H11   S    
C24   C27   A    
C23   O1    A    
C37   H13   S    
C79   H34   S    
Cr1   O24   S    
C75   O17   A    
Cr2   O5    S    
C77   C78   A    
Cr3   O3    S    
Cr6   O17   S    
C59   H20   S    
C36   C37   A    
C38   C42   A    
C1    O12   A    
C10   C15   A    
N1    H38   S    
C5    C6    S    
Cr2   O21   S    
Cr1   O25   S    
C44   C50   A    
C65   C70   A    
Cr1   O12   S    
Cr1   O1    S    
Cr4   O7    S    
C35   C42   S    
C11   H30   S    
C21   H33   S    
C79   H35   S    
C68   C69   A    
C76   O13   A    
C40   C43   A    
C41   H9    S    
C62   H27   S    
C31   C32   A    
C78   H12   S    
C16   C17   S    
C73   O6    A    
Cr6   O19   S    
C80   H40   S    
C60   H24   S    
C45   O2    A    
Cr6   O10   S    
C46   H14   S    
Cr2   O2    S    
C77   H1    S    
C59   C60   A    
C21   C22   A    
C51   H15   S    
Cr5   O8    S    
C4    C7    S    
C39   H7    S    
C12   C67   S    
C76   O18   A    
C44   C46   A    
C20   C29   T    
C43   C75   S    
C38   C39   A    
Cr1   O5    S    
C74   O14   A    
C34   O26   A    
C8    C72   S    
C72   O10   A    
C51   C52   A    
C23   O23   A    
C24   C25   A    
C52   C57   A    
C33   H8    S    
C30   C73   S    
C53   C57   A    
C9    C23   S    
C6    C8    T    
C58   C59   A    
C53   C54   A    
C52   H16   S    
C25   H4    S    
C31   C37   A    
C32   C33   A    
Cr3   O4    S    
C60   C61   A    
C57   C74   S    
C62   C63   A    
C11   C16   A    
C44   C56   S    
C47   C48   A    
C3    H28   S    
C48   C49   A    
Cr2   O26   S    
C12   O22   A    
C64   C69   A    
C66   H26   S    
C80   H41   S    
Cr5   O19   S    
C13   H31   S    
C10   H29   S    
C56   O24   A    
C45   O3    A    
C40   C41   A    
C22   C27   A    
C32   H5    S    
C70   C76   S    
C12   O21   A    
C71   O7    A    
C2    C5    A    
Cr4   O13   S    
Cr5   O9    S    
C17   C19   T    
C3    C4    A    
Cr4   O6    S    
C79   H36   S    
C1    O20   A    
C61   C69   S    
C58   C63   A    
Cr3   O22   S    
C46   C47   A    
C34   O25   A    
C1    C20   S    
C54   H18   S    
C40   H10   S    
O27   C79   S    
C49   H19   S    
C39   C43   A    
C75   O16   A    
C64   H22   S    
C73   O11   A    
C38   H6    S    
C2    H21   S    
Cr4   O14   S    
Cr3   O5    S    
C53   O27   S    
C56   O4    A    
C28   C30   T    
C2    C3    A    
C25   C26   A    
C4    C77   A    
N1    H37   S    
C64   C65   A    
C50   N1    S    
C66   C70   A    
C14   H32   S    
C33   C35   A    
C51   C55   A    
C68   H25   S    
C22   H2    S    
Cr4   O19   S    
C61   C62   A    
C24   H3    S    
C63   O28   S    
Cr5   O16   S    
C10   C11   A    
C7    C67   T    
C5    C78   A    
C9    C18   T    
Cr5   O15   S    
O28   C80   S    
C26   C29   S    
C49   C50   A    
C31   C45   S    
C13   C16   A    
C72   O9    A    
C27   C28   S    
C34   C58   S    
C14   C15   A    
C71   O8    A    
C80   H39   S    
C13   C14   A    
C65   H23   S    
Cr2   O20   S    
