data_mof_unit_12399.cif
_audit_creation_date              2012-12-11T16:17:51-0500
_audit_creation_method            fapswitch 2.2
_symmetry_space_group_name_H-M    P1
_symmetry_Int_Tables_number       1
_space_group_crystal_system       triclinic
_cell_length_a                    14.028261
_cell_length_b                    14.051736
_cell_length_c                    30.085609
_cell_angle_alpha                 97.138484
_cell_angle_beta                  96.972165
_cell_angle_gamma                 61.403571
_cell_volume                      5153.64796685

loop_
_atom_site_label
_atom_site_type_symbol
_atom_type_description
_atom_site_fract_x
_atom_site_fract_y
_atom_site_fract_z
_atom_type_partial_charge
C1    C     C_R   0.385592 0.711622 0.442409 0.581954
C2    C     C_R   0.415930 0.296768 0.219706 -0.109105
C3    C     C_R   0.430372 0.298639 0.266599 0.014667
C4    C     C_R   0.337969 0.352465 0.291972 0.012308
C5    C     C_R   0.311759 0.347778 0.198083 -0.012302
C6    C     C_1   0.301577 0.329665 0.150087 -0.088993
C7    C     C_1   0.350030 0.358721 0.340209 -0.065985
C8    C     C_1   0.291591 0.306843 0.110591 -0.028414
C9    C     C_R   0.763094 0.369476 0.399811 -0.012329
C10   C     C_R   0.816323 0.258764 0.382908 0.001439
C11   C     C_R   0.836514 0.234436 0.337061 -0.091101
C12   C     C_R   0.399072 0.381335 0.426362 0.546525
C13   C     C_R   0.806169 0.318324 0.309187 0.008884
C14   C     C_R   0.762078 0.425876 0.326821 -0.117531
C15   C     C_R   0.741483 0.451282 0.371737 -0.131525
C16   C     C_R   0.885934 0.361704 0.167377 -0.128495
C17   C     C_R   0.909664 0.360864 0.123943 -0.140324
C18   C     C_R   0.845742 0.227627 0.098565 -0.003932
C19   C     C_R   0.822415 0.229834 0.142993 -0.104686
C20   C     C_R   0.845845 0.293903 0.177149 0.019135
C21   C     C_1   0.831077 0.291011 0.222918 -0.031951
C22   C     C_1   0.820639 0.297397 0.262253 -0.034912
C23   C     C_R   0.711142 0.404949 0.442755 0.516866
C24   C     C_R   0.895240 0.290669 0.089431 0.029796
C25   C     C_R   0.366533 0.767594 0.401157 0.029464
C26   C     C_R   0.458440 0.744283 0.378962 -0.154441
C27   C     C_R   0.448865 0.763527 0.334293 -0.138552
C28   C     C_R   0.347323 0.807128 0.310673 0.039314
C29   C     C_R   0.251354 0.842510 0.333093 -0.010677
C30   C     C_R   0.261143 0.825832 0.379549 0.007982
C31   C     C_R   0.245034 0.833691 0.150543 -0.004157
C32   C     C_R   0.225311 0.871945 0.108310 -0.128029
C33   C     C_R   0.409394 0.848610 0.110266 -0.016096
C34   C     C_R   0.389570 0.711829 0.568201 0.562019
C35   C     C_R   0.432051 0.808071 0.153938 0.018785
C36   C     C_R   0.344249 0.812362 0.175303 0.050203
C37   C     C_1   0.347319 0.809037 0.223082 -0.041520
C38   C     C_1   0.345942 0.809213 0.262989 -0.050099
C39   C     C_R   0.301952 0.888047 0.089093 -0.004447
C40   C     C_R   0.361429 0.361200 0.590473 -0.009738
C41   C     C_R   0.427446 0.267225 0.613186 -0.086764
C42   C     C_R   0.402536 0.256750 0.655412 0.026379
C43   C     C_R   0.308090 0.341571 0.674190 0.003289
C44   C     C_R   0.237794 0.431059 0.649990 -0.120064
C45   C     C_R   0.401706 0.382907 0.552074 0.540937
C46   C     C_R   0.264186 0.440980 0.608335 -0.131438
C47   C     C_R   0.240022 0.410931 0.835756 -0.148221
C48   C     C_R   0.244698 0.396885 0.881491 -0.000648
C49   C     C_R   0.331933 0.200764 0.863170 -0.116481
C50   C     C_R   0.325557 0.214922 0.817737 0.019730
C51   C     C_R   0.278666 0.321151 0.804150 -0.005394
C52   C     C_1   0.278587 0.337356 0.758199 -0.044741
C53   C     C_1   0.287482 0.342240 0.719598 -0.051439
C54   C     C_R   0.289565 0.290044 0.895134 0.013467
C55   C     C_1   0.761711 0.377267 0.612667 -0.013015
C56   C     C_R   0.712807 0.407996 0.568598 0.545220
C57   C     C_R   0.811885 0.423979 0.729147 -0.113495
C58   C     C_R   0.828538 0.410110 0.775127 -0.107364
C59   C     C_R   0.856558 0.225345 0.759490 -0.104387
C60   C     C_R   0.839459 0.239428 0.713407 -0.099321
C61   C     C_R   0.817497 0.338733 0.698166 0.037878
C62   C     C_R   0.850555 0.310941 0.790449 0.038078
C63   C     C_1   0.876184 0.295004 0.837603 -0.057005
C64   C     C_1   0.791630 0.356982 0.651215 -0.057085
C65   C     C_1   0.905213 0.282833 0.876794 -0.014229
C66   C     C_1   0.374778 0.761175 0.613157 -0.011028
C67   C     C_1   0.367805 0.366157 0.380220 -0.013842
C68   C     C_R   0.250936 0.876978 0.715643 -0.118066
C69   C     C_R   0.237321 0.894493 0.761616 -0.110011
C70   C     C_R   0.432689 0.795293 0.777276 -0.045878
C71   C     C_R   0.447752 0.777807 0.730989 0.028027
C72   C     C_R   0.355317 0.818536 0.700001 0.044328
C73   C     C_R   0.327883 0.852834 0.792481 0.048993
C74   C     C_1   0.312240 0.875986 0.839744 -0.040713
C75   C     C_1   0.365073 0.791718 0.652359 -0.062612
C76   C     C_1   0.293106 0.903864 0.878561 -0.012550
C77   C     C_R   0.949624 0.273177 0.047906 0.529531
C78   C     C_R   0.233893 0.406138 0.270477 -0.088496
C79   C     C_R   0.275375 0.270462 0.065297 0.560261
C80   C     C_R   0.261714 0.952299 0.048675 0.538432
C81   C     C_R   0.952366 0.269024 0.922046 0.539317
C82   C     C_R   0.276306 0.265395 0.939280 0.594117
C83   C     C_R   0.261564 0.950892 0.922832 0.545032
C84   C     C_R   0.219294 0.404202 0.223406 0.034809
Cr1   Cr    Cr6+3 0.581000 0.584320 0.508140 1.029873
Cr2   Cr    Cr6+3 0.339110 0.576430 0.496080 1.053188
Cr3   Cr    Cr6+3 0.579910 0.339270 0.495810 1.033270
Cr4   Cr    Cr6+3 0.082090 0.079210 0.982490 1.009243
Cr5   Cr    Cr6+3 0.082460 0.324610 0.994920 1.053203
Cr6   Cr    Cr6+3 0.323630 0.087860 0.996130 0.992056
H1    H     H_    0.164130 0.448888 0.290597 0.160610
H2    H     H_    0.787906 0.180290 0.151249 0.096379
H3    H     H_    0.875077 0.150877 0.322968 0.137810
H4    H     H_    0.145290 0.895436 0.091465 0.138917
H5    H     H_    0.539516 0.703249 0.395135 0.132035
H6    H     H_    0.522275 0.738194 0.317487 0.107247
H7    H     H_    0.206876 0.492069 0.824669 0.105993
H8    H     H_    0.165112 0.495881 0.664310 0.121425
H9    H     H_    0.211401 0.513934 0.591320 0.138233
H10   H     H_    0.502099 0.205093 0.599300 0.181590
H11   H     H_    0.363720 0.118951 0.873280 0.179077
H12   H     H_    0.793999 0.501293 0.717742 0.103601
H13   H     H_    0.486079 0.252601 0.199835 0.108381
H14   H     H_    0.825164 0.476379 0.798701 0.109935
H15   H     H_    0.875063 0.147806 0.770930 0.113287
H16   H     H_    0.842723 0.173349 0.689752 0.123712
H17   H     H_    0.179693 0.907682 0.692191 0.118116
H18   H     H_    0.155945 0.940417 0.773119 0.112387
H19   H     H_    0.502480 0.765239 0.801492 0.114224
H20   H     H_    0.946559 0.410186 0.118174 0.136003
H21   H     H_    0.903004 0.412351 0.193818 0.161506
H22   H     H_    0.740299 0.490848 0.305430 0.112867
H23   H     H_    0.702067 0.536217 0.383741 0.128054
O1    O     O_R   0.688580 0.499770 0.460490 -0.513309
O2    O     O_R   0.348600 0.476260 0.536540 -0.502758
O3    O     O_R   0.494840 0.313840 0.539010 -0.512418
O4    O     O_R   0.672120 0.351750 0.545910 -0.490998
O5    O     O_3   0.500010 0.500010 0.500010 -0.252893
O6    O     O_R   0.167510 0.972920 0.030390 -0.519882
O7    O     O_R   0.990840 0.178580 0.027590 -0.504593
O8    O     O_R   0.972840 0.345510 0.038590 -0.521861
O9    O     O_R   0.181550 0.320660 0.045200 -0.484246
O10   O     O_R   0.346150 0.177650 0.050510 -0.527671
O11   O     O_R   0.314200 0.996600 0.036060 -0.506469
O12   O     O_R   0.480400 0.672610 0.462660 -0.510915
O13   O     O_R   0.168690 0.969990 0.933130 -0.503880
O14   O     O_R   0.991920 0.175870 0.937430 -0.496540
O15   O     O_R   0.974010 0.342590 0.941330 -0.507150
O16   O     O_R   0.182630 0.317940 0.955040 -0.453496
O17   O     O_R   0.347320 0.174720 0.953250 -0.532322
O18   O     O_R   0.315290 0.993890 0.945900 -0.501783
O19   O     O_3   0.162730 0.163890 0.991180 -0.247129
O20   O     O_R   0.315310 0.685650 0.451800 -0.474583
O21   O     O_R   0.346220 0.474990 0.446280 -0.496961
O22   O     O_R   0.492270 0.312460 0.441630 -0.506005
O23   O     O_R   0.669740 0.350480 0.455640 -0.510015
O24   O     O_R   0.691150 0.501150 0.557860 -0.509657
O25   O     O_R   0.482790 0.673890 0.552920 -0.494118
O26   O     O_R   0.317880 0.687030 0.549170 -0.494173
C85   C     C_3   0.816406 0.158158 0.062633 -0.253867
C86   C     C_3   0.729383 0.227929 0.027695 -0.292463
C87   C     C_3   0.695552 0.158490 0.993135 -0.437187
H24   H     H_    0.766830 0.096537 0.975070 0.152961
H25   H     H_    0.660671 0.117104 0.009832 0.152506
H26   H     H_    0.632827 0.211038 0.968303 0.161278
H27   H     H_    0.656443 0.290098 0.044839 0.169472
H28   H     H_    0.760764 0.270624 0.009826 0.167981
H29   H     H_    0.889826 0.094982 0.046343 0.171117
H30   H     H_    0.783678 0.112827 0.078090 0.121776
C88   C     C_3   0.155098 0.821214 0.168454 -0.264017
C89   C     C_3   0.140991 0.727343 0.142151 -0.301679
C90   C     C_3   0.053067 0.711933 0.160575 -0.442654
H31   H     H_    0.077474 0.687955 0.195614 0.177343
H32   H     H_    0.974451 0.788200 0.159761 0.147015
H33   H     H_    0.041792 0.646687 0.139673 0.152448
H34   H     H_    0.117880 0.743784 0.106181 0.167851
H35   H     H_    0.219166 0.650672 0.144396 0.176790
H36   H     H_    0.171751 0.805026 0.204323 0.156287
H37   H     H_    0.077637 0.898470 0.165698 0.134833
C91   C     C_3   0.140321 0.895588 0.307543 -0.269593
C92   C     C_3   0.097459 0.813189 0.293982 -0.298459
C93   C     C_3   0.983125 0.867459 0.270913 -0.455004
H38   H     H_    0.926247 0.931430 0.294263 0.164784
H39   H     H_    0.982776 0.904632 0.240369 0.143279
H40   H     H_    0.954516 0.806055 0.261013 0.161794
H41   H     H_    0.152925 0.746736 0.270914 0.167313
H42   H     H_    0.095151 0.775501 0.323873 0.163022
H43   H     H_    0.082109 0.966522 0.328128 0.155664
H44   H     H_    0.144076 0.929908 0.276877 0.150978
C94   C     C_2   0.162630 0.871494 0.405514 0.250666
H45   H     H_    0.085030 0.882641 0.389455 0.144913
O27   O     O_2   0.166451 0.900947 0.445329 -0.472006
C95   C     C_3   0.551093 0.756585 0.173850 -0.253372
C96   C     C_3   0.579410 0.717647 0.221393 -0.315029
C97   C     C_3   0.702259 0.663768 0.232861 -0.440845
H46   H     H_    0.743756 0.589126 0.210379 0.167989
H47   H     H_    0.734763 0.720461 0.229320 0.164948
H48   H     H_    0.720215 0.641323 0.268119 0.141872
H49   H     H_    0.541761 0.788807 0.245987 0.169755
H50   H     H_    0.551164 0.657167 0.224215 0.175775
H51   H     H_    0.598928 0.684608 0.150993 0.145487
H52   H     H_    0.582128 0.815564 0.173857 0.140278
C98   C     C_3   0.499425 0.848003 0.086053 -0.244798
C99   C     C_3   0.512754 0.950519 0.099777 -0.268578
C100  C     C_3   0.579800 0.964301 0.067160 -0.421323
H53   H     H_    0.662133 0.892791 0.066424 0.131552
H54   H     H_    0.538819 0.973309 0.032798 0.174164
H55   H     H_    0.588653 0.038287 0.078140 0.138986
H56   H     H_    0.432084 0.023762 0.101189 0.210204
H57   H     H_    0.554051 0.946304 0.133812 0.130220
H58   H     H_    0.578596 0.774918 0.092082 0.118213
H59   H     H_    0.483024 0.839104 0.049167 0.158781
C101  C     C_2   0.107776 0.459635 0.201250 0.189538
H60   H     H_    0.094873 0.455170 0.164941 0.107812
O28   O     O_2   0.028613 0.511945 0.223342 -0.557025
C102  C     C_2   0.204376 0.495210 0.913342 0.225401
H61   H     H_    0.155662 0.574928 0.900615 0.097465
O29   O     O_2   0.227722 0.489343 0.953691 -0.502915
C103  C     C_2   0.364743 0.118088 0.784876 0.214242
H62   H     H_    0.340679 0.126762 0.749375 0.108539
O30   O     O_2   0.424371 0.027054 0.797156 -0.529284
C104  C     C_2   0.478685 0.160205 0.680296 0.216342
H63   H     H_    0.467486 0.155920 0.714815 0.114290
O31   O     O_2   0.555656 0.083912 0.662486 -0.522877
C105  C     C_3   0.562132 0.715255 0.715592 -0.264594
C106  C     C_3   0.596833 0.791571 0.698382 -0.272057
C107  C     C_3   0.712373 0.729084 0.683104 -0.442498
H64   H     H_    0.771090 0.690301 0.711764 0.143209
H65   H     H_    0.718205 0.665547 0.655983 0.164555
H66   H     H_    0.734309 0.785982 0.669991 0.175315
H67   H     H_    0.540832 0.833720 0.669615 0.190082
H68   H     H_    0.593254 0.854243 0.725596 0.203764
H69   H     H_    0.620530 0.672948 0.743847 0.130456
H70   H     H_    0.566683 0.651215 0.688904 0.150711
C108  C     C_3   0.544429 0.241386 0.288678 -0.250003
C109  C     C_3   0.568790 0.130359 0.302824 -0.306951
C110  C     C_3   0.679498 0.076497 0.328749 -0.417165
H71   H     H_    0.744047 0.068130 0.308231 0.151428
H72   H     H_    0.679378 0.126044 0.360533 0.199166
H73   H     H_    0.697336 0.994443 0.336964 0.154339
H74   H     H_    0.505678 0.139462 0.324460 0.180140
H75   H     H_    0.568134 0.076786 0.272425 0.157758
H76   H     H_    0.605326 0.229192 0.265115 0.133563
H77   H     H_    0.554128 0.292984 0.318173 0.160460
C111  C     C_2   0.853468 0.168799 0.412600 0.228865
H78   H     H_    0.850733 0.185277 0.448722 0.136282
O32   O     O_2   0.889691 0.074476 0.397118 -0.547707

loop_
_geom_bond_atom_site_label_1
_geom_bond_atom_site_label_2
_ccdc_geom_bond_type
C58   C62   A    
C32   H4    S    
C46   H9    S    
C63   C65   T    
C96   H50   S    
C41   C42   A    
Cr1   O12   S    
C35   C36   A    
C55   C56   S    
C77   O7    A    
C108  H77   S    
C85   H29   S    
C92   C93   S    
C57   C58   A    
C97   H47   S    
C95   C96   S    
C110  H73   S    
C14   H22   S    
C57   H12   S    
C26   C27   A    
C59   H15   S    
Cr5   O19   S    
C104  O31   D    
C23   O23   A    
C56   O4    A    
C18   C24   A    
C89   H35   S    
C28   C29   A    
C37   C38   T    
C1    O12   A    
Cr3   O4    S    
Cr4   O14   S    
C72   C75   S    
C49   H11   S    
C5    C6    S    
C100  H54   S    
C94   H45   S    
C3    C108  S    
C49   C54   A    
C34   O26   A    
C25   C30   A    
Cr5   O16   S    
C99   C100  S    
C18   C19   A    
C73   C74   S    
C32   C39   A    
C96   C97   S    
C30   C94   S    
Cr4   O13   S    
C19   H2    S    
C111  O32   D    
C109  H74   S    
C44   H8    S    
C106  H67   S    
Cr2   O21   S    
C19   C20   A    
C16   C17   A    
C101  O28   D    
C12   O22   A    
C33   C98   S    
C107  H66   S    
C91   H44   S    
C15   H23   S    
C69   C73   A    
C70   C71   A    
C68   H17   S    
C82   O17   A    
C9    C10   A    
C84   C101  S    
C92   H41   S    
C68   C72   A    
Cr6   O19   S    
C11   H3    S    
C43   C53   S    
C89   C90   S    
C105  H69   S    
C103  H62   S    
C12   O21   A    
C21   C22   T    
C17   H20   S    
C1    C25   S    
C87   H26   S    
C34   C66   S    
C27   H6    S    
C70   C73   A    
C4    C7    S    
C1    O20   A    
C76   C83   S    
C79   O9    A    
C69   H18   S    
C44   C46   A    
C111  H78   S    
C97   H48   S    
C93   H39   S    
C96   H49   S    
C40   C45   S    
C12   C67   S    
C17   C24   A    
C87   H24   S    
C104  H63   S    
C107  H64   S    
C35   C95   S    
Cr3   O22   S    
C85   C86   S    
Cr3   O5    S    
C102  O29   D    
C88   H37   S    
C98   H59   S    
C5    C84   A    
C106  C107  S    
C9    C23   S    
C100  H55   S    
C6    C8    T    
C110  H71   S    
C105  C106  S    
C79   O10   A    
C95   H51   S    
C34   O25   A    
C51   C52   S    
C98   H58   S    
Cr2   O2    S    
Cr4   O6    S    
C48   C54   A    
C61   C64   S    
C40   C46   A    
C98   C99   S    
C59   C60   A    
C4    C78   A    
C29   C30   A    
C97   H46   S    
C70   H19   S    
C106  H68   S    
C10   C111  S    
C93   H40   S    
C45   O2    A    
Cr2   O20   S    
C65   C81   S    
C47   C48   A    
C90   H33   S    
C28   C38   S    
C29   C91   S    
C16   C20   A    
C55   C64   T    
C62   C63   S    
C50   C51   A    
C41   H10   S    
Cr2   O5    S    
C33   C39   A    
C89   H34   S    
C109  C110  S    
C82   O16   A    
C18   C85   S    
Cr3   O3    S    
C92   H42   S    
C74   C76   T    
Cr2   O26   S    
Cr6   O18   S    
C86   H27   S    
C40   C41   A    
C90   H32   S    
C95   H52   S    
C49   C50   A    
C81   O15   A    
C99   H57   S    
C42   C104  S    
C2    C5    A    
C58   H14   S    
C42   C43   A    
Cr4   O19   S    
C83   O13   A    
C3    C4    A    
Cr1   O24   S    
C54   C82   S    
C60   H16   S    
C52   C53   T    
C107  H65   S    
C93   H38   S    
C80   O11   A    
C26   H5    S    
C31   C88   S    
Cr1   O1    S    
C59   C62   A    
C88   H36   S    
C14   C15   A    
Cr4   O7    S    
Cr6   O11   S    
Cr3   O23   S    
C68   C69   A    
C31   C32   A    
C102  H61   S    
C108  H76   S    
C105  H70   S    
C47   C51   A    
C50   C103  S    
C57   C61   A    
C78   H1    S    
C110  H72   S    
C47   H7    S    
C39   C80   S    
C83   O18   A    
C25   C26   A    
C71   C72   A    
C8    C79   S    
C86   C87   S    
C91   C92   S    
C23   O1    A    
C56   O24   A    
C11   C13   A    
C45   O3    A    
C100  H53   S    
Cr5   O8    S    
C2    H13   S    
C43   C44   A    
C66   C75   T    
Cr1   O25   S    
C33   C35   A    
C13   C22   S    
C2    C3    A    
C87   H25   S    
C91   H43   S    
C108  C109  S    
C9    C15   A    
Cr1   O5    S    
C109  H75   S    
C80   O6    A    
C77   O8    A    
C10   C11   A    
C86   H28   S    
C7    C67   T    
Cr6   O17   S    
C78   C84   A    
C24   C77   S    
C71   C105  S    
C20   C21   S    
C36   C37   S    
C101  H60   S    
Cr5   O9    S    
C27   C28   A    
C103  O30   D    
C31   C36   A    
C60   C61   A    
C90   H31   S    
C94   O27   D    
C13   C14   A    
C85   H30   S    
C99   H56   S    
Cr6   O10   S    
C48   C102  S    
C81   O14   A    
C16   H21   S    
C88   C89   S    
Cr5   O15   S    
