data_mof_unit_15265.cif
_audit_creation_date              2012-12-10T22:19:14-0500
_audit_creation_method            fapswitch 2.2
_symmetry_space_group_name_H-M    P1
_symmetry_Int_Tables_number       1
_space_group_crystal_system       triclinic
_cell_length_a                    36.619112
_cell_length_b                    36.614579
_cell_length_c                    36.60451
_cell_angle_alpha                 89.958233
_cell_angle_beta                  90.003671
_cell_angle_gamma                 90.024984
_cell_volume                      49079.066486

loop_
_atom_site_label
_atom_site_type_symbol
_atom_type_description
_atom_site_fract_x
_atom_site_fract_y
_atom_site_fract_z
_atom_type_partial_charge
C1    C     C_R   0.463436 0.129231 0.963434 0.898608
C2    C     C_R   0.036584 0.870736 0.463412 0.898106
C3    C     C_R   0.536574 0.129250 0.036580 0.900310
C4    C     C_R   0.963443 0.870777 0.536559 0.903066
C5    C     C_R   0.463441 0.870773 0.036562 0.897313
C6    C     C_R   0.036578 0.129255 0.536582 0.896030
C7    C     C_R   0.536585 0.870734 0.963411 0.901749
C8    C     C_R   0.963437 0.129232 0.463435 0.901371
C9    C     C_R   0.870767 0.963437 0.536566 0.899355
C10   C     C_R   0.129247 0.463424 0.963421 0.898111
C11   C     C_R   0.870750 0.036574 0.463423 0.901764
C12   C     C_R   0.129239 0.536571 0.036574 0.903289
C13   C     C_R   0.129244 0.036574 0.536576 0.899573
C14   C     C_R   0.870741 0.536580 0.963417 0.894817
C15   C     C_R   0.129248 0.963423 0.463421 0.901579
C16   C     C_R   0.870769 0.463440 0.036563 0.904182
C17   C     C_R   0.036579 0.536582 0.129261 0.897258
C18   C     C_R   0.536580 0.963417 0.870739 0.897782
C19   C     C_R   0.963449 0.463449 0.129221 0.905638
C20   C     C_R   0.463434 0.036565 0.870763 0.903284
C21   C     C_R   0.963432 0.536566 0.870760 0.897634
C22   C     C_R   0.463438 0.963437 0.129236 0.895077
C23   C     C_R   0.036581 0.463418 0.870739 0.901635
C24   C     C_R   0.536580 0.036582 0.129264 0.902842
C25   C     C_R   0.963437 0.629230 0.963435 0.898649
C26   C     C_R   0.036582 0.370740 0.963414 0.898969
C27   C     C_R   0.036578 0.629254 0.036582 0.895704
C28   C     C_R   0.963446 0.370780 0.036556 0.899341
C29   C     C_R   0.370768 0.963438 0.036565 0.901577
C30   C     C_R   0.629243 0.963426 0.963423 0.898850
C31   C     C_R   0.370746 0.036577 0.963420 0.897083
C32   C     C_R   0.629235 0.036568 0.036571 0.901597
C33   C     C_R   0.036578 0.036580 0.629259 0.899447
C34   C     C_R   0.036579 0.963419 0.370741 0.899003
C35   C     C_R   0.963441 0.963441 0.629231 0.898088
C36   C     C_R   0.963439 0.036561 0.370769 0.900573
C37   C     C_R   0.463444 0.629222 0.463442 0.904535
C38   C     C_R   0.536571 0.370752 0.463425 0.906609
C39   C     C_R   0.536570 0.629245 0.536574 0.895841
C40   C     C_R   0.463448 0.370781 0.536555 0.903290
C41   C     C_R   0.370776 0.463445 0.536558 0.906387
C42   C     C_R   0.629238 0.463432 0.463429 0.899089
C43   C     C_R   0.370755 0.536570 0.463427 0.897919
C44   C     C_R   0.629236 0.536567 0.536570 0.901835
C45   C     C_R   0.536572 0.536573 0.629252 0.905186
C46   C     C_R   0.536569 0.463429 0.370753 0.905272
C47   C     C_R   0.463447 0.463447 0.629223 0.896880
C48   C     C_R   0.463439 0.536560 0.370768 0.901040
C49   C     C_R   0.464033 0.227935 0.963940 0.915482
C50   C     C_R   0.035906 0.772045 0.464004 0.923010
C51   C     C_R   0.535911 0.228318 0.035787 0.912107
C52   C     C_R   0.963424 0.772280 0.536500 0.928235
C53   C     C_R   0.464092 0.771776 0.035833 0.909486
C54   C     C_R   0.035845 0.228184 0.535955 0.911787
C55   C     C_R   0.536415 0.772201 0.963485 0.922050
C56   C     C_R   0.963598 0.227886 0.463551 0.925287
C57   C     C_R   0.771965 0.963999 0.535914 0.915795
C58   C     C_R   0.227952 0.463973 0.964044 0.919550
C59   C     C_R   0.771544 0.035784 0.464143 0.912350
C60   C     C_R   0.227730 0.536477 0.036513 0.926689
C61   C     C_R   0.228472 0.035657 0.535821 0.917866
C62   C     C_R   0.771822 0.535940 0.964173 0.908877
C63   C     C_R   0.227805 0.963467 0.463576 0.922110
C64   C     C_R   0.772146 0.463619 0.036520 0.923099
C65   C     C_R   0.035972 0.535878 0.227981 0.919159
C66   C     C_R   0.536015 0.964070 0.772026 0.919359
C67   C     C_R   0.964784 0.464598 0.229336 0.929428
C68   C     C_R   0.463483 0.036621 0.772251 0.927599
C69   C     C_R   0.964242 0.535896 0.771675 0.912200
C70   C     C_R   0.464055 0.964190 0.228205 0.909209
C71   C     C_R   0.036519 0.463581 0.772197 0.924624
C72   C     C_R   0.536425 0.036454 0.227878 0.924421
C73   C     C_R   0.964065 0.727935 0.963977 0.914037
C74   C     C_R   0.035916 0.272056 0.963998 0.916926
C75   C     C_R   0.035984 0.727850 0.036062 0.908842
C76   C     C_R   0.964039 0.271879 0.035821 0.914270
C77   C     C_R   0.271781 0.964045 0.035849 0.923268
C78   C     C_R   0.727963 0.964004 0.964075 0.915245
C79   C     C_R   0.272018 0.035994 0.964078 0.916546
C80   C     C_R   0.728206 0.035795 0.035962 0.916274
C81   C     C_R   0.035994 0.035911 0.727971 0.920821
C82   C     C_R   0.035962 0.964134 0.271964 0.915859
C83   C     C_R   0.964003 0.964070 0.727956 0.914392
C84   C     C_R   0.964162 0.036010 0.271867 0.918183
C85   C     C_R   0.464479 0.729111 0.464550 0.927958
C86   C     C_R   0.535261 0.270710 0.464505 0.920269
C87   C     C_R   0.535956 0.727918 0.536043 0.914391
C88   C     C_R   0.464363 0.271216 0.535700 0.921288
C89   C     C_R   0.270748 0.464652 0.535461 0.925312
C90   C     C_R   0.728404 0.464162 0.464222 0.910884
C91   C     C_R   0.271979 0.535949 0.464121 0.915350
C92   C     C_R   0.728663 0.535727 0.535677 0.916106
C93   C     C_R   0.535387 0.535481 0.729171 0.929017
C94   C     C_R   0.535367 0.464743 0.270610 0.923312
C95   C     C_R   0.463990 0.464061 0.727955 0.915953
C96   C     C_R   0.464231 0.535714 0.271435 0.921282
C97   C     C_R   0.415068 0.448110 0.816444 0.384387
C98   C     C_R   0.216107 0.581484 0.390903 0.395500
C99   C     C_R   0.590752 0.456829 0.183157 0.441485
C100  C     C_R   0.785793 0.575864 0.611850 0.414322
C101  C     C_R   0.414188 0.552691 0.182668 0.422020
C102  C     C_R   0.184740 0.453920 0.592606 0.406932
C103  C     C_R   0.598602 0.550939 0.809607 0.429249
C104  C     C_R   0.786948 0.419056 0.392263 0.425883
C105  C     C_R   0.552121 0.816282 0.585017 0.383724
C106  C     C_R   0.417406 0.390352 0.782427 0.398377
C107  C     C_R   0.544126 0.187213 0.403711 0.406132
C108  C     C_R   0.422641 0.610969 0.214296 0.415518
C109  C     C_R   0.445582 0.183789 0.588373 0.427226
C110  C     C_R   0.546685 0.592113 0.815351 0.439227
C111  C     C_R   0.447412 0.807267 0.398937 0.429785
C112  C     C_R   0.545900 0.408126 0.184606 0.402626
C113  C     C_R   0.182753 0.583625 0.449082 0.383497
C114  C     C_R   0.609404 0.781424 0.584101 0.398466
C115  C     C_R   0.820421 0.420508 0.450160 0.386438
C116  C     C_R   0.387501 0.212386 0.571905 0.416480
C117  C     C_R   0.817404 0.585884 0.553801 0.428471
C118  C     C_R   0.408930 0.815835 0.452593 0.439141
C119  C     C_R   0.188468 0.403427 0.549629 0.427120
C120  C     C_R   0.586668 0.181330 0.454069 0.408129
C121  C     C_R   0.915612 0.948657 0.816765 0.386088
C122  C     C_R   0.216504 0.081406 0.890381 0.386864
C123  C     C_R   0.083917 0.947855 0.182922 0.398292
C124  C     C_R   0.814562 0.051439 0.089227 0.426978
C125  C     C_R   0.889907 0.083300 0.218451 0.379116
C126  C     C_R   0.214436 0.923014 0.111054 0.435240
C127  C     C_R   0.083950 0.051494 0.816992 0.418978
C128  C     C_R   0.783184 0.918081 0.890647 0.394017
C129  C     C_R   0.052824 0.815961 0.085133 0.389877
C130  C     C_R   0.918142 0.890585 0.783286 0.386279
C131  C     C_R   0.051565 0.182932 0.916363 0.384958
C132  C     C_R   0.948692 0.092439 0.187435 0.428636
C133  C     C_R   0.912895 0.220107 0.108455 0.378180
C134  C     C_R   0.081728 0.109436 0.783247 0.434849
C135  C     C_R   0.948540 0.817020 0.916132 0.385695
C136  C     C_R   0.083502 0.890728 0.218140 0.396785
C137  C     C_R   0.183563 0.085085 0.948707 0.419169
C138  C     C_R   0.109065 0.779370 0.086803 0.383944
C139  C     C_R   0.816892 0.915965 0.948617 0.385018
C140  C     C_R   0.914342 0.183656 0.052214 0.418303
C141  C     C_R   0.781504 0.109475 0.084054 0.321612
C142  C     C_R   0.890688 0.783089 0.917825 0.397706
C143  C     C_R   0.190065 0.903613 0.051564 0.368793
C144  C     C_R   0.109102 0.217377 0.917097 0.432814
C145  C     C_R   0.911926 0.454190 0.317821 0.421860
C146  C     C_R   0.718346 0.588746 0.893708 0.401193
C147  C     C_R   0.116640 0.430643 0.714337 0.416659
C148  C     C_R   0.284429 0.570025 0.116858 0.442042
C149  C     C_R   0.894313 0.593410 0.722590 0.379616
C150  C     C_R   0.711061 0.434098 0.115392 0.446522
C151  C     C_R   0.083179 0.551036 0.317412 0.384802
C152  C     C_R   0.282540 0.418113 0.890013 0.391648
C153  C     C_R   0.582894 0.284763 0.108488 0.390445
C154  C     C_R   0.410352 0.893884 0.281038 0.394496
C155  C     C_R   0.569345 0.714379 0.883340 0.416276
C156  C     C_R   0.429797 0.118177 0.716609 0.446717
C157  C     C_R   0.404923 0.722610 0.104295 0.372632
C158  C     C_R   0.569883 0.116405 0.285589 0.444265
C159  C     C_R   0.447855 0.316197 0.914516 0.385151
C160  C     C_R   0.582994 0.890419 0.717909 0.390776
C161  C     C_R   0.712413 0.108869 0.420837 0.365207
C162  C     C_R   0.106825 0.282297 0.587510 0.414111
C163  C     C_R   0.286318 0.883296 0.432132 0.425333
C164  C     C_R   0.882511 0.715736 0.569626 0.441446
C165  C     C_R   0.277479 0.107132 0.591355 0.441027
C166  C     C_R   0.884969 0.288055 0.432234 0.433825
C167  C     C_R   0.684524 0.912868 0.551626 0.384077
C168  C     C_R   0.109071 0.716396 0.418243 0.429033
C169  C     C_R   0.419410 0.948116 0.319285 0.384409
C170  C     C_R   0.680712 0.050055 0.417530 0.389365
C171  C     C_R   0.584451 0.947858 0.683264 0.389190
C172  C     C_R   0.316612 0.053228 0.586270 0.378662
C173  C     C_R   0.382027 0.072285 0.718270 0.410523
C174  C     C_R   0.716915 0.918592 0.610092 0.405063
C175  C     C_R   0.615527 0.068674 0.287123 0.398852
C176  C     C_R   0.284684 0.928779 0.383937 0.401999
C177  C     C_R   0.051638 0.319518 0.580095 0.381301
C178  C     C_R   0.955954 0.404929 0.313692 0.436215
C179  C     C_R   0.050953 0.682970 0.416130 0.387466
C180  C     C_R   0.945554 0.581561 0.681293 0.389041
C181  C     C_R   0.928487 0.717045 0.617250 0.397157
C182  C     C_R   0.082016 0.608919 0.283496 0.431522
C183  C     C_R   0.930223 0.286381 0.384081 0.404156
C184  C     C_R   0.069306 0.384380 0.713821 0.438135
C185  C     C_R   0.680236 0.579311 0.948021 0.384498
C186  C     C_R   0.582202 0.319009 0.050827 0.392675
C187  C     C_R   0.316091 0.414510 0.947989 0.387349
C188  C     C_R   0.423209 0.679679 0.056356 0.383885
C189  C     C_R   0.284861 0.616441 0.069562 0.357823
C190  C     C_R   0.390110 0.282211 0.917345 0.416004
C191  C     C_R   0.713703 0.384942 0.071348 0.353736
C192  C     C_R   0.615589 0.713812 0.930720 0.434462
C193  C     C_R   0.389421 0.391240 0.844950 0.374789
C194  C     C_R   0.153419 0.608926 0.392584 0.374478
C195  C     C_R   0.601461 0.400897 0.143163 0.336408
C196  C     C_R   0.845378 0.611693 0.611461 0.380867
C197  C     C_R   0.388867 0.610148 0.153883 0.383092
C198  C     C_R   0.144562 0.398081 0.604054 0.352249
C199  C     C_R   0.602748 0.604386 0.854900 0.359154
C200  C     C_R   0.850316 0.393095 0.395365 0.385682
C201  C     C_R   0.608867 0.844417 0.611084 0.375858
C202  C     C_R   0.597746 0.143124 0.396842 0.342992
C203  C     C_R   0.387313 0.155135 0.612306 0.376590
C204  C     C_R   0.395103 0.854006 0.395999 0.361951
C205  C     C_R   0.890403 0.891991 0.845909 0.372812
C206  C     C_R   0.154139 0.109799 0.891905 0.376660
C207  C     C_R   0.110164 0.890980 0.155111 0.377973
C208  C     C_R   0.844144 0.109113 0.112152 0.377253
C209  C     C_R   0.890618 0.113171 0.156530 0.377585
C210  C     C_R   0.155289 0.887780 0.109387 0.376257
C211  C     C_R   0.109357 0.108110 0.845918 0.384116
C212  C     C_R   0.845799 0.890421 0.892034 0.374156
C213  C     C_R   0.109262 0.842971 0.112652 0.381151
C214  C     C_R   0.108036 0.154414 0.890286 0.380650
C215  C     C_R   0.887503 0.156438 0.109053 0.381869
C216  C     C_R   0.891969 0.845900 0.890576 0.373854
C217  C     C_R   0.902218 0.397722 0.357553 0.358980
C218  C     C_R   0.653348 0.610640 0.894113 0.376887
C219  C     C_R   0.113639 0.386792 0.660354 0.343134
C220  C     C_R   0.336600 0.616337 0.116015 0.352057
C221  C     C_R   0.890668 0.614325 0.657066 0.376876
C222  C     C_R   0.658221 0.388927 0.113501 0.350173
C223  C     C_R   0.108837 0.607440 0.346456 0.380518
C224  C     C_R   0.344762 0.389409 0.891029 0.373080
C225  C     C_R   0.608416 0.348611 0.106245 0.379472
C226  C     C_R   0.388361 0.893906 0.345984 0.377150
C227  C     C_R   0.613487 0.660559 0.886173 0.342077
C228  C     C_R   0.382027 0.118028 0.665594 0.351750
C229  C     C_R   0.386824 0.656404 0.109267 0.378817
C230  C     C_R   0.611692 0.112725 0.340894 0.334385
C231  C     C_R   0.390873 0.344770 0.889275 0.376627
C232  C     C_R   0.610414 0.891062 0.655119 0.375534
C233  C     C_R   0.649991 0.105722 0.392340 0.379261
C234  C     C_R   0.105887 0.347019 0.610318 0.378700
C235  C     C_R   0.338740 0.885233 0.386142 0.338708
C236  C     C_R   0.882949 0.664393 0.616918 0.354901
C237  C     C_R   0.341835 0.109680 0.615667 0.380202
C238  C     C_R   0.888674 0.341835 0.388244 0.347405
C239  C     C_R   0.655007 0.889075 0.608924 0.374397
C240  C     C_R   0.107445 0.653650 0.390921 0.379490
C241  C     C_R   0.444485 0.445283 0.757172 -0.134839
C242  C     C_R   0.242388 0.555109 0.445659 -0.133343
C243  C     C_R   0.551574 0.449050 0.236857 -0.170909
C244  C     C_R   0.758328 0.555047 0.554926 -0.189116
C245  C     C_R   0.444947 0.554700 0.241685 -0.184860
C246  C     C_R   0.237740 0.448189 0.552337 -0.177090
C247  C     C_R   0.552134 0.552509 0.761896 -0.197186
C248  C     C_R   0.759059 0.445634 0.446270 -0.151227
C249  C     C_R   0.554772 0.756983 0.555710 -0.132481
C250  C     C_R   0.550728 0.237144 0.447695 -0.148967
C251  C     C_R   0.444924 0.241557 0.555029 -0.190666
C252  C     C_R   0.447324 0.761547 0.447423 -0.197966
C253  C     C_R   0.944673 0.945451 0.757361 -0.135082
C254  C     C_R   0.242642 0.055382 0.945426 -0.154397
C255  C     C_R   0.055437 0.945387 0.242729 -0.134870
C256  C     C_R   0.757171 0.054604 0.056044 -0.145770
C257  C     C_R   0.945206 0.056373 0.243158 -0.155623
C258  C     C_R   0.242952 0.943814 0.054940 -0.182458
C259  C     C_R   0.055304 0.054527 0.757371 -0.177019
C260  C     C_R   0.757362 0.944700 0.945476 -0.134428
C261  C     C_R   0.054975 0.756652 0.055917 -0.128159
C262  C     C_R   0.054516 0.242694 0.944655 -0.154767
C263  C     C_R   0.944079 0.242914 0.054618 -0.142755
C264  C     C_R   0.945454 0.757338 0.944657 -0.138120
C265  C     C_R   0.949366 0.448060 0.263033 -0.189290
C266  C     C_R   0.741969 0.555178 0.945888 -0.124357
C267  C     C_R   0.059016 0.441420 0.746632 -0.179549
C268  C     C_R   0.252835 0.558969 0.059086 -0.167631
C269  C     C_R   0.945276 0.555877 0.742609 -0.127443
C270  C     C_R   0.746190 0.441914 0.059072 -0.164492
C271  C     C_R   0.055161 0.554319 0.257524 -0.156502
C272  C     C_R   0.257088 0.444413 0.945198 -0.138486
C273  C     C_R   0.555048 0.258427 0.054080 -0.126057
C274  C     C_R   0.444610 0.945851 0.257936 -0.122991
C275  C     C_R   0.558578 0.746655 0.940982 -0.178996
C276  C     C_R   0.440817 0.059723 0.747453 -0.174685
C277  C     C_R   0.444439 0.742568 0.054808 -0.116963
C278  C     C_R   0.558597 0.058740 0.253699 -0.169342
C279  C     C_R   0.445158 0.257056 0.944305 -0.144358
C280  C     C_R   0.555535 0.945273 0.742825 -0.136148
C281  C     C_R   0.741005 0.053996 0.445361 -0.136070
C282  C     C_R   0.054137 0.258085 0.555180 -0.128567
C283  C     C_R   0.253248 0.940750 0.441466 -0.157776
C284  C     C_R   0.940512 0.747355 0.559039 -0.172706
C285  C     C_R   0.257337 0.054688 0.556091 -0.148000
C286  C     C_R   0.941485 0.253862 0.441430 -0.171216
C287  C     C_R   0.742790 0.944344 0.554760 -0.140946
C288  C     C_R   0.054380 0.742545 0.444758 -0.158624
C289  C     C_R   0.433030 0.465188 0.787495 -0.238475
C290  C     C_R   0.244248 0.562426 0.408338 -0.250265
C291  C     C_R   0.578951 0.468116 0.217905 -0.223561
C292  C     C_R   0.757914 0.557626 0.592930 -0.229402
C293  C     C_R   0.431058 0.534935 0.212150 -0.207069
C294  C     C_R   0.218311 0.466996 0.579421 -0.236389
C295  C     C_R   0.584377 0.538319 0.776393 -0.211768
C296  C     C_R   0.757847 0.437366 0.409073 -0.234632
C297  C     C_R   0.535040 0.787559 0.566740 -0.237817
C298  C     C_R   0.436920 0.408053 0.754730 -0.249915
C299  C     C_R   0.533831 0.221669 0.416901 -0.242768
C300  C     C_R   0.441314 0.592585 0.242226 -0.226158
C301  C     C_R   0.464096 0.213212 0.572015 -0.205596
C302  C     C_R   0.533009 0.578714 0.782139 -0.209375
C303  C     C_R   0.460163 0.774476 0.413977 -0.212711
C304  C     C_R   0.534470 0.419768 0.219247 -0.235478
C305  C     C_R   0.212154 0.566222 0.465905 -0.239670
C306  C     C_R   0.591751 0.753984 0.564195 -0.246933
C307  C     C_R   0.790063 0.436758 0.466695 -0.240067
C308  C     C_R   0.406927 0.240365 0.554386 -0.223394
C309  C     C_R   0.787983 0.569338 0.535547 -0.208911
C310  C     C_R   0.422354 0.782911 0.466902 -0.207011
C311  C     C_R   0.221985 0.417016 0.537072 -0.212510
C312  C     C_R   0.576561 0.216164 0.466549 -0.245238
C313  C     C_R   0.933264 0.965572 0.787552 -0.240340
C314  C     C_R   0.244395 0.062088 0.907976 -0.247133
C315  C     C_R   0.066071 0.965059 0.211877 -0.240139
C316  C     C_R   0.786424 0.034470 0.069824 -0.220955
C317  C     C_R   0.907626 0.062028 0.244807 -0.252787
C318  C     C_R   0.240879 0.943873 0.092953 -0.213265
C319  C     C_R   0.066661 0.034455 0.787654 -0.217276
C320  C     C_R   0.755268 0.937372 0.908170 -0.248983
C321  C     C_R   0.035737 0.787800 0.065999 -0.242503
C322  C     C_R   0.937379 0.908146 0.755316 -0.249068
C323  C     C_R   0.034579 0.212077 0.934014 -0.239500
C324  C     C_R   0.965559 0.072399 0.215172 -0.221324
C325  C     C_R   0.933686 0.246997 0.090992 -0.257966
C326  C     C_R   0.062489 0.091860 0.755314 -0.225176
C327  C     C_R   0.965497 0.787757 0.933636 -0.238684
C328  C     C_R   0.063886 0.908401 0.245729 -0.247388
C329  C     C_R   0.212771 0.067468 0.965645 -0.225610
C330  C     C_R   0.091381 0.752495 0.066120 -0.252137
C331  C     C_R   0.787627 0.933411 0.965585 -0.240773
C332  C     C_R   0.933637 0.211843 0.035185 -0.224224
C333  C     C_R   0.754718 0.091839 0.063267 -0.257231
C334  C     C_R   0.908212 0.755105 0.937052 -0.248956
C335  C     C_R   0.218329 0.922948 0.034706 -0.218076
C336  C     C_R   0.091617 0.245234 0.936490 -0.227554
C337  C     C_R   0.922730 0.466593 0.283174 -0.221972
C338  C     C_R   0.746336 0.568806 0.910550 -0.267002
C339  C     C_R   0.094482 0.452447 0.736936 -0.242936
C340  C     C_R   0.262410 0.547981 0.094490 -0.210732
C341  C     C_R   0.911306 0.571764 0.749224 -0.267997
C342  C     C_R   0.734636 0.454785 0.093299 -0.207930
C343  C     C_R   0.065896 0.534160 0.287980 -0.234956
C344  C     C_R   0.254953 0.437673 0.907778 -0.252355
C345  C     C_R   0.563801 0.256381 0.091216 -0.257259
C346  C     C_R   0.430758 0.910656 0.253304 -0.274394
C347  C     C_R   0.547540 0.736950 0.905530 -0.250411
C348  C     C_R   0.452239 0.094977 0.737490 -0.209037
C349  C     C_R   0.425761 0.749815 0.087189 -0.272603
C350  C     C_R   0.548028 0.094432 0.262860 -0.221911
C351  C     C_R   0.465025 0.287306 0.932492 -0.240782
C352  C     C_R   0.563437 0.908125 0.745543 -0.250712
C353  C     C_R   0.741338 0.091731 0.439322 -0.247160
C354  C     C_R   0.089948 0.254247 0.567667 -0.257491
C355  C     C_R   0.263990 0.905989 0.453632 -0.244172
C356  C     C_R   0.905344 0.737302 0.547516 -0.207109
C357  C     C_R   0.251619 0.090066 0.568900 -0.235658
C358  C     C_R   0.906925 0.264981 0.453547 -0.226502
C359  C     C_R   0.713398 0.931009 0.534570 -0.241528
C360  C     C_R   0.091690 0.744442 0.437446 -0.229972
C361  C     C_R   0.438267 0.964676 0.290487 -0.236160
C362  C     C_R   0.710918 0.033361 0.434029 -0.235091
C363  C     C_R   0.566647 0.965042 0.712232 -0.239169
C364  C     C_R   0.289190 0.036005 0.565830 -0.241946
C365  C     C_R   0.405008 0.049432 0.738823 -0.226861
C366  C     C_R   0.744392 0.938390 0.592357 -0.239908
C367  C     C_R   0.593348 0.046939 0.264616 -0.233274
C368  C     C_R   0.262417 0.951008 0.405792 -0.234044
C369  C     C_R   0.034971 0.290336 0.561982 -0.240345
C370  C     C_R   0.966640 0.417921 0.279243 -0.210485
C371  C     C_R   0.034128 0.712357 0.433499 -0.237245
C372  C     C_R   0.962736 0.561761 0.709180 -0.235772
C373  C     C_R   0.951039 0.738284 0.594663 -0.233151
C374  C     C_R   0.062885 0.591534 0.255402 -0.226049
C375  C     C_R   0.951993 0.263287 0.405754 -0.243654
C376  C     C_R   0.047569 0.406444 0.736293 -0.205868
C377  C     C_R   0.709307 0.561010 0.964674 -0.240966
C378  C     C_R   0.564847 0.289416 0.033998 -0.237555
C379  C     C_R   0.287091 0.432216 0.965174 -0.239603
C380  C     C_R   0.442404 0.707915 0.039081 -0.242032
C381  C     C_R   0.262930 0.594005 0.047617 -0.244595
C382  C     C_R   0.407860 0.254609 0.936962 -0.237814
C383  C     C_R   0.736865 0.406160 0.049261 -0.247634
C384  C     C_R   0.593533 0.736299 0.952442 -0.206779
C385  C     C_R   0.602753 0.056715 0.056713 -0.059147
C386  C     C_R   0.943315 0.943300 0.602731 -0.057150
C387  C     C_R   0.397232 0.056729 0.943260 -0.056747
C388  C     C_R   0.056747 0.943262 0.397206 -0.058125
C389  C     C_R   0.602771 0.943273 0.943266 -0.058805
C390  C     C_R   0.943311 0.056700 0.397260 -0.057877
C391  C     C_R   0.397272 0.943296 0.056699 -0.057936
C392  C     C_R   0.056749 0.056739 0.602789 -0.057692
C393  C     C_R   0.056748 0.602782 0.056734 -0.061969
C394  C     C_R   0.056751 0.397207 0.943250 -0.058367
C395  C     C_R   0.943330 0.397292 0.056676 -0.058613
C396  C     C_R   0.943302 0.602741 0.943283 -0.058125
C397  C     C_R   0.102764 0.556724 0.056720 -0.057406
C398  C     C_R   0.943333 0.443321 0.102708 -0.058674
C399  C     C_R   0.897225 0.556735 0.943254 -0.059433
C400  C     C_R   0.056750 0.443260 0.897202 -0.056649
C401  C     C_R   0.102777 0.443270 0.943261 -0.057334
C402  C     C_R   0.943296 0.556711 0.897244 -0.058934
C403  C     C_R   0.897281 0.443306 0.056687 -0.058211
C404  C     C_R   0.056752 0.556742 0.102792 -0.057223
C405  C     C_R   0.443299 0.056710 0.897246 -0.056213
C406  C     C_R   0.556739 0.102772 0.056727 -0.058111
C407  C     C_R   0.443310 0.943296 0.102738 -0.061030
C408  C     C_R   0.556755 0.897200 0.943245 -0.056505
C409  C     C_R   0.556749 0.943257 0.897201 -0.056337
C410  C     C_R   0.443317 0.897276 0.056693 -0.059641
C411  C     C_R   0.556750 0.056740 0.102793 -0.056510
C412  C     C_R   0.443303 0.102741 0.943283 -0.058526
C413  C     C_R   0.943319 0.897279 0.556690 -0.056322
C414  C     C_R   0.897243 0.056722 0.443270 -0.058158
C415  C     C_R   0.056748 0.102782 0.556733 -0.060318
C416  C     C_R   0.102778 0.943268 0.443262 -0.057547
C417  C     C_R   0.056756 0.897202 0.443247 -0.055971
C418  C     C_R   0.102765 0.056726 0.556721 -0.058922
C419  C     C_R   0.943307 0.102738 0.443288 -0.057586
C420  C     C_R   0.897270 0.943296 0.556699 -0.058519
C421  C     C_R   0.602746 0.556707 0.556703 -0.057994
C422  C     C_R   0.443334 0.443319 0.602711 -0.057913
C423  C     C_R   0.397255 0.556709 0.443280 -0.058491
C424  C     C_R   0.556717 0.443294 0.397240 -0.059257
C425  C     C_R   0.602746 0.443298 0.443290 -0.058697
C426  C     C_R   0.443318 0.556691 0.397266 -0.057393
C427  C     C_R   0.397296 0.443317 0.556677 -0.059912
C428  C     C_R   0.556731 0.556719 0.602767 -0.059312
C429  C     C_R   0.556727 0.602758 0.556712 -0.058698
C430  C     C_R   0.556720 0.397243 0.443283 -0.060062
C431  C     C_R   0.443337 0.397298 0.556672 -0.058338
C432  C     C_R   0.443325 0.602716 0.443305 -0.059705
C433  C     C_R   0.588226 0.041792 0.088238 -0.200883
C434  C     C_R   0.911813 0.958218 0.588195 -0.207747
C435  C     C_R   0.411772 0.041800 0.911764 -0.207530
C436  C     C_R   0.088232 0.958215 0.411759 -0.202567
C437  C     C_R   0.588230 0.958215 0.911759 -0.208570
C438  C     C_R   0.911791 0.041785 0.411783 -0.206172
C439  C     C_R   0.411811 0.958216 0.088199 -0.208459
C440  C     C_R   0.088228 0.041795 0.588238 -0.202792
C441  C     C_R   0.958268 0.088177 0.411816 -0.207152
C442  C     C_R   0.041843 0.588253 0.088260 -0.208315
C443  C     C_R   0.958261 0.911827 0.588179 -0.206956
C444  C     C_R   0.041832 0.411741 0.911733 -0.201334
C445  C     C_R   0.041834 0.911739 0.411733 -0.210443
C446  C     C_R   0.958283 0.411851 0.088154 -0.209055
C447  C     C_R   0.041841 0.088251 0.588257 -0.207304
C448  C     C_R   0.958261 0.588181 0.911810 -0.202377
C449  C     C_R   0.911825 0.411823 0.041747 -0.201472
C450  C     C_R   0.411781 0.088219 0.958192 -0.207060
C451  C     C_R   0.088226 0.588229 0.041774 -0.211408
C452  C     C_R   0.588240 0.911754 0.958197 -0.200646
C453  C     C_R   0.088242 0.411755 0.958196 -0.205716
C454  C     C_R   0.588209 0.088213 0.041761 -0.203736
C455  C     C_R   0.911775 0.588223 0.958188 -0.212304
C456  C     C_R   0.411820 0.911817 0.041756 -0.202865
C457  C     C_R   0.088231 0.541797 0.088241 -0.203642
C458  C     C_R   0.911832 0.458237 0.088174 -0.203483
C459  C     C_R   0.911765 0.541806 0.911759 -0.219709
C460  C     C_R   0.088239 0.458210 0.911750 -0.211229
C461  C     C_R   0.458260 0.088183 0.911808 -0.200563
C462  C     C_R   0.541840 0.088251 0.088260 -0.206938
C463  C     C_R   0.458255 0.911820 0.088187 -0.218179
C464  C     C_R   0.541840 0.911729 0.911723 -0.212200
C465  C     C_R   0.911817 0.911815 0.541757 -0.200680
C466  C     C_R   0.911785 0.088216 0.458198 -0.203269
C467  C     C_R   0.088228 0.088232 0.541776 -0.216493
C468  C     C_R   0.088249 0.911747 0.458191 -0.206551
C469  C     C_R   0.588210 0.541776 0.588219 -0.206112
C470  C     C_R   0.411841 0.458244 0.588168 -0.205704
C471  C     C_R   0.411795 0.541778 0.411787 -0.209910
C472  C     C_R   0.588202 0.458246 0.411789 -0.210436
C473  C     C_R   0.458283 0.588160 0.411830 -0.206305
C474  C     C_R   0.541816 0.588223 0.588229 -0.205344
C475  C     C_R   0.458282 0.411848 0.588159 -0.210562
C476  C     C_R   0.541793 0.411783 0.411776 -0.209842
C477  C     C_R   0.411842 0.411838 0.541734 -0.206275
C478  C     C_R   0.411809 0.588190 0.458219 -0.205500
C479  C     C_R   0.588205 0.588208 0.541753 -0.211963
C480  C     C_R   0.588208 0.411790 0.458231 -0.208279
C481  C     C_R   0.406895 0.410199 0.814079 -0.121498
C482  C     C_R   0.184602 0.591701 0.411133 -0.123888
C483  C     C_R   0.578401 0.422917 0.169098 -0.122231
C484  C     C_R   0.815832 0.591126 0.592272 -0.170217
C485  C     C_R   0.408605 0.591095 0.183930 -0.169118
C486  C     C_R   0.171826 0.419083 0.581372 -0.134554
C487  C     C_R   0.582169 0.581774 0.827306 -0.152036
C488  C     C_R   0.818721 0.410701 0.412793 -0.139895
C489  C     C_R   0.589844 0.813476 0.593890 -0.124169
C490  C     C_R   0.575014 0.169386 0.418885 -0.111047
C491  C     C_R   0.406774 0.184121 0.590844 -0.168756
C492  C     C_R   0.417886 0.826364 0.416253 -0.155622
C493  C     C_R   0.907680 0.910683 0.814799 -0.121607
C494  C     C_R   0.185258 0.092484 0.910592 -0.139184
C495  C     C_R   0.092960 0.910220 0.185893 -0.122039
C496  C     C_R   0.812796 0.089691 0.095891 -0.119584
C497  C     C_R   0.910012 0.097134 0.188111 -0.135239
C498  C     C_R   0.187175 0.904241 0.090494 -0.146793
C499  C     C_R   0.092024 0.089416 0.814889 -0.155091
C500  C     C_R   0.814770 0.907776 0.910713 -0.123370
C501  C     C_R   0.090082 0.812094 0.095599 -0.117382
C502  C     C_R   0.089300 0.185422 0.907550 -0.142854
C503  C     C_R   0.904116 0.187373 0.089508 -0.131195
C504  C     C_R   0.910669 0.814836 0.907846 -0.124274
C505  C     C_R   0.924467 0.419673 0.330778 -0.131854
C506  C     C_R   0.684675 0.593635 0.912339 -0.113751
C507  C     C_R   0.101417 0.399189 0.697605 -0.131122
C508  C     C_R   0.300615 0.602112 0.102111 -0.120391
C509  C     C_R   0.910495 0.596786 0.687468 -0.126818
C510  C     C_R   0.695634 0.401382 0.101619 -0.111968
C511  C     C_R   0.091676 0.588870 0.315292 -0.140977
C512  C     C_R   0.313907 0.406903 0.909960 -0.123933
C513  C     C_R   0.591710 0.316787 0.088352 -0.111240
C514  C     C_R   0.405147 0.912453 0.314684 -0.111383
C515  C     C_R   0.600841 0.697674 0.898539 -0.129929
C516  C     C_R   0.396601 0.104468 0.701751 -0.133769
C517  C     C_R   0.404758 0.686670 0.089685 -0.116994
C518  C     C_R   0.600732 0.100888 0.303050 -0.114337
C519  C     C_R   0.409883 0.313857 0.906654 -0.131996
C520  C     C_R   0.593034 0.910084 0.685960 -0.123460
C521  C     C_R   0.681569 0.088036 0.410105 -0.109756
C522  C     C_R   0.087784 0.315588 0.593308 -0.117919
C523  C     C_R   0.301768 0.897415 0.399451 -0.117644
C524  C     C_R   0.896522 0.700491 0.602490 -0.130847
C525  C     C_R   0.311414 0.089658 0.598307 -0.144547
C526  C     C_R   0.899677 0.304015 0.400009 -0.111646
C527  C     C_R   0.686046 0.906363 0.589934 -0.131263
C528  C     C_R   0.088895 0.684848 0.408067 -0.141894
H1    H     H_    0.439357 0.494030 0.788934 0.186321
H2    H     H_    0.268173 0.554022 0.393134 0.173953
H3    H     H_    0.588510 0.494009 0.228509 0.211273
H4    H     H_    0.735207 0.545829 0.607753 0.214768
H5    H     H_    0.434823 0.505619 0.211466 0.212374
H6    H     H_    0.228168 0.493252 0.588772 0.182005
H7    H     H_    0.597760 0.515983 0.762419 0.227214
H8    H     H_    0.733792 0.444463 0.393399 0.193021
H9    H     H_    0.506340 0.789359 0.559866 0.186715
H10   H     H_    0.445483 0.393132 0.730678 0.173063
H11   H     H_    0.510559 0.235137 0.404692 0.187031
H12   H     H_    0.452407 0.607694 0.265094 0.212116
H13   H     H_    0.493652 0.213140 0.570815 0.207549
H14   H     H_    0.506130 0.587199 0.773218 0.207400
H15   H     H_    0.481439 0.759396 0.400060 0.227677
H16   H     H_    0.510386 0.407573 0.231329 0.186514
H17   H     H_    0.211126 0.560040 0.494816 0.181062
H18   H     H_    0.606518 0.729702 0.556049 0.164503
H19   H     H_    0.790952 0.443852 0.495439 0.180615
H20   H     H_    0.392411 0.261993 0.540401 0.220205
H21   H     H_    0.788948 0.565930 0.506219 0.212239
H22   H     H_    0.414960 0.775115 0.494481 0.205885
H23   H     H_    0.235058 0.404165 0.513879 0.225669
H24   H     H_    0.586269 0.225401 0.492899 0.181739
H25   H     H_    0.939411 0.994464 0.788690 0.184306
H26   H     H_    0.268075 0.053025 0.892776 0.174966
H27   H     H_    0.059238 0.993762 0.210057 0.181354
H28   H     H_    0.787580 0.005376 0.064526 0.201573
H29   H     H_    0.892294 0.050971 0.267577 0.180329
H30   H     H_    0.260831 0.959065 0.108518 0.210432
H31   H     H_    0.060705 0.005504 0.788837 0.207734
H32   H     H_    0.731318 0.945914 0.893058 0.174335
H33   H     H_    0.007439 0.790391 0.057862 0.184097
H34   H     H_    0.945951 0.893047 0.731380 0.173909
H35   H     H_    0.005835 0.210574 0.940739 0.181241
H36   H     H_    0.994852 0.068450 0.214764 0.209143
H37   H     H_    0.940845 0.271807 0.105427 0.174873
H38   H     H_    0.053880 0.107014 0.731383 0.204054
H39   H     H_    0.994341 0.789029 0.939992 0.185321
H40   H     H_    0.055981 0.893658 0.270142 0.171454
H41   H     H_    0.211827 0.061898 0.994687 0.208591
H42   H     H_    0.105674 0.727584 0.058956 0.163491
H43   H     H_    0.788822 0.939545 0.994494 0.181039
H44   H     H_    0.941506 0.209356 0.006759 0.197748
H45   H     H_    0.731128 0.106959 0.053677 0.188108
H46   H     H_    0.893144 0.731020 0.945329 0.176187
H47   H     H_    0.220792 0.922483 0.005231 0.214230
H48   H     H_    0.106620 0.269456 0.944467 0.199655
H49   H     H_    0.912315 0.492432 0.273194 0.214235
H50   H     H_    0.772043 0.564720 0.896465 0.158735
H51   H     H_    0.105905 0.476780 0.749182 0.193829
H52   H     H_    0.250843 0.523159 0.105730 0.203900
H53   H     H_    0.898857 0.568769 0.775916 0.160286
H54   H     H_    0.745415 0.480249 0.103805 0.208207
H55   H     H_    0.059463 0.505323 0.289178 0.190122
H56   H     H_    0.231199 0.446882 0.892745 0.174768
H57   H     H_    0.556579 0.232081 0.106489 0.172277
H58   H     H_    0.434898 0.896703 0.227528 0.165873
H59   H     H_    0.523174 0.749164 0.894148 0.192420
H60   H     H_    0.477689 0.105558 0.748197 0.206416
H61   H     H_    0.426369 0.777177 0.098441 0.163414
H62   H     H_    0.524156 0.106210 0.250005 0.208667
H63   H     H_    0.493919 0.288765 0.938583 0.179185
H64   H     H_    0.555129 0.893275 0.769759 0.171182
H65   H     H_    0.764643 0.107596 0.448284 0.193004
H66   H     H_    0.104392 0.228897 0.562777 0.160372
H67   H     H_    0.252779 0.895413 0.478851 0.192885
H68   H     H_    0.894631 0.748169 0.522152 0.207736
H69   H     H_    0.225922 0.103586 0.563185 0.180326
H70   H     H_    0.896029 0.254069 0.478819 0.209046
H71   H     H_    0.712570 0.936041 0.505444 0.178810
H72   H     H_    0.106950 0.768321 0.445946 0.200748
H73   H     H_    0.448841 0.992117 0.293540 0.180067
H74   H     H_    0.710552 0.004315 0.439444 0.176513
H75   H     H_    0.560185 0.993846 0.710589 0.182893
H76   H     H_    0.292681 0.008011 0.556999 0.184313
H77   H     H_    0.393889 0.024645 0.750537 0.184975
H78   H     H_    0.767682 0.948377 0.607628 0.183273
H79   H     H_    0.604376 0.021830 0.253540 0.186536
H80   H     H_    0.250788 0.975636 0.394240 0.184266
H81   H     H_    0.007217 0.292938 0.552122 0.182412
H82   H     H_    0.990414 0.406034 0.266363 0.211206
H83   H     H_    0.005226 0.711329 0.439596 0.186289
H84   H     H_    0.989723 0.550484 0.704851 0.190582
H85   H     H_    0.975917 0.749712 0.605869 0.187763
H86   H     H_    0.054755 0.606707 0.231319 0.200923
H87   H     H_    0.975735 0.250423 0.393831 0.192216
H88   H     H_    0.022426 0.395397 0.747321 0.214069
H89   H     H_    0.706349 0.550334 0.992100 0.180817
H90   H     H_    0.557690 0.290860 0.005373 0.178055
H91   H     H_    0.288336 0.437866 0.994181 0.185140
H92   H     H_    0.456155 0.702977 0.013371 0.174175
H93   H     H_    0.252331 0.604711 0.022120 0.198730
H94   H     H_    0.392890 0.230633 0.945737 0.188717
H95   H     H_    0.749396 0.393870 0.025454 0.189458
H96   H     H_    0.604519 0.747228 0.977655 0.214363
H97   H     H_    0.599458 0.016810 0.099490 0.184094
H98   H     H_    0.900567 0.983179 0.599443 0.183004
H99   H     H_    0.400510 0.016839 0.900511 0.182269
H100  H     H_    0.099456 0.983220 0.400527 0.183467
H101  H     H_    0.599454 0.983220 0.900528 0.182686
H102  H     H_    0.900535 0.016818 0.400536 0.183349
H103  H     H_    0.400565 0.983177 0.099446 0.184844
H104  H     H_    0.099455 0.016807 0.599484 0.184632
H105  H     H_    0.983274 0.099398 0.400599 0.182914
H106  H     H_    0.016887 0.599504 0.099518 0.184280
H107  H     H_    0.983249 0.900601 0.599414 0.182858
H108  H     H_    0.016861 0.400489 0.900483 0.184526
H109  H     H_    0.016864 0.900486 0.400482 0.182738
H110  H     H_    0.983274 0.400629 0.099384 0.183420
H111  H     H_    0.016884 0.099501 0.599515 0.184229
H112  H     H_    0.983274 0.599394 0.900601 0.184671
H113  H     H_    0.900569 0.400575 0.016777 0.184496
H114  H     H_    0.400528 0.099466 0.983158 0.183312
H115  H     H_    0.099454 0.599469 0.016772 0.184963
H116  H     H_    0.599473 0.900511 0.983192 0.184383
H117  H     H_    0.099475 0.400511 0.983191 0.183677
H118  H     H_    0.599431 0.099446 0.016753 0.183878
H119  H     H_    0.900520 0.599473 0.983153 0.183177
H120  H     H_    0.400575 0.900580 0.016776 0.185237
H121  H     H_    0.099461 0.516811 0.099489 0.184115
H122  H     H_    0.900586 0.483199 0.099421 0.184724
H123  H     H_    0.900502 0.516846 0.900504 0.183181
H124  H     H_    0.099470 0.483209 0.900512 0.181719
H125  H     H_    0.483268 0.099402 0.900593 0.184137
H126  H     H_    0.516888 0.099507 0.099523 0.183553
H127  H     H_    0.483240 0.900592 0.099424 0.183732
H128  H     H_    0.516876 0.900470 0.900466 0.181508
H129  H     H_    0.900569 0.900574 0.516780 0.184305
H130  H     H_    0.900527 0.099469 0.483159 0.184360
H131  H     H_    0.099459 0.099474 0.516776 0.183770
H132  H     H_    0.099488 0.900498 0.483182 0.182601
H133  H     H_    0.599444 0.516794 0.599471 0.184252
H134  H     H_    0.400597 0.483206 0.599415 0.184306
H135  H     H_    0.400530 0.516819 0.400532 0.183247
H136  H     H_    0.599435 0.483243 0.400548 0.183887
H137  H     H_    0.483288 0.599382 0.400612 0.184391
H138  H     H_    0.516856 0.599471 0.599484 0.184423
H139  H     H_    0.483266 0.400618 0.599398 0.183197
H140  H     H_    0.516821 0.400531 0.400527 0.183748
H141  H     H_    0.400591 0.400595 0.516759 0.184547
H142  H     H_    0.400557 0.599436 0.483186 0.184480
H143  H     H_    0.599436 0.599451 0.516754 0.183436
H144  H     H_    0.599446 0.400542 0.483222 0.184063
N1    N     N_R   0.359302 0.405399 0.860998 -0.167310
N2    N     N_R   0.138908 0.593121 0.362477 -0.167880
N3    N     N_R   0.636915 0.410035 0.135794 -0.177350
N4    N     N_R   0.863079 0.596306 0.640173 -0.193206
N5    N     N_R   0.355185 0.598633 0.143005 -0.169764
N6    N     N_R   0.136729 0.407477 0.639391 -0.177422
N7    N     N_R   0.633231 0.590723 0.870579 -0.166135
N8    N     N_R   0.871384 0.412310 0.371888 -0.161545
N9    N     N_R   0.594673 0.860698 0.641075 -0.169702
N10   N     N_R   0.405094 0.360928 0.859197 -0.167610
N11   N     N_R   0.589866 0.135300 0.361173 -0.178394
N12   N     N_R   0.404554 0.639076 0.136775 -0.196888
N13   N     N_R   0.399129 0.145114 0.646321 -0.168982
N14   N     N_R   0.593099 0.639633 0.862815 -0.175837
N15   N     N_R   0.408576 0.870290 0.365744 -0.164595
N16   N     N_R   0.588122 0.369440 0.128949 -0.174683
N17   N     N_R   0.137571 0.639161 0.406755 -0.168215
N18   N     N_R   0.639101 0.858636 0.595152 -0.170259
N19   N     N_R   0.859417 0.358289 0.403980 -0.168708
N20   N     N_R   0.358714 0.137032 0.597282 -0.186468
N21   N     N_R   0.855797 0.645511 0.599695 -0.170178
N22   N     N_R   0.359896 0.861629 0.405970 -0.175533
N23   N     N_R   0.129256 0.367381 0.590384 -0.168082
N24   N     N_R   0.628708 0.129012 0.411546 -0.176095
N25   N     N_R   0.860230 0.906179 0.861836 -0.168106
N26   N     N_R   0.139522 0.093883 0.861886 -0.166917
N27   N     N_R   0.140194 0.904910 0.138558 -0.168987
N28   N     N_R   0.860793 0.096150 0.142600 -0.161256
N29   N     N_R   0.094742 0.860068 0.141961 -0.173389
N30   N     N_R   0.906204 0.861865 0.860403 -0.168990
N31   N     N_R   0.093660 0.138333 0.860267 -0.168358
N32   N     N_R   0.903695 0.143399 0.139667 -0.162829
N33   N     N_R   0.138305 0.140089 0.906006 -0.166940
N34   N     N_R   0.139539 0.856864 0.096608 -0.152882
N35   N     N_R   0.861781 0.860296 0.906343 -0.169345
N36   N     N_R   0.857795 0.139158 0.095341 -0.180309
N37   N     N_R   0.353892 0.901824 0.356585 -0.171349
N38   N     N_R   0.640995 0.097201 0.357460 -0.169988
N39   N     N_R   0.640479 0.905227 0.638874 -0.167244
N40   N     N_R   0.354110 0.099898 0.649195 -0.166420
N41   N     N_R   0.097675 0.357124 0.644864 -0.168623
N42   N     N_R   0.910293 0.362124 0.365471 -0.183447
N43   N     N_R   0.093172 0.637704 0.360770 -0.168554
N44   N     N_R   0.900859 0.647794 0.644906 -0.163543
N45   N     N_R   0.643103 0.645130 0.902297 -0.169455
N46   N     N_R   0.643017 0.358838 0.098042 -0.168900
N47   N     N_R   0.360684 0.359123 0.905119 -0.167691
N48   N     N_R   0.353371 0.644593 0.098691 -0.160002
O1    O     O_R   0.494250 0.139510 0.951890 -0.626129
O2    O     O_R   0.048110 0.860490 0.494250 -0.629670
O3    O     O_R   0.505750 0.139510 0.048110 -0.629228
O4    O     O_R   0.951890 0.860490 0.505750 -0.626703
O5    O     O_R   0.494250 0.860490 0.048110 -0.629706
O6    O     O_R   0.048110 0.139510 0.505750 -0.629328
O7    O     O_R   0.505750 0.860490 0.951890 -0.630227
O8    O     O_R   0.951890 0.139510 0.494250 -0.625896
O9    O     O_R   0.860490 0.951890 0.505750 -0.625776
O10   O     O_R   0.139510 0.494250 0.951890 -0.630728
O11   O     O_R   0.860490 0.048110 0.494250 -0.628068
O12   O     O_R   0.139510 0.505750 0.048110 -0.627420
O13   O     O_R   0.139510 0.048110 0.505750 -0.629051
O14   O     O_R   0.860490 0.505750 0.951890 -0.629503
O15   O     O_R   0.139510 0.951890 0.494250 -0.628803
O16   O     O_R   0.860490 0.494250 0.048110 -0.626040
O17   O     O_R   0.048110 0.505750 0.139510 -0.626981
O18   O     O_R   0.505750 0.951890 0.860490 -0.630750
O19   O     O_R   0.951890 0.494250 0.139510 -0.626025
O20   O     O_R   0.494250 0.048110 0.860490 -0.626601
O21   O     O_R   0.951890 0.505750 0.860490 -0.630028
O22   O     O_R   0.494250 0.951890 0.139510 -0.629409
O23   O     O_R   0.048110 0.494250 0.860490 -0.630251
O24   O     O_R   0.505750 0.048110 0.139510 -0.627243
O25   O     O_R   0.994250 0.639510 0.951890 -0.625560
O26   O     O_R   0.048110 0.360490 0.994250 -0.629353
O27   O     O_R   0.005750 0.639510 0.048110 -0.626184
O28   O     O_R   0.951890 0.360490 0.005750 -0.625385
O29   O     O_R   0.994250 0.360490 0.048110 -0.630057
O30   O     O_R   0.048110 0.639510 0.005750 -0.628420
O31   O     O_R   0.005750 0.360490 0.951890 -0.626091
O32   O     O_R   0.951890 0.639510 0.994250 -0.629819
O33   O     O_R   0.360490 0.951890 0.005750 -0.625662
O34   O     O_R   0.639510 0.994250 0.951890 -0.630480
O35   O     O_R   0.360490 0.048110 0.994250 -0.626788
O36   O     O_R   0.639510 0.005750 0.048110 -0.625485
O37   O     O_R   0.639510 0.048110 0.005750 -0.629134
O38   O     O_R   0.360490 0.005750 0.951890 -0.630462
O39   O     O_R   0.639510 0.951890 0.994250 -0.625744
O40   O     O_R   0.360490 0.994250 0.048110 -0.628166
O41   O     O_R   0.048110 0.005750 0.639510 -0.626130
O42   O     O_R   0.005750 0.951890 0.360490 -0.630356
O43   O     O_R   0.951890 0.994250 0.639510 -0.626893
O44   O     O_R   0.994250 0.048110 0.360490 -0.626476
O45   O     O_R   0.951890 0.005750 0.360490 -0.629544
O46   O     O_R   0.994250 0.951890 0.639510 -0.629938
O47   O     O_R   0.048110 0.994250 0.360490 -0.625878
O48   O     O_R   0.005750 0.048110 0.639510 -0.628776
O49   O     O_R   0.994250 0.139510 0.451890 -0.629803
O50   O     O_R   0.548110 0.860490 0.994250 -0.626064
O51   O     O_R   0.005750 0.139510 0.548110 -0.626026
O52   O     O_R   0.451890 0.860490 0.005750 -0.624896
O53   O     O_R   0.994250 0.860490 0.548110 -0.628897
O54   O     O_R   0.548110 0.139510 0.005750 -0.625663
O55   O     O_R   0.005750 0.860490 0.451890 -0.627457
O56   O     O_R   0.451890 0.139510 0.994250 -0.629720
O57   O     O_R   0.860490 0.451890 0.005750 -0.627520
O58   O     O_R   0.139510 0.994250 0.451890 -0.628266
O59   O     O_R   0.860490 0.548110 0.994250 -0.626831
O60   O     O_R   0.139510 0.005750 0.548110 -0.625217
O61   O     O_R   0.139510 0.548110 0.005750 -0.627036
O62   O     O_R   0.860490 0.005750 0.451890 -0.626130
O63   O     O_R   0.139510 0.451890 0.994250 -0.626331
O64   O     O_R   0.860490 0.994250 0.548110 -0.630043
O65   O     O_R   0.548110 0.005750 0.139510 -0.627754
O66   O     O_R   0.005750 0.451890 0.860490 -0.626085
O67   O     O_R   0.451890 0.994250 0.139510 -0.625878
O68   O     O_R   0.994250 0.548110 0.860490 -0.625099
O69   O     O_R   0.451890 0.005750 0.860490 -0.629279
O70   O     O_R   0.994250 0.451890 0.139510 -0.627166
O71   O     O_R   0.548110 0.994250 0.860490 -0.626919
O72   O     O_R   0.005750 0.548110 0.139510 -0.629468
O73   O     O_R   0.494250 0.639510 0.451890 -0.626782
O74   O     O_R   0.548110 0.360490 0.494250 -0.626068
O75   O     O_R   0.505750 0.639510 0.548110 -0.626213
O76   O     O_R   0.451890 0.360490 0.505750 -0.627127
O77   O     O_R   0.494250 0.360490 0.548110 -0.626435
O78   O     O_R   0.548110 0.639510 0.505750 -0.630505
O79   O     O_R   0.505750 0.360490 0.451890 -0.626861
O80   O     O_R   0.451890 0.639510 0.494250 -0.626081
O81   O     O_R   0.360490 0.451890 0.505750 -0.626106
O82   O     O_R   0.639510 0.494250 0.451890 -0.628751
O83   O     O_R   0.360490 0.548110 0.494250 -0.625921
O84   O     O_R   0.639510 0.505750 0.548110 -0.627640
O85   O     O_R   0.639510 0.548110 0.505750 -0.626617
O86   O     O_R   0.360490 0.505750 0.451890 -0.630242
O87   O     O_R   0.639510 0.451890 0.494250 -0.626584
O88   O     O_R   0.360490 0.494250 0.548110 -0.626035
O89   O     O_R   0.548110 0.505750 0.639510 -0.626750
O90   O     O_R   0.505750 0.451890 0.360490 -0.627045
O91   O     O_R   0.451890 0.494250 0.639510 -0.626322
O92   O     O_R   0.494250 0.548110 0.360490 -0.627958
O93   O     O_R   0.451890 0.505750 0.360490 -0.626809
O94   O     O_R   0.494250 0.451890 0.639510 -0.630625
O95   O     O_R   0.548110 0.494250 0.360490 -0.626445
O96   O     O_R   0.505750 0.548110 0.639510 -0.626125
O97   O     O_R   0.451490 0.216030 0.994420 -0.605570
O98   O     O_R   0.005580 0.783970 0.451490 -0.615682
O99   O     O_R   0.548510 0.216030 0.005580 -0.616206
O100  O     O_R   0.994420 0.783970 0.548510 -0.615514
O101  O     O_R   0.451490 0.783970 0.005580 -0.604256
O102  O     O_R   0.005580 0.216030 0.548510 -0.612264
O103  O     O_R   0.548510 0.783970 0.994420 -0.613787
O104  O     O_R   0.994420 0.216030 0.451490 -0.615864
O105  O     O_R   0.783970 0.994420 0.548510 -0.607509
O106  O     O_R   0.216030 0.451490 0.994420 -0.615082
O107  O     O_R   0.783970 0.005580 0.451490 -0.616675
O108  O     O_R   0.216030 0.548510 0.005580 -0.614967
O109  O     O_R   0.216030 0.005580 0.548510 -0.610098
O110  O     O_R   0.783970 0.548510 0.994420 -0.613051
O111  O     O_R   0.216030 0.994420 0.451490 -0.615818
O112  O     O_R   0.783970 0.451490 0.005580 -0.614059
O113  O     O_R   0.005580 0.548510 0.216030 -0.605822
O114  O     O_R   0.548510 0.994420 0.783970 -0.615331
O115  O     O_R   0.994420 0.451490 0.216030 -0.621375
O116  O     O_R   0.451490 0.005580 0.783970 -0.615276
O117  O     O_R   0.994420 0.548510 0.783970 -0.606443
O118  O     O_R   0.451490 0.994420 0.216030 -0.611278
O119  O     O_R   0.005580 0.451490 0.783970 -0.613798
O120  O     O_R   0.548510 0.005580 0.216030 -0.615723
O121  O     O_R   0.951490 0.716030 0.994420 -0.613776
O122  O     O_R   0.005580 0.283970 0.951490 -0.617301
O123  O     O_R   0.048510 0.716030 0.005580 -0.604248
O124  O     O_R   0.994420 0.283970 0.048510 -0.606880
O125  O     O_R   0.951490 0.283970 0.005580 -0.615519
O126  O     O_R   0.005580 0.716030 0.048510 -0.616126
O127  O     O_R   0.048510 0.283970 0.994420 -0.606177
O128  O     O_R   0.994420 0.716030 0.951490 -0.611554
O129  O     O_R   0.283970 0.994420 0.048510 -0.613270
O130  O     O_R   0.716030 0.951490 0.994420 -0.617737
O131  O     O_R   0.283970 0.005580 0.951490 -0.610222
O132  O     O_R   0.716030 0.048510 0.005580 -0.608399
O133  O     O_R   0.716030 0.005580 0.048510 -0.616514
O134  O     O_R   0.283970 0.048510 0.994420 -0.613617
O135  O     O_R   0.716030 0.994420 0.951490 -0.609002
O136  O     O_R   0.283970 0.951490 0.005580 -0.612299
O137  O     O_R   0.005580 0.048510 0.716030 -0.611164
O138  O     O_R   0.048510 0.994420 0.283970 -0.615604
O139  O     O_R   0.994420 0.951490 0.716030 -0.610668
O140  O     O_R   0.951490 0.005580 0.283970 -0.608129
O141  O     O_R   0.994420 0.048510 0.283970 -0.619112
O142  O     O_R   0.951490 0.994420 0.716030 -0.615972
O143  O     O_R   0.005580 0.951490 0.283970 -0.608232
O144  O     O_R   0.048510 0.005580 0.716030 -0.610128
O145  O     O_R   0.951490 0.216030 0.494420 -0.618587
O146  O     O_R   0.505580 0.783970 0.951490 -0.622368
O147  O     O_R   0.048510 0.216030 0.505580 -0.602450
O148  O     O_R   0.494420 0.783970 0.048510 -0.607540
O149  O     O_R   0.951490 0.783970 0.505580 -0.619394
O150  O     O_R   0.505580 0.216030 0.048510 -0.605214
O151  O     O_R   0.048510 0.783970 0.494420 -0.606372
O152  O     O_R   0.494420 0.216030 0.951490 -0.619526
O153  O     O_R   0.783970 0.494420 0.048510 -0.619700
O154  O     O_R   0.216030 0.951490 0.494420 -0.623274
O155  O     O_R   0.783970 0.505580 0.951490 -0.603416
O156  O     O_R   0.216030 0.048510 0.505580 -0.604064
O157  O     O_R   0.216030 0.505580 0.048510 -0.620048
O158  O     O_R   0.783970 0.048510 0.494420 -0.605679
O159  O     O_R   0.216030 0.494420 0.951490 -0.609690
O160  O     O_R   0.783970 0.951490 0.505580 -0.620054
O161  O     O_R   0.505580 0.048510 0.216030 -0.618300
O162  O     O_R   0.048510 0.494420 0.783970 -0.621348
O163  O     O_R   0.494420 0.951490 0.216030 -0.602577
O164  O     O_R   0.951490 0.505580 0.783970 -0.607156
O165  O     O_R   0.494420 0.048510 0.783970 -0.618873
O166  O     O_R   0.951490 0.494420 0.216030 -0.612209
O167  O     O_R   0.505580 0.951490 0.783970 -0.607734
O168  O     O_R   0.048510 0.505580 0.216030 -0.615580
O169  O     O_R   0.451490 0.716030 0.494420 -0.619528
O170  O     O_R   0.505580 0.283970 0.451490 -0.620583
O171  O     O_R   0.548510 0.716030 0.505580 -0.605089
O172  O     O_R   0.494420 0.283970 0.548510 -0.615062
O173  O     O_R   0.451490 0.283970 0.505580 -0.610219
O174  O     O_R   0.505580 0.716030 0.548510 -0.617501
O175  O     O_R   0.548510 0.283970 0.494420 -0.620368
O176  O     O_R   0.494420 0.716030 0.451490 -0.610916
O177  O     O_R   0.283970 0.494420 0.548510 -0.622648
O178  O     O_R   0.716030 0.451490 0.494420 -0.612928
O179  O     O_R   0.283970 0.505580 0.451490 -0.607257
O180  O     O_R   0.716030 0.548510 0.505580 -0.608204
O181  O     O_R   0.716030 0.505580 0.548510 -0.614032
O182  O     O_R   0.283970 0.548510 0.494420 -0.618643
O183  O     O_R   0.716030 0.494420 0.451490 -0.607330
O184  O     O_R   0.283970 0.451490 0.505580 -0.612037
O185  O     O_R   0.505580 0.548510 0.716030 -0.620071
O186  O     O_R   0.548510 0.494420 0.283970 -0.616606
O187  O     O_R   0.494420 0.451490 0.716030 -0.607058
O188  O     O_R   0.451490 0.505580 0.283970 -0.612602
O189  O     O_R   0.494420 0.548510 0.283970 -0.608461
O190  O     O_R   0.451490 0.494420 0.716030 -0.617102
O191  O     O_R   0.505580 0.451490 0.283970 -0.620686
O192  O     O_R   0.548510 0.505580 0.716030 -0.611862
Zn1   Zn    Zn3+2 0.528560 0.178560 0.971440 0.997807
Zn2   Zn    Zn3+2 0.028560 0.821440 0.528560 1.002710
Zn3   Zn    Zn3+2 0.471440 0.178560 0.028560 1.009507
Zn4   Zn    Zn3+2 0.971440 0.821440 0.471440 1.000911
Zn5   Zn    Zn3+2 0.528560 0.821440 0.028560 1.006148
Zn6   Zn    Zn3+2 0.028560 0.178560 0.471440 1.003585
Zn7   Zn    Zn3+2 0.471440 0.821440 0.971440 1.001205
Zn8   Zn    Zn3+2 0.971440 0.178560 0.528560 1.005062
Zn9   Zn    Zn3+2 0.821440 0.971440 0.471440 0.996215
Zn10  Zn    Zn3+2 0.178560 0.528560 0.971440 1.002052
Zn11  Zn    Zn3+2 0.821440 0.028560 0.528560 1.008433
Zn12  Zn    Zn3+2 0.178560 0.471440 0.028560 1.000897
Zn13  Zn    Zn3+2 0.178560 0.028560 0.471440 1.003839
Zn14  Zn    Zn3+2 0.821440 0.471440 0.971440 1.003874
Zn15  Zn    Zn3+2 0.178560 0.971440 0.528560 0.998980
Zn16  Zn    Zn3+2 0.821440 0.528560 0.028560 1.003142
Zn17  Zn    Zn3+2 0.028560 0.471440 0.178560 1.001750
Zn18  Zn    Zn3+2 0.471440 0.971440 0.821440 0.998240
Zn19  Zn    Zn3+2 0.971440 0.528560 0.178560 1.014177
Zn20  Zn    Zn3+2 0.528560 0.028560 0.821440 1.000461
Zn21  Zn    Zn3+2 0.971440 0.471440 0.821440 1.006291
Zn22  Zn    Zn3+2 0.528560 0.971440 0.178560 1.003729
Zn23  Zn    Zn3+2 0.028560 0.528560 0.821440 1.001499
Zn24  Zn    Zn3+2 0.471440 0.028560 0.178560 1.006538
Zn25  Zn    Zn3+2 0.028560 0.678560 0.971440 1.010350
Zn26  Zn    Zn3+2 0.028560 0.321440 0.028560 1.006695
Zn27  Zn    Zn3+2 0.971440 0.678560 0.028560 0.997460
Zn28  Zn    Zn3+2 0.971440 0.321440 0.971440 1.001631
Zn29  Zn    Zn3+2 0.321440 0.971440 0.971440 1.008872
Zn30  Zn    Zn3+2 0.678560 0.028560 0.971440 1.002898
Zn31  Zn    Zn3+2 0.321440 0.028560 0.028560 1.006625
Zn32  Zn    Zn3+2 0.678560 0.971440 0.028560 1.001000
Zn33  Zn    Zn3+2 0.028560 0.971440 0.678560 1.005875
Zn34  Zn    Zn3+2 0.971440 0.971440 0.321440 1.002211
Zn35  Zn    Zn3+2 0.971440 0.028560 0.678560 1.000806
Zn36  Zn    Zn3+2 0.028560 0.028560 0.321440 0.999630
Zn37  Zn    Zn3+2 0.528560 0.678560 0.471440 1.013832
Zn38  Zn    Zn3+2 0.528560 0.321440 0.528560 0.997603
Zn39  Zn    Zn3+2 0.471440 0.678560 0.528560 1.001443
Zn40  Zn    Zn3+2 0.471440 0.321440 0.471440 1.002714
Zn41  Zn    Zn3+2 0.321440 0.471440 0.471440 1.011008
Zn42  Zn    Zn3+2 0.678560 0.528560 0.471440 1.010498
Zn43  Zn    Zn3+2 0.321440 0.528560 0.528560 0.995103
Zn44  Zn    Zn3+2 0.678560 0.471440 0.528560 1.002843
Zn45  Zn    Zn3+2 0.528560 0.471440 0.678560 1.010693
Zn46  Zn    Zn3+2 0.471440 0.471440 0.321440 1.000096
Zn47  Zn    Zn3+2 0.471440 0.528560 0.678560 1.000790
Zn48  Zn    Zn3+2 0.528560 0.528560 0.321440 1.010395
S1    S     S_3+6 0.405558 0.475019 0.855658 0.105351
O193  O     O_2   0.365201 0.482145 0.858073 -0.278105
O194  O     O_2   0.417605 0.455148 0.889472 -0.151583
O195  O     O_3   0.427763 0.515236 0.853719 -0.458046
H145  H     H_    0.411969 0.531392 0.838822 0.365261
S2    S     S_3+6 0.222084 0.592934 0.344180 0.104563
O196  O     O_2   0.201234 0.566319 0.320885 -0.265624
O197  O     O_2   0.208010 0.630805 0.336926 -0.162816
O198  O     O_3   0.266576 0.591410 0.332753 -0.486034
H146  H     H_    0.271259 0.565723 0.325685 0.365008
S3    S     S_3+6 0.605331 0.492428 0.153580 0.103080
O199  O     O_2   0.628037 0.519457 0.174541 -0.251080
O200  O     O_2   0.626308 0.479184 0.120953 -0.240641
O201  O     O_3   0.567529 0.513771 0.138625 -0.487861
H147  H     H_    0.576534 0.535672 0.125514 0.405626
S4    S     S_3+6 0.781548 0.578550 0.659867 0.098661
O202  O     O_2   0.811119 0.555941 0.677106 -0.264832
O203  O     O_2   0.785180 0.617641 0.671606 -0.163566
O204  O     O_3   0.740796 0.562479 0.673655 -0.536539
H148  H     H_    0.742781 0.560468 0.700573 0.417499
S5    S     S_3+6 0.403763 0.526050 0.143629 0.089837
O205  O     O_2   0.363646 0.517724 0.143192 -0.255638
O206  O     O_2   0.413657 0.546449 0.109430 -0.200852
O207  O     O_3   0.427283 0.486588 0.144815 -0.492511
H149  H     H_    0.413389 0.469556 0.129052 0.415868
S6    S     S_3+6 0.156520 0.486178 0.615123 0.103747
O208  O     O_2   0.117075 0.474846 0.614729 -0.201747
O209  O     O_2   0.168974 0.490868 0.653869 -0.222398
O210  O     O_3   0.159955 0.526614 0.593483 -0.484058
H150  H     H_    0.181660 0.538729 0.604167 0.350396
S7    S     S_3+6 0.632738 0.522821 0.829659 0.070765
O211  O     O_2   0.669517 0.540243 0.824731 -0.239265
O212  O     O_2   0.625048 0.517564 0.869671 -0.231473
O213  O     O_3   0.633109 0.481542 0.809490 -0.539546
H151  H     H_    0.652336 0.467580 0.822423 0.398629
S8    S     S_3+6 0.782058 0.406964 0.345634 0.084436
O214  O     O_2   0.797574 0.437042 0.322359 -0.252260
O215  O     O_2   0.801825 0.371990 0.337222 -0.213065
O216  O     O_3   0.737438 0.401579 0.335764 -0.520057
H152  H     H_    0.733357 0.415346 0.312803 0.395832
S9    S     S_3+6 0.525465 0.855736 0.594175 0.106222
O217  O     O_2   0.518153 0.858412 0.634502 -0.279562
O218  O     O_2   0.545664 0.889301 0.582021 -0.149933
O219  O     O_3   0.485359 0.854036 0.571785 -0.458523
H153  H     H_    0.468919 0.839604 0.587725 0.363745
S10   S     S_3+6 0.405783 0.343791 0.775713 0.104148
O220  O     O_2   0.432242 0.320064 0.796282 -0.265233
O221  O     O_2   0.367847 0.336467 0.789577 -0.164463
O222  O     O_3   0.407403 0.333075 0.731041 -0.488169
H154  H     H_    0.433093 0.326057 0.726298 0.364145
S11   S     S_3+6 0.510706 0.163615 0.377835 0.099705
O223  O     O_2   0.507501 0.180634 0.340707 -0.228128
O224  O     O_2   0.519076 0.123625 0.374075 -0.214166
O225  O     O_3   0.470297 0.167645 0.399339 -0.484915
H155  H     H_    0.459633 0.190830 0.390356 0.359265
S12   S     S_3+6 0.417242 0.658714 0.219077 0.098560
O226  O     O_2   0.442111 0.677563 0.192404 -0.262712
O227  O     O_2   0.378286 0.668968 0.211399 -0.171474
O228  O     O_3   0.428145 0.672089 0.261655 -0.532757
H156  H     H_    0.427518 0.699130 0.260845 0.419372
S13   S     S_3+6 0.471894 0.144945 0.600423 0.083344
O229  O     O_2   0.480020 0.145808 0.640577 -0.254198
O230  O     O_2   0.451396 0.110505 0.591492 -0.216699
O231  O     O_3   0.511512 0.145181 0.577195 -0.496634
H157  H     H_    0.527063 0.126853 0.589642 0.416829
S14   S     S_3+6 0.514676 0.614229 0.844082 0.086454
O232  O     O_2   0.526142 0.613253 0.883500 -0.223302
O233  O     O_2   0.510164 0.653087 0.831873 -0.231782
O234  O     O_3   0.474294 0.592584 0.840017 -0.516923
H158  H     H_    0.455442 0.611876 0.843255 0.387738
S15   S     S_3+6 0.473513 0.824653 0.361833 0.070194
O235  O     O_2   0.452774 0.819459 0.326848 -0.234737
O236  O     O_2   0.481545 0.864526 0.367544 -0.236333
O237  O     O_3   0.513519 0.802272 0.358733 -0.540454
H159  H     H_    0.525407 0.812211 0.336577 0.398799
S16   S     S_3+6 0.513388 0.382995 0.158827 0.098327
O238  O     O_2   0.518739 0.388529 0.118462 -0.180829
O239  O     O_2   0.516533 0.343024 0.167717 -0.258160
O240  O     O_3   0.471045 0.397644 0.169438 -0.490532
H160  H     H_    0.463113 0.382535 0.190474 0.359555
S17   S     S_3+6 0.143678 0.592647 0.476347 0.106833
O241  O     O_2   0.141455 0.632870 0.484269 -0.273579
O242  O     O_2   0.109734 0.581112 0.456423 -0.153749
O243  O     O_3   0.145738 0.569577 0.516085 -0.454077
H161  H     H_    0.160341 0.585197 0.532659 0.367009
S18   S     S_3+6 0.655541 0.773709 0.596781 0.110119
O244  O     O_2   0.680136 0.787588 0.566962 -0.259349
O245  O     O_2   0.664772 0.793054 0.631776 -0.167176
O246  O     O_3   0.662798 0.728719 0.602831 -0.476873
H162  H     H_    0.668309 0.718912 0.578214 0.360297
S19   S     S_3+6 0.860715 0.415065 0.476571 0.103255
O247  O     O_2   0.865285 0.375666 0.487008 -0.250206
O248  O     O_2   0.893515 0.426704 0.454824 -0.180528
O249  O     O_3   0.858672 0.440595 0.514750 -0.477708
H163  H     H_    0.845361 0.425410 0.532785 0.364979
S20   S     S_3+6 0.339320 0.214850 0.568822 0.093124
O250  O     O_2   0.324830 0.181183 0.550358 -0.253154
O251  O     O_2   0.323677 0.218124 0.606564 -0.175338
O252  O     O_3   0.326389 0.251439 0.544138 -0.543515
H164  H     H_    0.299925 0.247939 0.539699 0.412127
S21   S     S_3+6 0.857335 0.595200 0.528045 0.086113
O253  O     O_2   0.858883 0.635109 0.518977 -0.247392
O254  O     O_2   0.890683 0.584982 0.549634 -0.211328
O255  O     O_3   0.856828 0.571049 0.488996 -0.518486
H165  H     H_    0.876865 0.581397 0.474068 0.410592
S22   S     S_3+6 0.388535 0.845845 0.484661 0.091384
O256  O     O_2   0.386335 0.884476 0.470923 -0.225031
O257  O     O_2   0.351041 0.832107 0.493897 -0.226957
O258  O     O_3   0.414249 0.845334 0.522730 -0.507700
H166  H     H_    0.397388 0.852063 0.542868 0.393502
S23   S     S_3+6 0.166237 0.371951 0.520137 0.072506
O259  O     O_2   0.171093 0.333831 0.534424 -0.237346
O260  O     O_2   0.126223 0.380825 0.517579 -0.230290
O261  O     O_3   0.184396 0.374390 0.477973 -0.537258
H167  H     H_    0.168829 0.358390 0.462690 0.400346
S24   S     S_3+6 0.602418 0.150555 0.488016 0.100697
O262  O     O_2   0.600656 0.111420 0.475710 -0.175569
O263  O     O_2   0.640893 0.160048 0.498731 -0.290847
O264  O     O_3   0.575249 0.154710 0.524888 -0.467407
H168  H     H_    0.585160 0.175692 0.538930 0.357743
S25   S     S_3+6 0.906185 0.975855 0.855799 0.107221
O265  O     O_2   0.865831 0.982997 0.858233 -0.277920
O266  O     O_2   0.918306 0.956234 0.889734 -0.148196
O267  O     O_3   0.928388 0.016051 0.853515 -0.468464
H169  H     H_    0.912667 0.032021 0.838345 0.361658
S26   S     S_3+6 0.222527 0.092088 0.843484 0.115775
O268  O     O_2   0.201562 0.065190 0.820627 -0.253210
O269  O     O_2   0.208647 0.129901 0.835596 -0.162502
O270  O     O_3   0.267012 0.090162 0.832113 -0.460556
H170  H     H_    0.271601 0.064321 0.825562 0.374311
S27   S     S_3+6 0.092660 0.974320 0.143184 0.100595
O271  O     O_2   0.132556 0.983826 0.141584 -0.268655
O272  O     O_2   0.082759 0.953127 0.109496 -0.181514
O273  O     O_3   0.067999 0.013098 0.143707 -0.460269
H171  H     H_    0.082983 0.030920 0.157477 0.368704
S28   S     S_3+6 0.851440 0.023500 0.103797 0.090059
O274  O     O_2   0.887194 0.040149 0.092366 -0.177500
O275  O     O_2   0.850479 0.020384 0.144775 -0.288064
O276  O     O_3   0.848131 0.981435 0.085462 -0.508702
H172  H     H_    0.852143 0.964220 0.105989 0.390594
S29   S     S_3+6 0.843264 0.093667 0.226676 0.118801
O277  O     O_2   0.838073 0.101608 0.266631 -0.242545
O278  O     O_2   0.830637 0.126317 0.205270 -0.168144
O279  O     O_3   0.817677 0.057260 0.215472 -0.463665
H173  H     H_    0.821983 0.039335 0.235301 0.364154
S30   S     S_3+6 0.219135 0.918697 0.159152 0.092207
O280  O     O_2   0.196226 0.947206 0.177711 -0.236588
O281  O     O_2   0.207238 0.881367 0.171472 -0.208558
O282  O     O_3   0.263095 0.924934 0.170912 -0.532550
H174  H     H_    0.263962 0.920358 0.197556 0.420195
S31   S     S_3+6 0.092741 0.024470 0.856296 0.097481
O283  O     O_2   0.132912 0.016168 0.858156 -0.283053
O284  O     O_2   0.081571 0.044631 0.890211 -0.165672
O285  O     O_3   0.069092 0.985074 0.854141 -0.500103
H175  H     H_    0.086305 0.965815 0.862190 0.401409
S32   S     S_3+6 0.776816 0.906367 0.844060 0.110280
O286  O     O_2   0.797982 0.932436 0.820396 -0.264565
O287  O     O_2   0.790271 0.868216 0.837153 -0.156888
O288  O     O_3   0.732303 0.908494 0.832796 -0.479507
H176  H     H_    0.728061 0.934127 0.825232 0.364551
S33   S     S_3+6 0.026622 0.855889 0.093649 0.105932
O289  O     O_2   0.018964 0.859094 0.133879 -0.279518
O290  O     O_2   0.047457 0.889003 0.081311 -0.160472
O291  O     O_3   0.986648 0.854565 0.070981 -0.466374
H177  H     H_    0.970254 0.839529 0.086409 0.362025
S34   S     S_3+6 0.906843 0.843872 0.777093 0.118808
O292  O     O_2   0.933637 0.820565 0.797707 -0.254057
O293  O     O_2   0.869065 0.836371 0.791285 -0.157789
O294  O     O_3   0.908244 0.832734 0.732514 -0.461362
H178  H     H_    0.933970 0.825945 0.727638 0.376787
S35   S     S_3+6 0.024815 0.143374 0.907900 0.108615
O295  O     O_2   0.016221 0.140882 0.867819 -0.276835
O296  O     O_2   0.045441 0.109800 0.919227 -0.148100
O297  O     O_3   0.985522 0.144852 0.931630 -0.459618
H179  H     H_    0.968307 0.158780 0.916082 0.359402
S36   S     S_3+6 0.977507 0.110556 0.152773 0.082441
O298  O     O_2   0.964227 0.098693 0.115816 -0.182603
O299  O     O_2   0.976893 0.151555 0.154906 -0.287511
O300  O     O_3   0.020766 0.096062 0.158356 -0.528448
H180  H     H_    0.036371 0.117191 0.151822 0.393612
S37   S     S_3+6 0.897625 0.229981 0.153404 0.123312
O301  O     O_2   0.885021 0.269018 0.155091 -0.238379
O302  O     O_2   0.866560 0.205810 0.165026 -0.166484
O303  O     O_3   0.932720 0.224543 0.182489 -0.459531
H181  H     H_    0.949594 0.244956 0.176896 0.361965
S38   S     S_3+6 0.093116 0.156076 0.776807 0.090477
O304  O     O_2   0.065693 0.179319 0.796584 -0.259595
O305  O     O_2   0.130662 0.163770 0.791511 -0.195039
O306  O     O_3   0.092132 0.166466 0.732046 -0.525606
H182  H     H_    0.095310 0.193323 0.730986 0.415590
S39   S     S_3+6 0.975515 0.856377 0.907301 0.108347
O307  O     O_2   0.983080 0.859240 0.867029 -0.274427
O308  O     O_2   0.955503 0.890020 0.919471 -0.147847
O309  O     O_3   0.015471 0.854259 0.929938 -0.470541
H183  H     H_    0.031815 0.839595 0.914146 0.365806
S40   S     S_3+6 0.096663 0.844716 0.225805 0.105067
O310  O     O_2   0.069546 0.819696 0.207790 -0.269343
O311  O     O_2   0.133858 0.837623 0.209985 -0.163989
O312  O     O_3   0.098001 0.835717 0.270882 -0.481149
H184  H     H_    0.073002 0.827660 0.277366 0.364066
S41   S     S_3+6 0.144968 0.095248 0.976215 0.087629
O313  O     O_2   0.143796 0.135691 0.983217 -0.282096
O314  O     O_2   0.110561 0.083816 0.957054 -0.171831
O315  O     O_3   0.147604 0.072938 0.016364 -0.515198
H185  H     H_    0.138665 0.090418 0.034964 0.401175
S42   S     S_3+6 0.153722 0.768468 0.102483 0.133538
O316  O     O_2   0.178277 0.762872 0.070060 -0.209840
O317  O     O_2   0.170066 0.797224 0.126728 -0.179758
O318  O     O_3   0.151636 0.729344 0.126534 -0.457428
H186  H     H_    0.149117 0.709707 0.108148 0.357406
S43   S     S_3+6 0.856220 0.907216 0.975618 0.107277
O319  O     O_2   0.858479 0.867090 0.984077 -0.280506
O320  O     O_2   0.889980 0.918473 0.955228 -0.149359
O321  O     O_3   0.854581 0.930824 0.015026 -0.454850
H187  H     H_    0.840749 0.915138 0.032210 0.364051
S44   S     S_3+6 0.904757 0.144023 0.025981 0.090454
O322  O     O_2   0.916167 0.110378 0.046521 -0.166443
O323  O     O_2   0.864396 0.142261 0.018638 -0.315863
O324  O     O_3   0.927347 0.145368 0.985977 -0.492024
H188  H     H_    0.909160 0.138702 0.967083 0.395496
S45   S     S_3+6 0.772980 0.155863 0.095589 0.131354
O325  O     O_2   0.733246 0.160138 0.105023 -0.203736
O326  O     O_2   0.795386 0.168047 0.127741 -0.168602
O327  O     O_3   0.782482 0.182746 0.059467 -0.455567
H189  H     H_    0.781800 0.166297 0.037920 0.349728
S46   S     S_3+6 0.844230 0.776590 0.905716 0.109170
O328  O     O_2   0.820340 0.797160 0.932010 -0.269323
O329  O     O_2   0.837384 0.790641 0.867737 -0.154737
O330  O     O_3   0.833310 0.731942 0.907062 -0.483689
H190  H     H_    0.823574 0.727644 0.931939 0.367170
S47   S     S_3+6 0.159748 0.879377 0.022271 0.081643
O331  O     O_2   0.166893 0.888513 0.982864 -0.267232
O332  O     O_2   0.165515 0.839083 0.027370 -0.199169
O333  O     O_3   0.116094 0.889604 0.032057 -0.485472
H191  H     H_    0.111834 0.913908 0.020809 0.402250
S48   S     S_3+6 0.155347 0.224333 0.904621 0.091418
O334  O     O_2   0.179416 0.206651 0.932806 -0.261320
O335  O     O_2   0.163113 0.207908 0.867810 -0.191225
O336  O     O_3   0.164388 0.269376 0.903052 -0.522445
H192  H     H_    0.191196 0.271354 0.905832 0.410623
S49   S     S_3+6 0.891472 0.487123 0.346859 0.082926
O337  O     O_2   0.907053 0.524098 0.337985 -0.269643
O338  O     O_2   0.850988 0.488072 0.340562 -0.222730
O339  O     O_3   0.900175 0.477709 0.391014 -0.484091
H193  H     H_    0.900554 0.501805 0.403574 0.412943
S50   S     S_3+6 0.728158 0.607866 0.850202 0.130628
O340  O     O_2   0.738353 0.577783 0.824214 -0.237984
O341  O     O_2   0.696624 0.628862 0.834466 -0.195755
O342  O     O_3   0.763979 0.636311 0.854457 -0.440097
H194  H     H_    0.785767 0.620288 0.855074 0.357392
S51   S     S_3+6 0.164521 0.434879 0.720862 0.118228
O343  O     O_2   0.174716 0.412039 0.753446 -0.237133
O344  O     O_2   0.186496 0.421729 0.688878 -0.199579
O345  O     O_3   0.175450 0.478677 0.729553 -0.484821
H195  H     H_    0.175330 0.480937 0.756518 0.353627
S52   S     S_3+6 0.280631 0.561793 0.164492 0.091031
O346  O     O_2   0.295519 0.524568 0.173304 -0.254760
O347  O     O_2   0.299433 0.590129 0.187445 -0.212128
O348  O     O_3   0.235827 0.562438 0.174745 -0.516787
H196  H     H_    0.233339 0.547296 0.197039 0.397877
S53   S     S_3+6 0.855629 0.618875 0.736707 0.146412
O349  O     O_2   0.864713 0.638277 0.771723 -0.238014
O350  O     O_2   0.844600 0.646930 0.708877 -0.155404
O351  O     O_3   0.820409 0.590501 0.744630 -0.429590
H197  H     H_    0.827361 0.576546 0.766754 0.350200
S54   S     S_3+6 0.710609 0.444837 0.162509 0.077976
O352  O     O_2   0.691561 0.480636 0.168177 -0.225242
O353  O     O_2   0.692528 0.415533 0.184899 -0.252009
O354  O     O_3   0.754176 0.449209 0.176414 -0.523568
H198  H     H_    0.752601 0.459803 0.201249 0.399573
S55   S     S_3+6 0.091349 0.524047 0.356912 0.106000
O355  O     O_2   0.131476 0.515948 0.360011 -0.276670
O356  O     O_2   0.079262 0.544322 0.390438 -0.152206
O357  O     O_3   0.068113 0.484423 0.354764 -0.462598
H199  H     H_    0.084429 0.467280 0.341657 0.372457
S56   S     S_3+6 0.275995 0.407205 0.843247 0.108682
O358  O     O_2   0.297971 0.432955 0.819968 -0.257957
O359  O     O_2   0.288399 0.368775 0.835913 -0.165401
O360  O     O_3   0.231597 0.410743 0.831843 -0.475686
H200  H     H_    0.228195 0.436488 0.824223 0.366944
S57   S     S_3+6 0.595786 0.277738 0.154725 0.109030
O361  O     O_2   0.612874 0.240326 0.158221 -0.236952
O362  O     O_2   0.622707 0.306053 0.167924 -0.209794
O363  O     O_3   0.558068 0.279107 0.181318 -0.460084
H201  H     H_    0.542944 0.257880 0.173404 0.355876
S58   S     S_3+6 0.390291 0.850973 0.270605 0.131323
O364  O     O_2   0.418641 0.826427 0.253920 -0.239105
O365  O     O_2   0.374323 0.832357 0.303525 -0.195983
O366  O     O_3   0.356781 0.857673 0.239916 -0.443165
H202  H     H_    0.369492 0.864272 0.216950 0.354896
S59   S     S_3+6 0.564897 0.720880 0.835440 0.119492
O367  O     O_2   0.587597 0.753507 0.825089 -0.238338
O368  O     O_2   0.577993 0.688955 0.813359 -0.195752
O369  O     O_3   0.521031 0.729480 0.824722 -0.485695
H203  H     H_    0.518538 0.756405 0.825553 0.352630
S60   S     S_3+6 0.438455 0.165630 0.721527 0.092398
O370  O     O_2   0.476566 0.174291 0.708631 -0.246303
O371  O     O_2   0.411206 0.189213 0.701713 -0.227510
O372  O     O_3   0.435919 0.175180 0.766513 -0.515879
H204  H     H_    0.444513 0.200801 0.768613 0.403855
S61   S     S_3+6 0.377776 0.736352 0.141982 0.146768
O373  O     O_2   0.358902 0.771593 0.132639 -0.236400
O374  O     O_2   0.349245 0.708445 0.151468 -0.155753
O375  O     O_3   0.404668 0.743531 0.178484 -0.424492
H205  H     H_    0.420671 0.764205 0.171493 0.352854
S62   S     S_3+6 0.567269 0.164208 0.278179 0.105547
O376  O     O_2   0.528688 0.174880 0.269098 -0.247794
O377  O     O_2   0.580528 0.186088 0.310220 -0.236585
O378  O     O_3   0.593914 0.173887 0.242039 -0.488464
H206  H     H_    0.589492 0.200069 0.236820 0.416456
S63   S     S_3+6 0.474711 0.355379 0.904620 0.109120
O379  O     O_2   0.481230 0.357940 0.864146 -0.277781
O380  O     O_2   0.455138 0.389163 0.917108 -0.147689
O381  O     O_3   0.515240 0.353312 0.926117 -0.458471
H207  H     H_    0.531170 0.338667 0.909891 0.355911
S64   S     S_3+6 0.595277 0.844100 0.725083 0.115388
O382  O     O_2   0.568427 0.819803 0.705725 -0.257947
O383  O     O_2   0.632853 0.836868 0.710249 -0.157891
O384  O     O_3   0.595093 0.834156 0.769992 -0.468276
H208  H     H_    0.569831 0.826188 0.775501 0.367554
S65   S     S_3+6 0.716164 0.156166 0.411143 0.102099
O385  O     O_2   0.755483 0.167948 0.412129 -0.232056
O386  O     O_2   0.700810 0.164372 0.373965 -0.192938
O387  O     O_3   0.692680 0.179993 0.442479 -0.483401
H209  H     H_    0.705789 0.175619 0.465754 0.379675
S66   S     S_3+6 0.151015 0.273144 0.605277 0.111378
O388  O     O_2   0.177272 0.267882 0.574166 -0.246992
O389  O     O_2   0.164949 0.303194 0.629477 -0.201708
O390  O     O_3   0.149265 0.234294 0.629790 -0.469838
H210  H     H_    0.152094 0.214327 0.611765 0.355979
S67   S     S_3+6 0.280945 0.835595 0.439425 0.108397
O391  O     O_2   0.247067 0.823780 0.419469 -0.276820
O392  O     O_2   0.312196 0.813075 0.425509 -0.203727
O393  O     O_3   0.275288 0.827157 0.484290 -0.482507
H211  H     H_    0.248535 0.826628 0.488266 0.359358
S68   S     S_3+6 0.835032 0.718967 0.560496 0.089687
O394  O     O_2   0.826432 0.701141 0.524581 -0.241426
O395  O     O_2   0.812044 0.702453 0.590215 -0.224015
O396  O     O_3   0.824660 0.763596 0.557297 -0.521599
H212  H     H_    0.798905 0.764274 0.549093 0.404702
S69   S     S_3+6 0.263029 0.147305 0.614038 0.125996
O397  O     O_2   0.228330 0.138625 0.634216 -0.260589
O398  O     O_2   0.290765 0.160919 0.641006 -0.181147
O399  O     O_3   0.254122 0.179790 0.582755 -0.478964
H213  H     H_    0.233989 0.194526 0.593200 0.402475
S70   S     S_3+6 0.837509 0.287669 0.442035 0.084327
O400  O     O_2   0.826337 0.249013 0.450245 -0.248204
O401  O     O_2   0.830058 0.310669 0.475125 -0.246632
O402  O     O_3   0.812354 0.302621 0.406629 -0.487740
H214  H     H_    0.786753 0.301384 0.415255 0.404655
S71   S     S_3+6 0.646395 0.901005 0.524063 0.108359
O403  O     O_2   0.645143 0.860291 0.518907 -0.275347
O404  O     O_2   0.611745 0.913201 0.542290 -0.150373
O405  O     O_3   0.649005 0.921159 0.482838 -0.460326
H215  H     H_    0.665567 0.905493 0.468285 0.353567
S72   S     S_3+6 0.155677 0.722595 0.406728 0.095031
O406  O     O_2   0.178867 0.702844 0.434273 -0.259587
O407  O     O_2   0.163344 0.707683 0.369256 -0.188335
O408  O     O_3   0.166156 0.767342 0.407418 -0.515300
H216  H     H_    0.192893 0.768300 0.411211 0.424462
S73   S     S_3+6 0.414913 0.972503 0.360925 0.107265
O409  O     O_2   0.375789 0.983750 0.366028 -0.253750
O410  O     O_2   0.425895 0.948598 0.392454 -0.185178
O411  O     O_3   0.441577 0.009957 0.360914 -0.465493
H217  H     H_    0.427243 0.028909 0.347965 0.370534
S74   S     S_3+6 0.641330 0.023132 0.409049 0.110025
O412  O     O_2   0.608105 0.042279 0.423625 -0.173361
O413  O     O_2   0.636615 0.017693 0.368677 -0.259257
O414  O     O_3   0.644828 0.982139 0.429485 -0.452216
H218  H     H_    0.659416 0.966964 0.412512 0.359328
S75   S     S_3+6 0.593560 0.974509 0.643732 0.105074
O415  O     O_2   0.633598 0.983493 0.642212 -0.272410
O416  O     O_2   0.583342 0.953653 0.609927 -0.155065
O417  O     O_3   0.569383 0.013593 0.644467 -0.477709
H219  H     H_    0.584471 0.031063 0.658575 0.364125
S76   S     S_3+6 0.356471 0.027992 0.597168 0.099748
O418  O     O_2   0.389876 0.049810 0.587555 -0.186297
O419  O     O_2   0.356963 0.020172 0.637484 -0.251492
O420  O     O_3   0.357598 0.988249 0.574148 -0.472720
H220  H     H_    0.341844 0.971391 0.588305 0.364509
S77   S     S_3+6 0.334487 0.064869 0.725036 0.110385
O421  O     O_2   0.326493 0.071635 0.764742 -0.266024
O422  O     O_2   0.310238 0.089570 0.703078 -0.174397
O423  O     O_3   0.324422 0.021081 0.715476 -0.487288
H221  H     H_    0.326600 0.007915 0.739057 0.359035
S78   S     S_3+6 0.723141 0.908665 0.657121 0.105486
O424  O     O_2   0.702221 0.935965 0.679535 -0.268645
O425  O     O_2   0.709371 0.870970 0.665787 -0.162050
O426  O     O_3   0.767742 0.910876 0.668089 -0.492190
H222  H     H_    0.770865 0.934322 0.681191 0.377458
S79   S     S_3+6 0.663220 0.060428 0.283980 0.109563
O427  O     O_2   0.673359 0.059642 0.244174 -0.254013
O428  O     O_2   0.685687 0.089596 0.302069 -0.180664
O429  O     O_3   0.673343 0.019542 0.302255 -0.482253
H223  H     H_    0.667924 0.001570 0.282751 0.360437
S80   S     S_3+6 0.283576 0.937158 0.336180 0.095129
O430  O     O_2   0.310623 0.966443 0.326447 -0.261274
O431  O     O_2   0.292327 0.903070 0.315085 -0.177772
O432  O     O_3   0.241403 0.950922 0.324127 -0.494424
H224  H     H_    0.241372 0.977789 0.327178 0.360160
S81   S     S_3+6 0.027116 0.361107 0.584242 0.107811
O433  O     O_2   0.019214 0.368681 0.623780 -0.255608
O434  O     O_2   0.049707 0.391935 0.569259 -0.175083
O435  O     O_3   0.987500 0.359266 0.561020 -0.470250
H225  H     H_    0.970379 0.346010 0.577264 0.366530
S82   S     S_3+6 0.989207 0.379337 0.337767 0.088502
O436  O     O_2   0.981000 0.376768 0.377902 -0.237128
O437  O     O_2   0.991878 0.341871 0.321505 -0.213348
O438  O     O_3   0.029701 0.400354 0.332465 -0.530454
H226  H     H_    0.048094 0.382453 0.341014 0.394989
S83   S     S_3+6 0.023714 0.643819 0.407283 0.103445
O439  O     O_2   0.015800 0.641367 0.367056 -0.270199
O440  O     O_2   0.043652 0.609972 0.419046 -0.153943
O441  O     O_3   0.984000 0.645957 0.430329 -0.484579
H227  H     H_    0.967207 0.659882 0.414323 0.365928
S84   S     S_3+6 0.969156 0.587589 0.639452 0.099054
O442  O     O_2   0.944861 0.577170 0.608101 -0.182938
O443  O     O_2   0.979600 0.627097 0.635450 -0.262006
O444  O     O_3   0.007011 0.561559 0.638092 -0.477513
H228  H     H_    0.027473 0.578206 0.644214 0.384504
S85   S     S_3+6 0.936828 0.720883 0.664884 0.105027
O445  O     O_2   0.940074 0.760776 0.674112 -0.277756
O446  O     O_2   0.906610 0.705112 0.687718 -0.164201
O447  O     O_3   0.976502 0.700257 0.675256 -0.484793
H229  H     H_    0.995530 0.719005 0.670809 0.363099
S86   S     S_3+6 0.094041 0.655380 0.277050 0.093932
O448  O     O_2   0.066366 0.678993 0.296054 -0.259832
O449  O     O_2   0.131309 0.662903 0.292554 -0.188698
O450  O     O_3   0.094198 0.665432 0.232173 -0.523539
H230  H     H_    0.093023 0.692405 0.230943 0.414701
S87   S     S_3+6 0.932431 0.279334 0.336180 0.126441
O451  O     O_2   0.907276 0.248221 0.326964 -0.232294
O452  O     O_2   0.920457 0.312040 0.314546 -0.198289
O453  O     O_3   0.975173 0.267851 0.323794 -0.477170
H231  H     H_    0.976347 0.240922 0.326074 0.357556
S88   S     S_3+6 0.059568 0.336927 0.714662 0.078184
O454  O     O_2   0.028591 0.328690 0.689080 -0.251058
O455  O     O_2   0.092450 0.314620 0.704437 -0.221631
O456  O     O_3   0.046954 0.325569 0.757380 -0.532743
H232  H     H_    0.040641 0.299308 0.756152 0.401720
S89   S     S_3+6 0.638238 0.582500 0.972007 0.106020
O457  O     O_2   0.630602 0.621692 0.981378 -0.254580
O458  O     O_2   0.607749 0.568533 0.948353 -0.177769
O459  O     O_3   0.639411 0.557655 0.010681 -0.475181
H233  H     H_    0.652212 0.573219 0.028733 0.366136
S90   S     S_3+6 0.589538 0.359289 0.024821 0.105998
O460  O     O_2   0.573739 0.391499 0.044692 -0.172048
O461  O     O_2   0.629740 0.365512 0.019740 -0.288897
O462  O     O_3   0.569527 0.356105 0.983632 -0.453843
H234  H     H_    0.587163 0.342637 0.968168 0.358264
S91   S     S_3+6 0.355260 0.404811 0.974913 0.103624
O463  O     O_2   0.357060 0.364510 0.982633 -0.273240
O464  O     O_2   0.389195 0.416071 0.954805 -0.154042
O465  O     O_3   0.353799 0.427680 0.014769 -0.479836
H235  H     H_    0.339799 0.411788 0.031627 0.365577
S92   S     S_3+6 0.422028 0.636368 0.034780 0.101607
O466  O     O_2   0.428989 0.606699 0.062229 -0.187182
O467  O     O_2   0.384950 0.630515 0.018198 -0.264807
O468  O     O_3   0.453965 0.633660 0.001836 -0.466731
H236  H     H_    0.442547 0.644568 0.979852 0.370594
S93   S     S_3+6 0.285244 0.663659 0.058574 0.103578
O469  O     O_2   0.248691 0.674449 0.043247 -0.254289
O470  O     O_2   0.292462 0.686447 0.091941 -0.158802
O471  O     O_3   0.317444 0.672045 0.026980 -0.482967
H237  H     H_    0.309299 0.658400 0.005087 0.367521
S94   S     S_3+6 0.343626 0.275297 0.905659 0.096807
O472  O     O_2   0.319945 0.295849 0.932165 -0.275504
O473  O     O_2   0.336246 0.289073 0.867680 -0.170091
O474  O     O_3   0.333291 0.230505 0.907401 -0.503876
H238  H     H_    0.315385 0.227886 0.927510 0.385393
S95   S     S_3+6 0.716681 0.336920 0.065355 0.115138
O475  O     O_2   0.756216 0.326763 0.060984 -0.234146
O476  O     O_2   0.701709 0.316432 0.097621 -0.173916
O477  O     O_3   0.694286 0.324422 0.027322 -0.470858
H239  H     H_    0.702514 0.341901 0.008338 0.356019
S96   S     S_3+6 0.662953 0.714013 0.940868 0.081740
O478  O     O_2   0.670911 0.686579 0.970319 -0.257631
O479  O     O_2   0.685331 0.705578 0.907508 -0.203972
O480  O     O_3   0.674458 0.755844 0.955992 -0.531680
H240  H     H_    0.700066 0.753548 0.964352 0.401150

loop_
_geom_bond_atom_site_label_1
_geom_bond_atom_site_label_2
_ccdc_geom_bond_type
C42   C425  S    
O184  Zn41  S    
C199  N14   A    
C158  C350  A    
C323  H35   S    
C111  S15   S    
C115  C488  A    
C227  N14   A    
O4    Zn4   S    
C67   C265  S    
C185  C377  A    
O133  Zn32  S    
C397  C451  A    
C22   C407  S    
S89   O459  S    
O41   Zn33  S    
C4    O53   A    
S1    O194  D    
C177  C369  A    
C205  N25   A    
C152  S56   S    
C138  C501  A    
C32   O36   A    
C402  C448  A    
C353  H65   S    
C227  N45   A    
O3    Zn3   S    
C14   O14   A    
O1    Zn1   S    
O165  Zn20  S    
C243  C291  A    
C122  C314  A    
C274  C346  A    
C132  C497  A    
O435  H225  S    
C48   O93   A    
C138  S42   S    
C160  C520  A    
C450  H114  S    
C469  H133  S    
C114  C306  A    
S20   O251  D    
O276  H172  S    
O117  Zn23  S    
O336  H192  S    
O64   Zn11  S    
C412  C461  A    
C106  C298  A    
C95   C241  S    
C157  S61   S    
O160  Zn9   S    
C436  H100  S    
S35   O297  S    
C82   C255  S    
S91   O463  D    
C364  H76   S    
O30   Zn25  S    
C37   O73   A    
S81   O435  S    
O53   Zn2   S    
C325  H37   S    
C144  C336  A    
C257  C317  A    
O456  H232  S    
O23   Zn23  S    
C399  C455  A    
C144  S48   S    
C350  H62   S    
C24   C411  S    
O309  H183  S    
C112  C483  A    
C101  C293  A    
S6    O208  D    
C289  H1    S    
C53   O148  A    
C455  H119  S    
C394  C444  A    
C278  C367  A    
C47   C422  S    
C29   O33   A    
S18   O244  D    
C171  C363  A    
C441  H105  S    
C388  C445  A    
C463  H127  S    
C411  C433  A    
S52   O347  D    
C42   O82   A    
O79   Zn40  S    
C320  H32   S    
C458  H122  S    
C201  C489  S    
C230  C518  S    
O453  H231  S    
C139  S43   S    
O2    Zn2   S    
C122  S26   S    
S21   O255  S    
C65   O113  A    
C284  C373  A    
C28   O29   A    
O178  Zn44  S    
C54   O147  A    
S86   O448  D    
C300  H12   S    
C228  N13   A    
C415  C467  A    
S76   O418  D    
C261  C330  A    
C232  C520  S    
C400  C460  A    
S18   O246  S    
C35   O46   A    
S9    O217  D    
C473  H137  S    
C37   C432  S    
C477  H141  S    
S48   O335  D    
C404  C457  A    
S23   O261  S    
C84   O141  A    
S10   O221  D    
C84   C257  S    
C430  C480  A    
S80   O430  D    
O180  Zn42  S    
O54   Zn1   S    
C387  C435  A    
C26   C394  S    
O246  H162  S    
C6    O51   A    
C156  C516  A    
C225  N46   A    
C409  C464  A    
C440  H104  S    
C21   O21   A    
C6    C415  S    
S58   O365  D    
C164  C524  A    
C282  C354  A    
C110  S14   S    
C175  C367  A    
C104  C488  A    
C91   O179  A    
C166  S70   S    
C161  S65   S    
C454  H118  S    
C135  S39   S    
C220  N48   A    
S65   O387  S    
O171  Zn37  S    
S93   O469  D    
C277  C349  A    
C479  H143  S    
C228  N40   A    
C176  C368  A    
C287  C366  A    
S95   O476  D    
S53   O349  D    
S50   O341  D    
C382  H94   S    
C25   C396  S    
S16   O238  D    
S68   O395  D    
C250  C299  A    
S69   O399  S    
C145  S49   S    
O175  Zn38  S    
C367  H79   S    
C407  C463  A    
C83   O142  A    
C149  S53   S    
C9    C420  S    
O264  H168  S    
C70   C274  S    
C391  C439  A    
C30   C389  S    
C344  H56   S    
C111  C492  A    
C57   C287  S    
S7    O213  S    
C206  C494  S    
C22   O67   A    
C63   O154  A    
C157  C349  A    
C127  S31   S    
C93   O192  A    
C169  C361  A    
S43   O320  D    
C393  C442  A    
C142  C504  A    
C23   O66   A    
S82   O437  D    
O153  Zn16  S    
O99   Zn1   S    
C257  C324  A    
C224  C512  S    
C151  C511  A    
C416  C436  A    
C427  C470  A    
C135  C504  A    
C447  H111  S    
C128  C320  A    
S84   O443  D    
C40   C431  S    
C216  C504  S    
S24   O264  S    
C27   O27   A    
S5    O206  D    
C79   O131  A    
C120  C312  A    
S42   O318  S    
C427  C477  A    
S12   O227  D    
O59   Zn16  S    
O28   Zn28  S    
C408  C452  A    
S75   O415  D    
C302  H14   S    
C359  H71   S    
C273  C345  A    
S83   O439  D    
C102  C486  A    
C453  H117  S    
C200  C488  S    
C79   O134  A    
O267  H169  S    
C423  C478  A    
O402  H214  S    
C472  H136  S    
C92   O181  A    
S44   O324  S    
S1    O195  S    
C153  C513  A    
C431  C477  A    
O49   Zn6   S    
S87   O452  D    
C129  C501  A    
O315  H185  S    
O77   Zn38  S    
C88   C251  S    
C163  C355  A    
O87   Zn44  S    
C74   C262  S    
C374  H86   S    
C168  S72   S    
O94   Zn45  S    
O71   Zn20  S    
C192  C384  A    
O417  H219  S    
C264  C327  A    
C101  S5    S    
C158  C518  A    
C126  C498  A    
C255  C315  A    
S76   O420  S    
O148  Zn5   S    
C36   O45   A    
S20   O250  D    
C424  C472  A    
S96   O479  D    
S51   O343  D    
C203  N20   A    
C166  C526  A    
C28   C395  S    
O25   Zn25  S    
O190  Zn47  S    
O6    Zn6   S    
C103  C487  A    
O426  H222  S    
S33   O289  D    
O46   Zn33  S    
C418  C467  A    
C204  N15   A    
C131  C323  A    
C464  H128  S    
C86   C250  S    
C131  C502  A    
O80   Zn39  S    
C305  H17   S    
C238  N42   A    
C132  S36   S    
C63   C283  S    
O354  H198  S    
S3    O200  D    
C83   C253  S    
C63   O111  A    
C31   O35   A    
C162  C354  A    
C313  H25   S    
C460  H124  S    
O192  Zn45  S    
S11   O223  D    
C40   O77   A    
C301  H13   S    
C248  C296  A    
C260  C331  A    
C231  C519  S    
C82   O143  A    
C86   O175  A    
C189  C381  A    
C52   O100  A    
C31   O38   A    
O144  Zn33  S    
C58   O106  A    
O183  Zn42  S    
O42   Zn34  S    
C195  C483  S    
C131  S35   S    
O50   Zn5   S    
C225  C513  S    
C177  C522  A    
C87   O171  A    
O113  Zn19  S    
O128  Zn25  S    
S92   O468  S    
C99   C291  A    
S33   O290  D    
O146  Zn7   S    
C173  C365  A    
C259  C326  A    
C229  N12   A    
C126  C318  A    
S40   O310  D    
S66   O389  D    
C137  S41   S    
C87   O174  A    
C451  H115  S    
C270  C383  A    
C78   O135  A    
C251  C301  A    
O172  Zn38  S    
C1    O56   A    
S23   O259  D    
C6    O6    A    
C35   O43   A    
C225  N16   A    
C335  H47   S    
C76   O125  A    
C429  C474  A    
S9    O218  D    
C143  S47   S    
C64   C270  S    
C315  H27   S    
C389  C437  A    
C248  C307  A    
C110  C302  A    
C203  N13   A    
O34   Zn30  S    
C59   O158  A    
C420  C434  A    
S48   O334  D    
O45   Zn34  S    
C117  C309  A    
S10   O220  D    
S26   O270  S    
C96   O189  A    
S72   O408  S    
C413  C443  A    
C209  N32   A    
C249  C306  A    
O116  Zn18  S    
S45   O327  S    
C218  N45   A    
C182  C511  A    
C112  S16   S    
C369  H81   S    
C227  C515  S    
O327  H189  S    
C175  C518  A    
C253  C322  A    
C111  C303  A    
C152  C344  A    
C250  C312  A    
C377  H89   S    
C288  C371  A    
C15   O15   A    
S58   O364  D    
O159  Zn10  S    
O108  Zn10  S    
O91   Zn47  S    
C394  C453  A    
C365  H77   S    
C291  H3    S    
C208  C496  S    
C406  C454  A    
S8    O216  S    
C54   C282  S    
S45   O325  D    
C68   O165  A    
C124  S28   S    
O318  H186  S    
C120  S24   S    
C106  C481  A    
C61   O109  A    
C468  H132  S    
S13   O229  D    
C337  H49   S    
C195  N3    A    
O109  Zn15  S    
S95   O477  S    
S53   O350  D    
C46   O95   A    
C239  C527  S    
S21   O254  D    
C163  C523  A    
C222  N3    A    
S24   O263  D    
S68   O394  D    
C345  H57   S    
O39   Zn32  S    
O24   Zn24  S    
C83   O139  A    
C465  H129  S    
C16   O57   A    
C73   C264  S    
C64   O112  A    
C467  H131  S    
C419  C466  A    
C38   O79   A    
C24   O65   A    
O138  Zn36  S    
S62   O378  S    
C93   O185  A    
C146  S50   S    
S52   O348  S    
C118  C492  A    
O312  H184  S    
S43   O321  S    
C417  C445  A    
O201  H147  S    
C101  C485  A    
C267  C339  A    
C220  N5    A    
S50   O342  S    
C136  S40   S    
C401  C453  A    
C402  C459  A    
O115  Zn17  S    
C88   O172  A    
S84   O442  D    
S60   O371  D    
C100  S4    S    
C64   O153  A    
C179  C528  A    
S30   O281  D    
S31   O284  D    
S42   O317  D    
O44   Zn36  S    
O67   Zn24  S    
O104  Zn6   S    
C96   C245  S    
S12   O226  D    
C10   O10   A    
C236  C524  S    
C266  C377  A    
C238  C526  S    
O68   Zn23  S    
C224  N47   A    
C80   C256  S    
C119  C486  A    
C120  C490  A    
C431  C475  A    
C435  H99   S    
C77   O136  A    
C165  S69   S    
S82   O438  S    
C4    O4    A    
C263  C325  A    
C217  N8    A    
C125  C497  A    
S30   O282  S    
C32   O37   A    
C100  C292  A    
O450  H230  S    
C304  H16   S    
C202  N11   A    
C219  N41   A    
C56   O145  A    
C233  N38   A    
O191  Zn46  S    
S87   O453  S    
C72   C278  S    
S60   O372  S    
O75   Zn39  S    
S56   O358  D    
C30   O34   A    
C56   C286  S    
C115  S19   S    
C130  C322  A    
C393  C451  A    
C210  N27   A    
C411  C462  A    
S36   O299  D    
S15   O235  D    
C478  H142  S    
O282  H174  S    
C139  C500  A    
C18   C409  S    
O129  Zn31  S    
S96   O478  D    
C466  H130  S    
C180  S84   S    
C161  C353  A    
C94   O186  A    
C23   C400  S    
O300  H180  S    
C198  N23   A    
C207  N29   A    
C14   C399  S    
C93   C247  S    
C240  N43   A    
C26   O31   A    
O204  H148  S    
S35   O295  D    
C174  C527  A    
C70   O163  A    
C219  N6    A    
C95   O187  A    
C284  C356  A    
C5    O5    A    
C191  S95   S    
C178  C505  A    
C236  N21   A    
C189  S93   S    
O447  H229  S    
C480  H144  S    
C214  N33   A    
S3    O201  S    
C10   C401  S    
C285  C357  A    
O399  H213  S    
C95   O190  A    
S79   O428  D    
C151  C343  A    
S58   O366  S    
C276  C365  A    
C357  H69   S    
C329  H41   S    
C94   C243  S    
O150  Zn3   S    
C140  C503  A    
C41   C427  S    
C2    O55   A    
S17   O241  D    
O163  Zn22  S    
C368  H80   S    
O58   Zn13  S    
C137  C329  A    
S40   O311  D    
S59   O368  D    
C167  C527  A    
O213  H151  S    
C10   O63   A    
C123  C315  A    
C396  C448  A    
S38   O305  D    
S33   O291  S    
C89   O177  A    
C281  C353  A    
C176  C523  A    
C403  C458  A    
C115  C307  A    
O471  H237  S    
C8    O8    A    
S66   O388  D    
C271  C374  A    
O89   Zn45  S    
C419  C441  A    
S38   O306  S    
C89   O184  A    
C107  C299  A    
O47   Zn36  S    
O375  H205  S    
S88   O455  D    
C403  C449  A    
O60   Zn15  S    
S9    O219  S    
C17   O72   A    
O237  H159  S    
O93   Zn46  S    
C62   O110  A    
O31   Zn28  S    
S55   O356  D    
C78   C260  S    
S64   O382  D    
C7    O50   A    
C292  H4    S    
C331  H43   S    
C258  C318  A    
O38   Zn29  S    
C278  C350  A    
O252  H164  S    
S80   O432  S    
C15   O58   A    
S66   O390  S    
C102  C294  A    
O7    Zn7   S    
S5    O205  D    
C234  N41   A    
C53   C277  S    
S41   O314  D    
C237  N20   A    
O29   Zn26  S    
C265  C370  A    
O249  H163  S    
O19   Zn19  S    
C178  S82   S    
C185  S89   S    
C405  C435  A    
O97   Zn3   S    
O405  H215  S    
C126  S30   S    
C19   O19   A    
S81   O434  D    
C105  C489  A    
C127  C319  A    
C39   O75   A    
O372  H204  S    
O11   Zn11  S    
O40   Zn31  S    
C410  C463  A    
C221  N4    A    
C59   C281  S    
C25   O25   A    
S45   O326  D    
C119  C311  A    
C62   C266  S    
C60   C268  S    
C330  H42   S    
C129  C321  A    
O103  Zn5   S    
O17   Zn17  S    
S63   O380  D    
C39   O78   A    
C3    O3    A    
O166  Zn19  S    
C134  C499  A    
C51   C273  S    
C90   O178  A    
C406  C462  A    
S28   O275  D    
S93   O471  S    
O408  H216  S    
S13   O230  D    
C25   O32   A    
C24   O24   A    
O381  H207  S    
C266  C338  A    
O136  Zn29  S    
C154  S58   S    
S53   O351  S    
O118  Zn24  S    
O90   Zn46  S    
O143  Zn34  S    
S71   O403  D    
S16   O240  S    
S62   O376  D    
O63   Zn12  S    
O106  Zn12  S    
C262  C323  A    
O110  Zn16  S    
C150  C510  A    
O56   Zn3   S    
S57   O362  D    
C121  S25   S    
S39   O307  D    
C380  H92   S    
C13   O60   A    
S47   O331  D    
C20   C405  S    
C421  C479  A    
S64   O383  D    
S41   O313  D    
C71   C267  S    
O69   Zn18  S    
O33   Zn29  S    
C356  H68   S    
O186  Zn48  S    
C13   O13   A    
C346  H58   S    
O468  H236  S    
C407  C439  A    
C263  C332  A    
C207  C495  S    
C104  C296  A    
C55   C275  S    
C20   O20   A    
C376  H88   S    
O92   Zn48  S    
C354  H66   S    
C175  S79   S    
O285  H175  S    
C217  C505  S    
O15   Zn15  S    
C201  N18   A    
S60   O370  D    
C79   C254  S    
O76   Zn40  S    
C456  H120  S    
C17   C404  S    
C127  C499  A    
S30   O280  D    
S31   O285  S    
O112  Zn14  S    
C152  C512  A    
S42   O316  D    
S2    O197  D    
C188  C517  A    
C1    C412  S    
C76   O124  A    
C167  C359  A    
C243  C304  A    
O188  Zn46  S    
S73   O409  D    
S87   O451  D    
C77   O129  A    
C244  C309  A    
C317  H29   S    
C236  N44   A    
S74   O414  S    
C159  C351  A    
C398  C458  A    
O18   Zn18  S    
C66   O167  A    
C233  N24   A    
C316  H28   S    
C247  C295  A    
C89   C246  S    
O222  H154  S    
C129  S33   S    
C128  S32   S    
C160  C352  A    
C294  H6    S    
C245  C293  A    
O351  H197  S    
C61   C285  S    
C123  C495  A    
C343  H55   S    
C21   C402  S    
C193  C481  S    
C256  C316  A    
C235  C523  S    
C207  N27   A    
C267  C376  A    
C109  S13   S    
S36   O298  D    
C221  C509  S    
C44   C421  S    
C135  C327  A    
C67   O166  A    
C110  C487  A    
C114  S18   S    
S20   O252  S    
C12   O61   A    
C194  N2    A    
C221  N44   A    
C386  C443  A    
C119  S23   S    
S27   O272  D    
C231  N10   A    
C47   O91   A    
C307  H19   S    
O480  H240  S    
C68   C276  S    
C51   O150  A    
C33   O41   A    
C147  C507  A    
C388  C436  A    
O255  H165  S    
C77   C258  S    
C168  C528  A    
O78   Zn37  S    
O5    Zn5   S    
C47   O94   A    
C235  N22   A    
C21   O68   A    
O74   Zn38  S    
C448  H112  S    
C235  N37   A    
C60   O157  A    
C33   O48   A    
S50   O340  D    
O279  H173  S    
C206  N33   A    
S79   O429  S    
C72   O120  A    
C260  C320  A    
C118  C310  A    
O134  Zn31  S    
C339  H51   S    
S17   O242  D    
C104  S8    S    
C141  C333  A    
O142  Zn35  S    
S77   O421  D    
C442  H106  S    
C18   O71   A    
S59   O369  S    
C42   O87   A    
S4    O203  D    
C230  N11   A    
C452  H116  S    
S38   O304  D    
C358  H70   S    
C71   O162  A    
S78   O425  D    
C148  S52   S    
C4    C413  S    
C193  N10   A    
O8    Zn8   S    
C80   O133  A    
C238  N19   A    
O127  Zn26  S    
C141  C496  A    
C142  C334  A    
S78   O426  S    
O154  Zn15  S    
S88   O454  D    
C193  N1    A    
O95   Zn48  S    
C200  N19   A    
C232  N9    A    
O123  Zn25  S    
S55   O357  S    
S71   O404  D    
O121  Zn27  S    
C108  S12   S    
C385  C454  A    
C222  N46   A    
S48   O336  S    
O169  Zn39  S    
C103  S7    S    
C439  H103  S    
O378  H206  S    
C390  C441  A    
C122  C494  A    
S22   O257  D    
C308  H20   S    
C363  H75   S    
C314  H26   S    
C408  C464  A    
C281  C362  A    
S46   O329  D    
C230  N38   A    
C416  C468  A    
C75   O126  A    
C318  H30   S    
C405  C461  A    
C85   O176  A    
O156  Zn13  S    
C179  S83   S    
C99   C483  A    
C11   C414  S    
S22   O258  S    
C287  C359  A    
C205  C493  S    
C172  C364  A    
S46   O330  S    
O105  Zn11  S    
C420  C465  A    
C39   C429  S    
C226  C514  S    
S32   O287  D    
O51   Zn8   S    
C13   C418  S    
O207  H149  S    
C46   C424  S    
S85   O445  D    
C51   O99   A    
O130  Zn32  S    
S85   O447  S    
O62   Zn9   S    
C124  C496  A    
C57   O160  A    
C5    C410  S    
C11   O11   A    
C14   O59   A    
C271  C343  A    
C400  C444  A    
S63   O381  S    
C132  C324  A    
C425  C472  A    
O225  H155  S    
C163  S67   S    
S28   O274  D    
O187  Zn45  S    
C142  S46   S    
S13   O231  S    
C241  C298  A    
C259  C319  A    
S93   O470  D    
C282  C369  A    
C50   O151  A    
O474  H238  S    
O234  H158  S    
O57   Zn14  S    
S68   O396  S    
O139  Zn33  S    
C114  C489  A    
C97   C289  A    
C462  H126  S    
C52   O149  A    
S25   O266  D    
C130  S34   S    
C241  C289  A    
C58   O159  A    
C295  H7    S    
O83   Zn43  S    
C113  S17   S    
O324  H188  S    
C272  C344  A    
C303  H15   S    
C162  C522  A    
C117  S21   S    
O459  H233  S    
C71   O119  A    
C88   O173  A    
S19   O248  D    
S67   O392  D    
C188  S92   S    
S43   O319  D    
C139  C331  A    
C69   O117  A    
C396  C455  A    
C397  C457  A    
C215  N32   A    
C389  C452  A    
S67   O393  S    
O333  H191  S    
S84   O444  S    
C410  C456  A    
O157  Zn12  S    
C55   O103  A    
C99   S3    S    
O297  H179  S    
C105  S9    S    
C240  N17   A    
C332  H44   S    
C285  C364  A    
S2    O196  D    
C53   O101  A    
S12   O228  S    
C164  S68   S    
S61   O373  D    
C264  C334  A    
S73   O410  D    
C205  N30   A    
C211  N31   A    
O363  H201  S    
C50   O98   A    
C215  N36   A    
O147  Zn6   S    
S74   O413  D    
C352  H64   S    
C30   O39   A    
C224  N1    A    
C136  C495  A    
C237  C525  S    
S57   O361  D    
C211  N26   A    
C200  N8    A    
S62   O377  D    
C22   O22   A    
S56   O360  S    
C286  C358  A    
S2    O198  S    
C424  C476  A    
C336  H48   S    
O140  Zn34  S    
C146  C506  A    
C204  N22   A    
C94   O191  A    
O179  Zn41  S    
C310  H22   S    
C283  C368  A    
C432  C473  A    
C180  C372  A    
C370  H82   S    
C149  C341  A    
C387  C450  A    
C209  C497  S    
O303  H181  S    
C134  C326  A    
C137  C494  A    
O135  Zn30  S    
C185  C506  A    
O393  H211  S    
S96   O480  S    
C161  C521  A    
O387  H209  S    
S91   O464  D    
S70   O401  D    
S27   O273  S    
C81   O137  A    
O177  Zn43  S    
C164  C356  A    
C183  C526  A    
S37   O301  D    
C170  C521  A    
C245  C300  A    
S25   O265  D    
C422  C475  A    
O291  H177  S    
C279  C351  A    
C140  C332  A    
C148  C508  A    
C118  S22   S    
C107  C490  A    
S70   O402  S    
C43   O86   A    
C81   O144  A    
C7    O7    A    
O151  Zn2   S    
C265  C337  A    
C399  C459  A    
S3    O199  D    
C160  S64   S    
O396  H212  S    
S29   O277  D    
S54   O353  D    
C280  C352  A    
C202  C490  S    
O36   Zn32  S    
C404  C442  A    
C45   C428  S    
S17   O243  S    
O219  H153  S    
C253  C313  A    
S77   O422  D    
O96   Zn47  S    
C445  H109  S    
C17   O17   A    
O141  Zn36  S    
O288  H176  S    
S4    O202  D    
S54   O354  S    
C433  H97   S    
C180  C509  A    
C475  H139  S    
C140  S44   S    
O9    Zn9   S    
C349  H61   S    
S29   O278  D    
S78   O424  D    
C212  C500  S    
C216  N30   A    
C390  C438  A    
O132  Zn30  S    
C341  H53   S    
O66   Zn21  S    
C116  C308  A    
C1    O1    A    
S55   O355  D    
C202  N24   A    
C159  C519  A    
O429  H223  S    
C84   O140  A    
S90   O462  S    
C98   C482  A    
C196  C484  S    
C69   O164  A    
C384  H96   S    
C306  H18   S    
C209  N28   A    
C35   C386  S    
C192  C515  A    
C255  C328  A    
S71   O405  S    
O114  Zn20  S    
C280  C363  A    
C216  N35   A    
C189  C508  A    
C261  C321  A    
C8    O49   A    
C443  H107  S    
O306  H182  S    
C208  N36   A    
C338  H50   S    
C430  C476  A    
S22   O256  D    
C109  C491  A    
S46   O328  D    
S5    O207  S    
C75   O123  A    
S82   O436  D    
O152  Zn1   S    
C324  H36   S    
C179  C371  A    
O176  Zn37  S    
O37   Zn30  S    
C85   O169  A    
O86   Zn41  S    
C334  H46   S    
C195  N16   A    
C239  N39   A    
C184  S88   S    
C355  H67   S    
C322  H34   S    
O342  H194  S    
O125  Zn28  S    
S32   O286  D    
C182  C374  A    
C191  C510  A    
C69   C269  S    
C273  C378  A    
C296  H8    S    
S49   O337  D    
C151  S55   S    
C395  C449  A    
C319  H31   S    
O330  H190  S    
O10   Zn10  S    
C181  C524  A    
C143  C498  A    
C166  C358  A    
O88   Zn43  S    
C138  C330  A    
C155  S59   S    
O210  H150  S    
C49   O97   A    
O65   Zn22  S    
C425  C480  A    
C121  C313  A    
O240  H160  S    
C45   O96   A    
C192  S96   S    
O158  Zn11  S    
C362  H74   S    
C244  C292  A    
C191  C383  A    
S59   O367  D    
C251  C308  A    
C36   C390  S    
C113  C305  A    
S95   O475  D    
C176  S80   S    
C311  H23   S    
C426  C473  A    
C222  C510  S    
C15   C416  S    
O12   Zn12  S    
C183  C375  A    
O231  H157  S    
S19   O249  S    
O189  Zn48  S    
C105  C297  A    
O73   Zn37  S    
C116  S20   S    
S94   O473  D    
C437  H101  S    
C134  S38   S    
C7    C408  S    
C133  S37   S    
C444  H108  S    
C268  C381  A    
C385  C433  A    
C5    O52   A    
S75   O416  D    
C54   O102  A    
C130  C493  A    
C206  N26   A    
S83   O440  D    
S94   O474  S    
C156  S60   S    
O85   Zn42  S    
C242  C305  A    
C333  H45   S    
C381  H93   S    
C34   O42   A    
C252  C303  A    
C199  N7    A    
S34   O293  D    
C184  C376  A    
S89   O457  D    
C27   C393  S    
C321  H33   S    
O168  Zn17  S    
S41   O315  S    
C457  H121  S    
C125  S29   S    
C92   O180  A    
C76   C263  S    
S44   O323  D    
C43   C423  S    
C44   O85   A    
S61   O374  D    
C247  C302  A    
S73   O411  S    
C16   O16   A    
C182  S86   S    
C269  C341  A    
O155  Zn14  S    
C12   C397  S    
C360  H72   S    
S15   O236  D    
C61   O156  A    
S74   O412  D    
S90   O461  D    
O120  Zn22  S    
C60   O108  A    
O35   Zn31  S    
C383  H95   S    
C168  C360  A    
C277  C380  A    
C208  N28   A    
C68   O116  A    
C92   C244  S    
C372  H84   S    
C32   C385  S    
C36   O44   A    
C186  S90   S    
C65   C271  S    
O61   Zn10  S    
S51   O344  D    
C269  C372  A    
C201  N9    A    
C366  H78   S    
C184  C507  A    
C85   C252  S    
C204  C492  S    
O111  Zn13  S    
C446  H110  S    
C62   O155  A    
O438  H226  S    
C48   O92   A    
C326  H38   S    
S36   O300  S    
C293  H5    S    
C252  C310  A    
C375  H87   S    
S91   O465  S    
O161  Zn24  S    
S81   O433  D    
O107  Zn9   S    
C290  H2    S    
S70   O400  D    
C133  C503  A    
C173  S77   S    
C19   C398  S    
C74   O127  A    
S37   O302  D    
C351  H63   S    
C169  C514  A    
C210  N34   A    
C286  C375  A    
C162  S66   S    
C58   C272  S    
C275  C384  A    
O43   Zn35  S    
O82   Zn42  S    
C3    C406  S    
S26   O269  D    
C258  C335  A    
C386  C434  A    
O181  Zn44  S    
C167  S71   S    
S11   O224  D    
C43   O83   A    
C228  C516  S    
C44   O84   A    
C82   O138  A    
O20   Zn20  S    
C33   C392  S    
C214  N31   A    
O167  Zn18  S    
C65   O168  A    
C231  N47   A    
C198  N6    A    
C81   C259  S    
S54   O352  D    
C212  N35   A    
C20   O69   A    
S92   O467  D    
C170  S74   S    
C177  S81   S    
C147  S51   S    
C187  C512  A    
C233  C521  S    
C246  C294  A    
O84   Zn44  S    
C239  N18   A    
C97   C481  A    
O360  H200  S    
C155  C347  A    
S21   O253  D    
C52   C284  S    
O444  H228  S    
C49   O152  A    
C212  N25   A    
C147  C339  A    
C196  N4    A    
C186  C378  A    
O72   Zn19  S    
C57   O105  A    
C150  S54   S    
C428  C469  A    
C429  C479  A    
O411  H217  S    
O55   Zn4   S    
C190  S94   S    
C223  N2    A    
C9    O9    A    
O70   Zn17  S    
O100  Zn2   S    
C434  H98   S    
C229  N48   A    
S88   O456  S    
S72   O407  D    
C34   C388  S    
C219  C507  S    
C170  C362  A    
C2    C417  S    
O126  Zn27  S    
C112  C304  A    
O137  Zn35  S    
O441  H227  S    
C275  C347  A    
C98   S2    S    
O348  H196  S    
C211  C499  S    
O243  H161  S    
C49   C279  S    
O81   Zn41  S    
C414  C466  A    
C75   C261  S    
C203  C491  S    
O345  H195  S    
C154  C346  A    
C155  C515  A    
C157  C517  A    
S8    O215  D    
O228  H156  S    
S47   O332  D    
C471  H135  S    
C418  C440  A    
C276  C348  A    
C171  S75   S    
C340  H52   S    
C48   C426  S    
C146  C338  A    
C272  C379  A    
C297  H9    S    
C197  N5    A    
C234  N23   A    
C256  C333  A    
C268  C340  A    
S65   O385  D    
C73   O121  A    
C178  C370  A    
C172  C525  A    
S49   O338  D    
C8    C419  S    
C198  C486  S    
C29   O40   A    
C312  H24   S    
C148  C340  A    
S69   O397  D    
O173  Zn40  S    
O13   Zn13  S    
C90   O183  A    
C113  C482  A    
S28   O276  S    
C73   O128  A    
O366  H202  S    
C171  C520  A    
C3    O54   A    
C213  N34   A    
C223  C511  S    
C133  C325  A    
C426  C471  A    
C143  C335  A    
C45   O89   A    
S14   O233  D    
S39   O308  D    
C215  C503  S    
C144  C502  A    
C262  C336  A    
C414  C438  A    
C159  S63   S    
O477  H239  S    
C422  C470  A    
S64   O384  S    
C299  H11   S    
C461  H125  S    
O22   Zn22  S    
S14   O234  S    
C327  H39   S    
S24   O262  D    
S94   O472  D    
O98   Zn4   S    
C87   C249  S    
C199  C487  S    
O432  H224  S    
S16   O239  D    
S67   O391  D    
C103  C295  A    
C154  C514  A    
S75   O417  S    
S69   O398  D    
C274  C361  A    
C145  C505  A    
S83   O441  S    
C107  S11   S    
C109  C301  A    
C11   O62   A    
C361  H73   S    
C108  C485  A    
C470  H134  S    
S34   O292  D    
S89   O458  D    
C19   O70   A    
S44   O322  D    
S1    O193  D    
S61   O375  S    
O321  H187  S    
C183  S87   S    
C169  S73   S    
S15   O237  S    
O21   Zn21  S    
S31   O283  D    
O149  Zn4   S    
S90   O460  D    
S77   O423  S    
O198  H146  S    
S7    O211  D    
C423  C471  A    
O162  Zn23  S    
O14   Zn14  S    
O258  H166  S    
S57   O363  S    
C226  N15   A    
O26   Zn26  S    
C283  C355  A    
C432  C478  A    
C165  C525  A    
C98   C290  A    
C128  C500  A    
C121  C493  A    
C242  C290  A    
S34   O294  S    
C190  C382  A    
S51   O345  S    
C125  C317  A    
C18   O18   A    
C298  H10   S    
C90   C248  S    
C371  H83   S    
O273  H171  S    
C229  C517  S    
O122  Zn28  S    
C26   O26   A    
O170  Zn40  S    
O420  H220  S    
O48   Zn35  S    
S35   O296  D    
C342  H54   S    
C379  H91   S    
C55   O146  A    
C309  H21   S    
O16   Zn16  S    
C417  C468  A    
C181  C373  A    
C2    O2    A    
C223  N43   A    
S27   O271  D    
C412  C450  A    
C270  C342  A    
C214  C502  S    
S37   O303  S    
C188  C380  A    
C102  S6    S    
S25   O267  S    
C165  C357  A    
C59   O107  A    
S26   O268  D    
S6    O209  D    
C91   C242  S    
S11   O225  S    
O261  H167  S    
O124  Zn26  S    
C28   O28   A    
C67   O115  A    
C438  H102  S    
C141  S45   S    
O131  Zn29  S    
C106  S10   S    
C194  N17   A    
S18   O245  D    
C196  N21   A    
C234  C522  S    
C186  C513  A    
C149  C509  A    
C428  C474  A    
O339  H193  S    
S6    O210  S    
O462  H234  S    
S29   O279  S    
O52   Zn7   S    
C172  S76   S    
C40   O76   A    
C50   C288  S    
C347  H59   S    
S92   O466  D    
C86   O170  A    
O465  H235  S    
C41   O81   A    
O294  H178  S    
C70   O118  A    
S79   O427  D    
C156  C348  A    
O27   Zn27  S    
O423  H221  S    
C218  C506  S    
S86   O449  D    
S4    O204  S    
S76   O419  D    
C194  C482  S    
O369  H203  S    
C41   O88   A    
C210  C498  S    
C173  C516  A    
O119  Zn21  S    
C34   O47   A    
C226  N37   A    
S86   O450  S    
C190  C519  A    
C249  C297  A    
C413  C465  A    
C474  H138  S    
C78   O130  A    
C153  C345  A    
C395  C446  A    
C187  S91   S    
S23   O260  D    
C246  C311  A    
C213  C501  S    
S10   O222  S    
C373  H85   S    
S72   O406  D    
C29   C391  S    
S80   O431  D    
C145  C337  A    
C220  C508  S    
C150  C342  A    
C398  C446  A    
C158  S62   S    
C124  C316  A    
C237  N40   A    
C56   O104  A    
C378  H90   S    
O185  Zn47  S    
C66   O114  A    
C96   O188  A    
C66   C280  S    
C197  C485  S    
C218  N7    A    
C74   O122  A    
O390  H210  S    
C153  S57   S    
C476  H140  S    
O174  Zn39  S    
C91   O182  A    
C116  C491  A    
S8    O214  D    
C174  S78   S    
S47   O333  S    
C108  C300  A    
C254  C329  A    
C392  C447  A    
C213  N29   A    
C415  C447  A    
C254  C314  A    
C391  C456  A    
O102  Zn8   S    
O414  H218  S    
S32   O288  S    
C181  S85   S    
S65   O386  D    
C117  C484  A    
C348  H60   S    
C80   O132  A    
S49   O339  S    
C392  C440  A    
C288  C360  A    
C217  N42   A    
C459  H123  S    
C123  S27   S    
C16   C403  S    
C421  C469  A    
C9    O64   A    
C409  C437  A    
O357  H199  S    
C279  C382  A    
C37   O80   A    
O164  Zn21  S    
C38   C430  S    
O384  H208  S    
O216  H152  S    
C328  H40   S    
O101  Zn7   S    
C97   S1    S    
C100  C484  A    
C31   C387  S    
O182  Zn43  S    
C46   O90   A    
S56   O359  D    
O195  H145  S    
C197  N12   A    
C401  C460  A    
S63   O379  D    
S7    O212  D    
S52   O346  D    
S14   O232  D    
S39   O309  S    
C187  C379  A    
C240  C528  S    
S40   O312  S    
O145  Zn8   S    
C12   O12   A    
S85   O446  D    
C174  C366  A    
C232  N39   A    
O32   Zn27  S    
C136  C328  A    
C38   O74   A    
C449  H113  S    
O270  H170  S    
S19   O247  D    
C72   O161  A    
C23   O23   A    
C27   O30   A    
