data_mof_unit_8729.cif
_audit_creation_date              2012-12-11T15:11:48-0500
_audit_creation_method            fapswitch 2.2
_symmetry_space_group_name_H-M    P1
_symmetry_Int_Tables_number       1
_space_group_crystal_system       triclinic
_cell_length_a                    20.370856
_cell_length_b                    7.195999
_cell_length_c                    13.420234
_cell_angle_alpha                 89.999866
_cell_angle_beta                  103.972796
_cell_angle_gamma                 89.999777
_cell_volume                      1909.04400857

loop_
_atom_site_label
_atom_site_type_symbol
_atom_type_description
_atom_site_fract_x
_atom_site_fract_y
_atom_site_fract_z
_atom_type_partial_charge
O1    O     O_R   0.449830 0.506740 0.599960 -0.546329
O2    O     O_R   0.550170 0.006740 0.400040 -0.546323
O3    O     O_R   0.588980 0.179860 0.596720 -0.533134
O4    O     O_R   0.411020 0.679860 0.403280 -0.533137
C1    C     C_R   0.614010 0.343101 0.624475 0.748032
C2    C     C_R   0.385992 0.843103 0.375523 0.747961
O5    O     O_R   0.452740 0.177340 0.612040 -0.504204
O6    O     O_R   0.547260 0.677340 0.387960 -0.504196
O7    O     O_R   0.412960 0.002070 0.415460 -0.508781
O8    O     O_R   0.587040 0.502070 0.584540 -0.508798
C3    C     C_R   0.435527 0.344958 0.637871 0.728105
C4    C     C_R   0.564472 0.844958 0.362128 0.728087
O9    O     O_3   0.487110 0.337570 0.435490 -0.347739
O10   O     O_3   0.512890 0.837570 0.564510 -0.347759
V1    V     V_3+5 0.502390 0.064650 0.511970 1.657643
V2    V     V_3+5 0.497610 0.564650 0.488030 1.657637
C5    C     C_R   0.615334 0.844861 0.107784 -0.135615
C6    C     C_R   0.384663 0.344840 0.892215 -0.135587
H1    H     H_    0.697313 0.883721 0.985337 0.148139
H2    H     H_    0.302682 0.383631 0.014663 0.148125
H3    H     H_    0.591712 0.835116 0.026259 0.155006
H4    H     H_    0.408285 0.335092 0.973740 0.154981
C7    C     C_R   0.605329 0.849388 0.284016 -0.102515
C8    C     C_R   0.394669 0.349387 0.715982 -0.102550
C9    C     C_R   0.935543 0.908324 0.323940 -0.044545
C10   C     C_R   0.064456 0.408368 0.676060 -0.044548
C11   C     C_R   0.901079 0.894257 0.401045 -0.208349
C12   C     C_R   0.098919 0.394300 0.598955 -0.208270
C13   C     C_R   0.831912 0.856469 0.379300 0.002345
C14   C     C_R   0.168084 0.356479 0.620696 0.002410
C15   C     C_R   0.792004 0.861765 0.275909 0.003807
C16   C     C_R   0.207992 0.361747 0.724088 0.003778
C17   C     C_R   0.828290 0.867074 0.196514 0.043517
C18   C     C_R   0.171706 0.367047 0.803484 0.043515
C19   C     C_R   0.718726 0.860764 0.246522 0.062916
C20   C     C_R   0.281270 0.360737 0.753475 0.062907
C21   C     C_R   0.685698 0.860081 0.140368 0.129125
C22   C     C_R   0.314298 0.360039 0.859630 0.129141
C23   C     C_R   0.722661 0.872843 0.065950 -0.121970
C24   C     C_R   0.277334 0.372775 0.934049 -0.121976
C25   C     C_R   0.792378 0.872577 0.093022 -0.188624
C26   C     C_R   0.207618 0.372519 0.906976 -0.188631
C27   C     C_R   0.676267 0.869931 0.316521 -0.199539
C28   C     C_R   0.323730 0.369915 0.683475 -0.199546
C29   C     C_R   0.575305 0.827998 0.178284 -0.026555
C30   C     C_R   0.424693 0.328006 0.821715 -0.026516
C31   C     C_R   0.900230 0.873261 0.221357 -0.094245
C32   C     C_R   0.099767 0.373263 0.778640 -0.094249
H5    H     H_    0.696293 0.895251 0.396446 0.153088
H6    H     H_    0.303702 0.395240 0.603545 0.153122
H7    H     H_    0.929612 0.900506 0.480629 0.148077
H8    H     H_    0.070386 0.400572 0.519371 0.148072
H9    H     H_    0.817883 0.880318 0.031162 0.097144
H10   H     H_    0.182113 0.380251 0.968837 0.097141
C33   C     C_3   0.231686 0.716947 0.141724 -0.381888
C34   C     C_3   0.768307 0.217003 0.858300 -0.381879
H11   H     H_    0.206290 0.579770 0.127039 0.168492
H12   H     H_    0.793699 0.079824 0.873013 0.168474
H13   H     H_    0.235539 0.766182 0.064685 0.167289
H14   H     H_    0.764453 0.266294 0.935328 0.167297
C35   C     C_3   0.304468 0.699028 0.212558 -0.142754
C36   C     C_3   0.695525 0.199072 0.787464 -0.142745
H15   H     H_    0.340999 0.727198 0.165171 0.152791
H16   H     H_    0.658993 0.227285 0.834844 0.152783
H17   H     H_    0.270291 0.640973 0.388115 0.113408
H18   H     H_    0.729707 0.140883 0.611924 0.113459
C37   C     C_3   0.187654 0.810575 0.300125 -0.183603
C38   C     C_3   0.812349 0.310499 0.699888 -0.183686
C39   C     C_3   0.223530 0.049497 0.189640 -0.400775
C40   C     C_3   0.776478 0.549516 0.810323 -0.400729
C41   C     C_3   0.187736 0.857643 0.186005 0.016087
C42   C     C_3   0.812264 0.357645 0.813996 0.016085
H19   H     H_    0.197569 0.152732 0.228279 0.161520
H20   H     H_    0.802441 0.652695 0.771658 0.161573
H21   H     H_    0.217539 0.104155 0.110502 0.180209
H22   H     H_    0.782474 0.604241 0.889448 0.180213
C43   C     C_3   0.314787 0.843468 0.303590 -0.041070
C44   C     C_3   0.685214 0.343464 0.696410 -0.041005
C45   C     C_3   0.261655 0.789293 0.366696 -0.214922
C46   C     C_3   0.738348 0.289212 0.633317 -0.214965
C47   C     C_3   0.299334 0.036685 0.249838 -0.151705
C48   C     C_3   0.700673 0.536705 0.750132 -0.151747
H23   H     H_    0.308075 0.143316 0.310850 0.153624
H24   H     H_    0.691932 0.643317 0.689108 0.153540
H25   H     H_    0.164670 0.932071 0.330318 0.169318
H26   H     H_    0.835337 0.431960 0.669669 0.169321
O11   O     O_R   0.912980 0.203550 0.915410 -0.534939
O12   O     O_R   0.087020 0.703550 0.084590 -0.534892
O13   O     O_R   0.047270 0.535570 0.887960 -0.522434
O14   O     O_R   0.952730 0.035570 0.112040 -0.522436
C49   C     C_R   0.062716 0.369970 0.860648 0.753362
C50   C     C_R   0.937282 0.869970 0.139349 0.753316
O15   O     O_R   0.911030 0.532970 0.903270 -0.535021
O16   O     O_R   0.088970 0.032970 0.096730 -0.535023
O17   O     O_R   0.949820 0.708150 0.099970 -0.545310
O18   O     O_R   0.050180 0.208150 0.900030 -0.545298
C51   C     C_R   0.883917 0.365256 0.882738 0.711403
C52   C     C_R   0.116082 0.865255 0.117265 0.711457
O19   O     O_3   0.012900 0.375230 0.064480 -0.374216
O20   O     O_3   0.987100 0.875230 0.935520 -0.374229
V3    V     V_3+5 0.997610 0.648190 0.988040 1.502945
V4    V     V_3+5 0.002390 0.148190 0.011960 1.502941
C53   C     C_2   0.503804 0.774884 0.137885 0.745048
O21   O     O_2   0.470143 0.849039 0.060179 -0.550113
O22   O     O_R   0.477085 0.626471 0.181984 -0.634999
H27   H     H_    0.433216 0.580376 0.135869 0.308219
C54   C     C_2   0.496197 0.274932 0.862118 0.745015
O23   O     O_2   0.529856 0.349145 0.939805 -0.550130
O24   O     O_R   0.522919 0.126487 0.818049 -0.634985
H28   H     H_    0.566789 0.080423 0.864177 0.308219
C55   C     C_2   0.316844 0.502703 0.248047 0.321983
H29   H     H_    0.276467 0.423656 0.266957 0.067883
O25   O     O_2   0.372743 0.434567 0.258992 -0.508860
C56   C     C_2   0.683142 0.002732 0.752007 0.321920
H30   H     H_    0.723521 0.923633 0.733137 0.067992
O26   O     O_2   0.627234 0.934641 0.741038 -0.508844
C57   C     C_2   0.144310 0.644386 0.311987 0.794593
O27   O     O_2   0.108668 0.651588 0.373212 -0.562135
O28   O     O_R   0.145497 0.482334 0.255222 -0.678408
H31   H     H_    0.113362 0.383803 0.269462 0.313746
C58   C     C_2   0.855693 0.144277 0.688081 0.794629
O29   O     O_2   0.891443 0.151525 0.627001 -0.562145
O30   O     O_R   0.854404 0.982167 0.744763 -0.678483
H32   H     H_    0.886563 0.883632 0.730594 0.313751
C59   C     C_2   0.347774 0.073734 0.180306 0.780192
O31   O     O_2   0.328056 0.064347 0.086882 -0.568032
O32   O     O_R   0.416426 0.105687 0.223809 -0.632282
H33   H     H_    0.442839 0.134606 0.170657 0.317095
C60   C     C_2   0.652237 0.573797 0.819668 0.780197
O33   O     O_2   0.671963 0.564473 0.913093 -0.568049
O34   O     O_R   0.583583 0.605707 0.776170 -0.632281
H34   H     H_    0.557173 0.634656 0.829323 0.317133
C61   C     C_2   0.271416 0.879493 0.470830 0.372046
H35   H     H_    0.249322 0.813455 0.527802 0.120409
O35   O     O_2   0.303860 0.022282 0.493393 -0.539400
C62   C     C_2   0.728596 0.379354 0.529169 0.372032
H36   H     H_    0.750717 0.313313 0.472228 0.120392
O36   O     O_2   0.696133 0.522106 0.506562 -0.539365
C63   C     C_2   0.008478 0.957392 0.356484 0.391125
H37   H     H_    0.035052 0.944397 0.436713 0.105111
O37   O     O_2   0.039195 0.020385 0.296618 -0.546077
C64   C     C_2   0.991524 0.457478 0.643518 0.391327
H38   H     H_    0.964949 0.444509 0.563288 0.105002
O38   O     O_2   0.960809 0.520471 0.703388 -0.546047
C65   C     C_2   0.811989 0.762178 0.463922 0.784573
O39   O     O_2   0.826713 0.598495 0.478519 -0.562304
O40   O     O_R   0.787516 0.862903 0.536051 -0.678654
H39   H     H_    0.779132 0.781802 0.593384 0.302516
C66   C     C_2   0.187998 0.262184 0.536070 0.784613
O41   O     O_2   0.173263 0.098512 0.521469 -0.562308
O42   O     O_R   0.212469 0.362900 0.463937 -0.678595
H40   H     H_    0.220823 0.281810 0.406583 0.302507

loop_
_geom_bond_atom_site_label_1
_geom_bond_atom_site_label_2
_ccdc_geom_bond_type
C38   C46   S    
C22   C24   A    
C7    C29   A    
C33   H13   S    
C11   C13   A    
C38   H26   S    
C31   C50   S    
O40   H39   S    
O1    C3    A    
O2    C4    A    
C2    O7    A    
O12   V3    S    
C66   O41   D    
O30   H32   S    
C23   C25   A    
O5    C3    A    
C4    C7    S    
H17   C45   S    
C16   C20   A    
C9    C63   S    
C5    C29   A    
C36   C56   S    
O18   V4    S    
C66   O42   S    
C13   C65   S    
H2    C24   S    
C44   C46   S    
O16   C52   A    
C3    C8    S    
C7    C27   A    
C35   H15   S    
C39   C41   S    
O14   V4    S    
C36   H16   S    
C29   C53   S    
C47   H23   S    
C49   O18   A    
C55   O25   D    
C55   H29   S    
C35   C43   S    
C34   C42   S    
C32   C49   S    
C18   C26   A    
C40   H20   S    
O42   H40   S    
C15   C17   A    
C39   H19   S    
O13   C49   A    
C19   C27   A    
C9    C31   A    
C37   C41   S    
C38   C42   S    
C47   C59   S    
C24   C26   A    
O6    V2    S    
C54   O24   S    
C6    C30   A    
C65   O40   S    
C11   H7    S    
C56   H30   S    
C42   C51   S    
C43   C45   S    
C45   C61   S    
C41   C52   S    
C37   H25   S    
C37   C45   S    
C62   O36   D    
O15   V3    S    
C27   H5    S    
C2    C43   S    
O5    V1    S    
O3    C1    A    
C50   O17   A    
C5    H3    S    
C34   H14   S    
C16   C18   A    
O4    V2    S    
O11   V4    S    
C44   C48   S    
O14   C50   A    
O10   V1    S    
C43   C47   S    
O6    C4    A    
C30   C54   S    
O20   V4    S    
C53   O22   S    
O1    V2    S    
C5    C21   A    
C48   C60   S    
O2    V1    S    
C37   C57   S    
C25   H9    S    
C58   O29   D    
H1    C23   S    
O4    C2    A    
O19   V3    S    
C48   H24   S    
C33   H11   S    
C40   H22   S    
C59   O31   D    
C17   C31   A    
C34   C36   S    
C20   C28   A    
C18   C32   A    
C54   O23   D    
O34   H34   S    
C35   C55   S    
O15   C51   A    
C65   O39   D    
C64   O38   D    
O3    V1    S    
C19   C21   A    
C59   O32   S    
C60   O33   D    
C28   H6    S    
O13   V3    S    
C6    H4    S    
C36   C44   S    
C62   H36   S    
C14   C66   S    
C38   C58   S    
C56   O26   D    
C63   H37   S    
C12   H8    S    
C10   C32   A    
C9    C11   A    
H18   C46   S    
O22   H27   S    
C10   C12   A    
C46   C62   S    
C8    C30   A    
C57   O28   S    
C6    C22   A    
C17   C25   A    
C1    O8    A    
C13   C15   A    
O8    V2    S    
C57   O27   D    
C26   H10   S    
C20   C22   A    
C14   C16   A    
C63   O37   D    
C61   H35   S    
C8    C28   A    
C33   C35   S    
C12   C14   A    
O20   V3    S    
C34   H12   S    
C39   H21   S    
C15   C19   A    
O7    V1    S    
C40   C48   S    
O12   C52   A    
C58   O30   S    
C39   C47   S    
O17   V3    S    
O19   V4    S    
O16   V4    S    
C21   C23   A    
O28   H31   S    
O9    V2    S    
O24   H28   S    
C53   O21   D    
C61   O35   D    
C64   H38   S    
C40   C42   S    
O11   C51   A    
C1    C44   S    
C10   C64   S    
C33   C41   S    
O32   H33   S    
C60   O34   S    
