data_mof_unit_54485.cif
_audit_creation_date              2012-12-10T20:55:01-0500
_audit_creation_method            fapswitch 2.2
_symmetry_space_group_name_H-M    P1
_symmetry_Int_Tables_number       1
_space_group_crystal_system       triclinic
_cell_length_a                    15.824932
_cell_length_b                    15.044758
_cell_length_c                    10.706714
_cell_angle_alpha                 90.672397
_cell_angle_beta                  89.948821
_cell_angle_gamma                 90.021638
_cell_volume                      2548.90207806

loop_
_atom_site_label
_atom_site_type_symbol
_atom_type_description
_atom_site_fract_x
_atom_site_fract_y
_atom_site_fract_z
_atom_type_partial_charge
C1    C     C_R   0.338776 0.499979 0.499647 0.895657
C2    C     C_R   0.661200 0.500069 0.500032 0.899321
C3    C     C_R   0.956774 0.434503 0.527645 -0.190798
C4    C     C_R   0.043592 0.433242 0.523956 -0.172292
C5    C     C_1   0.824383 0.504051 0.489926 0.119103
C6    C     C_1   0.175917 0.501327 0.479817 0.132587
C7    C     C_1   0.250538 0.500129 0.490149 -0.051725
C8    C     C_1   0.749581 0.500899 0.495317 -0.063972
C9    C     C_R   0.424218 0.952517 0.507375 -0.172951
C10   C     C_R   0.576213 0.952399 0.492116 -0.119864
C11   C     C_R   0.500197 0.904800 0.499772 -0.035805
C12   C     C_R   0.577006 0.046394 0.491422 0.436125
C13   C     C_R   0.423446 0.046487 0.508215 0.339887
C14   C     C_R   0.500216 0.094726 0.499883 -0.224899
C15   C     C_1   0.500128 0.807137 0.499846 0.186042
C16   C     C_1   0.500129 0.192847 0.499963 0.393888
C17   C     C_R   0.507893 0.499594 0.259308 0.995621
C18   C     C_R   0.489506 0.500890 0.739995 0.974710
C19   C     C_R   0.562216 0.656697 0.109900 0.580095
C20   C     C_R   0.464084 0.668509 0.895350 0.583441
C21   C     C_R   0.549850 0.740483 0.055574 0.147832
C22   C     C_R   0.493405 0.747232 0.953130 0.150556
C23   C     C_R   0.487656 0.584308 0.941226 -0.230852
C24   C     C_R   0.521986 0.580074 0.060305 -0.234874
C25   C     C_R   0.513456 0.499033 0.125154 -0.263925
C26   C     C_R   0.478445 0.503313 0.873680 -0.255146
C27   C     C_R   0.491872 0.420171 0.061491 0.561910
C28   C     C_R   0.476893 0.422020 0.935822 0.563796
C29   C     C_R   0.955729 0.581621 0.431278 0.308707
C30   C     C_R   0.044547 0.575759 0.415388 0.315634
C31   C     C_R   0.913324 0.507958 0.483223 -0.041808
C32   C     C_R   0.087045 0.503200 0.469602 -0.040034
H1    H     H_    0.923343 0.378803 0.568002 0.199163
H2    H     H_    0.077100 0.377536 0.563991 0.205986
H3    H     H_    0.365302 0.916156 0.512967 0.197854
H4    H     H_    0.635077 0.915909 0.486282 0.179285
N1    N     N_1   0.500000 0.270550 0.500000 -0.038225
N2    N     N_1   0.500000 0.729450 0.500000 -0.062788
O1    O     O_R   0.378020 0.573650 0.500040 -0.591700
O2    O     O_R   0.621980 0.573650 0.499960 -0.577541
O3    O     O_R   0.378020 0.426320 0.500100 -0.592242
O4    O     O_R   0.621980 0.426320 0.499900 -0.621401
O5    O     O_R   0.500000 0.573680 0.316780 -0.592369
O6    O     O_R   0.500000 0.573680 0.683220 -0.584054
O7    O     O_R   0.500000 0.426350 0.316830 -0.562552
O8    O     O_R   0.500000 0.426350 0.683170 -0.567342
Zn1   Zn    Zn3+2 0.500000 0.598370 0.500000 1.083844
Zn2   Zn    Zn3+2 0.500000 0.401630 0.500000 1.133077
F1    F     F_    0.485371 0.340692 0.119851 -0.559940
F2    F     F_    0.460097 0.343962 0.875524 -0.568898
F3    F     F_    0.617887 0.648349 0.205513 -0.607873
F4    F     F_    0.406418 0.673580 0.801883 -0.607215
S1    S     S_3+6 0.603018 0.834351 0.121008 0.171384
O9    O     O_2   0.632980 0.894857 0.019516 -0.126303
O10   O     O_2   0.542755 0.884724 0.204150 -0.283694
O11   O     O_3   0.687721 0.803957 0.205467 -0.416861
H5    H     H_    0.669004 0.806460 0.293758 0.364111
S2    S     S_3+6 0.460537 0.851211 0.891769 0.154303
O12   O     O_2   0.447161 0.918314 0.994820 -0.137105
O13   O     O_2   0.527895 0.885064 0.805355 -0.282423
O14   O     O_3   0.369093 0.841342 0.812527 -0.438370
H6    H     H_    0.385376 0.835936 0.723471 0.371951
S3    S     S_3+6 0.103068 0.654646 0.326550 0.116748
O15   O     O_2   0.050683 0.690241 0.221385 -0.163885
O16   O     O_2   0.129443 0.729949 0.411415 -0.218610
O17   O     O_3   0.189992 0.607542 0.263945 -0.561758
H7    H     H_    0.223444 0.657667 0.230699 0.395532
S4    S     S_3+6 0.897482 0.679478 0.392766 0.135096
O18   O     O_2   0.950686 0.761457 0.409786 -0.154140
O19   O     O_2   0.869368 0.672171 0.258982 -0.195074
O20   O     O_3   0.811771 0.690935 0.484629 -0.541986
H8    H     H_    0.780148 0.741678 0.449628 0.394549
S5    S     S_3+6 0.325413 0.102600 0.519963 0.101821
O21   O     O_2   0.311089 0.154254 0.402602 -0.201327
O22   O     O_2   0.253815 0.038138 0.536910 -0.211616
O23   O     O_3   0.327777 0.174056 0.641859 -0.493239
H9    H     H_    0.342904 0.137237 0.714599 0.385652
S6    S     S_3+6 0.674992 0.102418 0.480231 0.085814
O24   O     O_2   0.689365 0.155319 0.598284 -0.268503
O25   O     O_2   0.746245 0.037473 0.461991 -0.216601
O26   O     O_3   0.671882 0.171986 0.358503 -0.509134
H10   H     H_    0.723660 0.208630 0.366462 0.392632

loop_
_geom_bond_atom_site_label_1
_geom_bond_atom_site_label_2
_ccdc_geom_bond_type
O2    Zn1   S    
C6    C32   S    
S3    O16   D    
S5    O21   D    
C18   C26   S    
O26   H10   S    
S1    O9    D    
C19   C21   A    
C17   O7    A    
S6    O25   D    
O7    Zn2   S    
C3    H1    S    
S2    O13   D    
O11   H5    S    
C23   C26   A    
C9    C13   A    
C28   F2    S    
S4    O18   D    
C12   S6    S    
C23   C24   A    
C30   C32   A    
O6    Zn1   S    
C16   N1    T    
S2    O14   S    
O17   H7    S    
S3    O17   S    
C21   C22   A    
S5    O22   D    
C11   C15   S    
C18   O8    A    
C4    H2    S    
S1    O10   D    
O8    Zn2   S    
C24   C25   A    
S6    O24   D    
S2    O12   D    
C17   O5    A    
C15   N2    T    
C29   C30   A    
C18   O6    A    
C29   S4    S    
C20   C23   A    
O4    Zn2   S    
O23   H9    S    
N1    Zn2   S    
C3    C31   A    
C9    C11   A    
N2    Zn1   S    
C4    C32   A    
C10   C12   A    
C1    O3    A    
C12   C14   A    
S5    O23   S    
C14   C16   S    
C20   C22   A    
C3    C4    A    
O1    Zn1   S    
S1    O11   S    
C1    C7    S    
C2    C8    S    
C13   S5    S    
C22   S2    S    
C5    C8    T    
C6    C7    T    
C25   C27   A    
C26   C28   A    
C17   C25   S    
C19   C24   A    
O20   H8    S    
C29   C31   A    
C21   S1    S    
S6    O26   S    
C2    O4    A    
S4    O20   S    
C30   S3    S    
O3    Zn2   S    
C19   F3    S    
O14   H6    S    
C10   C11   A    
C1    O1    A    
S3    O15   D    
C2    O2    A    
C20   F4    S    
C27   C28   A    
C9    H3    S    
S4    O19   D    
C10   H4    S    
C13   C14   A    
O5    Zn1   S    
C27   F1    S    
C5    C31   S    
