data_mof_unit_39456.cif
_audit_creation_date              2012-12-10T19:00:14-0500
_audit_creation_method            fapswitch 2.2
_symmetry_space_group_name_H-M    P1
_symmetry_Int_Tables_number       1
_space_group_crystal_system       triclinic
_cell_length_a                    9.570307
_cell_length_b                    10.796334
_cell_length_c                    13.363284
_cell_angle_alpha                 90.089736
_cell_angle_beta                  71.805331
_cell_angle_gamma                 89.756324
_cell_volume                      1311.69706909

loop_
_atom_site_label
_atom_site_type_symbol
_atom_type_description
_atom_site_fract_x
_atom_site_fract_y
_atom_site_fract_z
_atom_type_partial_charge
C1    C     C_R   0.500077 0.737464 0.498954 0.786712
C2    C     C_R   0.435811 0.508426 0.980831 0.097525
C3    C     C_R   0.463262 0.543043 0.874214 0.045111
C4    C     C_R   0.543589 0.532825 0.031101 0.040940
C5    C     C_R   0.658781 0.616372 0.983027 0.076994
C6    C     C_R   0.674377 0.663010 0.882885 -0.163186
C7    C     C_R   0.579761 0.625496 0.828471 -0.162824
C8    C     C_R   0.542092 0.476942 0.127056 0.148266
C9    C     C_R   0.736926 0.615014 0.138842 0.228849
C10   C     C_R   0.369906 0.498240 0.817774 -0.177347
C11   C     C_R   0.369453 0.936607 0.530579 0.127454
C12   C     C_R   0.419973 0.500940 0.701032 0.806208
C13   C     C_R   0.500869 0.870560 0.491733 -0.088437
C14   C     C_R   0.631033 0.934400 0.440646 -0.185973
C15   C     C_R   0.630673 0.063656 0.439754 -0.180993
C16   C     C_R   0.501301 0.129019 0.492074 -0.089835
C17   C     C_R   0.369855 0.064154 0.531423 0.108349
C18   C     C_3   0.258123 0.070497 0.638331 -0.426241
C19   C     C_3   0.256861 0.929966 0.636923 -0.480875
C20   C     C_R   0.924148 0.391723 0.507639 0.205514
C21   C     C_R   0.925752 0.607765 0.499163 -0.017399
C22   C     C_R   0.074012 0.607780 0.498904 -0.045196
C23   C     C_R   0.500493 0.262416 0.498846 0.829665
C24   C     C_R   0.070526 0.391930 0.509267 0.229779
C25   C     C_3   0.111636 0.283288 0.437272 -0.465145
C26   C     C_3   0.954946 0.283154 0.433844 0.042608
C27   C     C_R   0.579683 0.504730 0.299671 0.901163
C28   C     C_R   0.756183 0.654155 0.036192 -0.186051
C29   C     C_R   0.626608 0.527676 0.185794 -0.146718
C30   C     C_R   0.235047 0.441193 0.874581 0.240175
C31   C     C_R   0.197355 0.428841 0.983450 -0.109469
C32   C     C_R   0.296216 0.461084 0.035986 -0.145384
Cu1   Cu    Cu3+1 0.359330 0.500020 0.500010 0.997798
Cu2   Cu    Cu3+1 0.640670 0.499980 0.499990 1.007907
H1    H     H_    0.152434 0.112273 0.637065 0.213853
H2    H     H_    0.300327 0.887333 0.696997 0.200948
H3    H     H_    0.151222 0.890918 0.633334 0.198722
H4    H     H_    0.128655 0.695501 0.496368 0.141062
H5    H     H_    0.195849 0.306538 0.361389 0.268671
H6    H     H_    0.760930 0.728188 0.845987 0.144352
H7    H     H_    0.893870 0.199467 0.471156 0.119099
H8    H     H_    0.842893 0.719454 0.999923 0.179484
H9    H     H_    0.259580 0.453250 0.120783 0.213977
N1    N     N_R   0.852320 0.499070 0.499340 -0.162905
N2    N     N_R   0.148230 0.499110 0.499340 -0.170589
O1    O     O_R   0.381190 0.680360 0.500000 -0.594751
O2    O     O_R   0.618780 0.680320 0.499990 -0.597067
O3    O     O_R   0.323230 0.500000 0.650990 -0.531674
O4    O     O_R   0.560820 0.499960 0.650980 -0.587032
O5    O     O_R   0.381220 0.319680 0.500010 -0.569139
O6    O     O_R   0.618810 0.319640 0.500000 -0.580063
O7    O     O_R   0.439180 0.500040 0.349020 -0.567122
O8    O     O_R   0.676770 0.500000 0.349010 -0.498051
Br1   Br    Br    0.861445 0.688767 0.210672 -0.494452
H10   H     H_    0.731208 0.111858 0.400123 0.190547
H11   H     H_    0.303315 0.109778 0.698751 0.219235
H12   H     H_    0.872476 0.695536 0.496951 0.142137
H13   H     H_    0.137982 0.200264 0.476841 0.173445
Br2   Br    Br    0.946298 0.320170 0.293404 -0.448197
Br3   Br    Br    0.461539 0.313152 0.166613 -0.494836
Br4   Br    Br    0.096247 0.374624 0.811216 -0.519936
H14   H     H_    0.091781 0.390544 0.027754 0.215692
H15   H     H_    0.594716 0.667424 0.752468 0.152696
H16   H     H_    0.732850 0.884862 0.403802 0.191950

loop_
_geom_bond_atom_site_label_1
_geom_bond_atom_site_label_2
_ccdc_geom_bond_type
C2    C4    A    
C24   C25   S    
C27   O8    A    
C21   H12   S    
C6    C7    A    
C9    Br1   S    
C18   H11   S    
C27   C29   S    
C5    C28   A    
Cu1   N2    S    
C18   H1    S    
C10   C30   A    
C23   O6    A    
C31   C32   A    
C9    C29   A    
C12   O3    A    
C14   H16   S    
C17   C18   S    
Cu1   O5    S    
C3    C10   A    
C21   C22   A    
C8    Br3   S    
Cu1   O7    S    
Cu1   O1    S    
C11   C13   A    
C31   H14   S    
C7    H15   S    
Cu2   O6    S    
C30   C31   A    
C20   C26   S    
C24   N2    A    
C10   C12   S    
C28   H8    S    
C20   N1    A    
C32   H9    S    
Cu1   Cu2   S    
C12   O4    A    
C16   C23   S    
C2    C3    A    
C19   H2    S    
C1    O2    A    
C5    C6    A    
C6    H6    S    
C1    O1    A    
C1    C13   S    
C25   H13   S    
C8    C29   A    
C15   C16   A    
C21   N1    A    
C16   C17   A    
C22   N2    A    
Cu2   N1    S    
C27   O7    A    
C26   H7    S    
Cu2   O8    S    
C2    C32   A    
C18   C19   S    
C26   Br2   S    
C30   Br4   S    
C4    C8    A    
Cu1   O3    S    
C14   C15   A    
C11   C19   S    
C23   O5    A    
Cu2   O2    S    
C19   H3    S    
C3    C7    A    
C25   C26   S    
C13   C14   A    
C25   H5    S    
C20   C24   A    
C9    C28   A    
C15   H10   S    
C4    C5    A    
Cu2   O4    S    
C22   H4    S    
C11   C17   A    
