data_mof_unit_63788.cif
_audit_creation_date              2012-10-26T20:52:02-0400
_audit_creation_method            fapswitch 2.2
_symmetry_space_group_name_H-M    P1
_symmetry_Int_Tables_number       1
_space_group_crystal_system       triclinic
_cell_length_a                    8.743157
_cell_length_b                    15.996548
_cell_length_c                    14.776882
_cell_angle_alpha                 90.00071
_cell_angle_beta                  97.903541
_cell_angle_gamma                 89.982863
_cell_volume                      2047.0678619

loop_
_atom_site_label
_atom_site_type_symbol
_atom_type_description
_atom_site_fract_x
_atom_site_fract_y
_atom_site_fract_z
_atom_type_partial_charge
C1    C     C_R   0.500038 0.340854 0.499984 0.550659
C2    C     C_R   0.796809 0.500005 0.523175 0.547906
C3    C     C_2   0.037797 0.499985 0.463779 -0.146592
C4    C     C_2   0.962203 0.500015 0.536221 -0.146592
C5    C     C_R   0.513760 0.956383 0.582867 -0.098968
C6    C     C_R   0.486240 0.043617 0.417133 -0.098968
C7    C     C_R   0.499990 0.912784 0.500009 0.037424
C8    C     C_R   0.500010 0.087216 0.499990 0.037424
C9    C     C_R   0.486231 0.956371 0.417142 -0.100508
C10   C     C_R   0.513769 0.043629 0.582858 -0.100508
C11   C     C_1   0.499977 0.823326 0.500018 -0.048144
C12   C     C_R   0.499962 0.659146 0.500016 0.550660
C13   C     C_1   0.500023 0.176674 0.499982 -0.048144
C14   C     C_1   0.500033 0.251726 0.499981 -0.012428
C15   C     C_1   0.499967 0.748274 0.500019 -0.012428
C16   C     C_R   0.630797 0.527851 0.963390 0.107272
C17   C     C_R   0.369203 0.472149 0.036610 0.107272
C18   C     C_R   0.501211 0.500354 0.902918 -0.013452
C19   C     C_R   0.498789 0.499646 0.097082 -0.013452
C20   C     C_R   0.371080 0.472689 0.941001 -0.103019
C21   C     C_R   0.628920 0.527311 0.058999 -0.103019
C22   C     C_1   0.500252 0.500126 0.802672 0.175243
C23   C     C_1   0.499748 0.499874 0.197328 0.175242
C24   C     C_R   0.203191 0.499995 0.476825 0.547906
Cu1   Cu    Cu3+1 0.500040 0.500000 0.589220 1.027495
Cu2   Cu    Cu3+1 0.499960 0.500000 0.410780 1.027495
H1    H     H_    0.977983 0.499951 0.394210 0.145709
H2    H     H_    0.022017 0.500049 0.605790 0.145709
H3    H     H_    0.524465 0.077029 0.647214 0.122539
H4    H     H_    0.475535 0.922971 0.352786 0.122539
H5    H     H_    0.524447 0.922992 0.647230 0.125114
H6    H     H_    0.475553 0.077008 0.352770 0.125114
H7    H     H_    0.729909 0.548706 0.103729 0.150680
H8    H     H_    0.270090 0.451294 0.896271 0.150680
I1    I     I_    0.832922 0.571237 0.913891 -0.328961
I2    I     I_    0.167078 0.428763 0.086109 -0.328961
N1    N     N_1   0.500050 0.499980 0.276720 -0.179009
N2    N     N_1   0.499950 0.500020 0.723280 -0.179009
O1    O     O_R   0.500070 0.380310 0.575330 -0.492808
O2    O     O_R   0.499930 0.619690 0.424670 -0.492808
O3    O     O_R   0.500000 0.380310 0.424640 -0.484823
O4    O     O_R   0.500000 0.619690 0.575360 -0.484823
O5    O     O_R   0.274870 0.500000 0.557960 -0.501608
O6    O     O_R   0.725130 0.500000 0.442040 -0.501608
O7    O     O_R   0.274790 0.500000 0.407270 -0.479722
O8    O     O_R   0.725210 0.500000 0.592730 -0.479722

loop_
_geom_bond_atom_site_label_1
_geom_bond_atom_site_label_2
_ccdc_geom_bond_type
Cu1   O4    S    
C12   O2    A    
C2    C4    S    
Cu2   N1    S    
C8    C13   S    
C17   I2    S    
Cu1   N2    S    
C5    C7    A    
C19   C23   S    
C12   C15   S    
C20   H8    S    
Cu1   O5    S    
C6    C9    A    
C3    H1    S    
Cu2   O6    S    
C5    C10   A    
C23   N1    T    
C13   C14   T    
Cu1   O1    S    
C7    C11   S    
C10   H3    S    
Cu2   O2    S    
C3    C24   S    
C16   C21   A    
C9    H4    S    
C6    C8    A    
C24   O7    A    
C1    O3    A    
C19   C21   A    
C18   C20   A    
C16   I1    S    
C21   H7    S    
C1    O1    A    
C3    C4    D    
C22   N2    T    
C17   C20   A    
C16   C18   A    
C6    H6    S    
C4    H2    S    
C7    C9    A    
C24   O5    A    
C12   O4    A    
C1    C14   S    
Cu2   O7    S    
C17   C19   A    
Cu1   Cu2   S    
C18   C22   S    
C11   C15   T    
Cu1   O8    S    
C8    C10   A    
C2    O8    A    
Cu2   O3    S    
C2    O6    A    
C5    H5    S    
