data_mof_unit_27875.cif
_audit_creation_date              2012-12-11T14:35:51-0500
_audit_creation_method            fapswitch 2.2
_symmetry_space_group_name_H-M    P1
_symmetry_Int_Tables_number       1
_space_group_crystal_system       triclinic
_cell_length_a                    14.059125
_cell_length_b                    16.644756
_cell_length_c                    7.281321
_cell_angle_alpha                 90.108498
_cell_angle_beta                  82.506383
_cell_angle_gamma                 90.015494
_cell_volume                      1689.35163781

loop_
_atom_site_label
_atom_site_type_symbol
_atom_type_description
_atom_site_fract_x
_atom_site_fract_y
_atom_site_fract_z
_atom_type_partial_charge
O1    O     O_R   0.337460 0.413110 0.524760 -0.551367
O2    O     O_R   0.662540 0.913110 0.475240 -0.542806
O3    O     O_R   0.348690 0.587910 0.191230 -0.507269
O4    O     O_R   0.651310 0.087910 0.808770 -0.512226
O5    O     O_R   0.166530 0.586890 0.082470 -0.472843
O6    O     O_R   0.833470 0.086890 0.917530 -0.477064
C1    C     C_R   0.373236 0.613422 0.356720 0.719788
C2    C     C_R   0.630102 0.115210 0.644811 0.731517
O7    O     O_R   0.348700 0.413830 0.191250 -0.533333
O8    O     O_R   0.651300 0.913830 0.808750 -0.518255
O9    O     O_R   0.166530 0.411570 0.082490 -0.522412
O10   O     O_R   0.833470 0.911570 0.917510 -0.525150
C3    C     C_R   0.371271 0.386656 0.355659 0.756525
C4    C     C_R   0.628723 0.887511 0.644087 0.783201
O11   O     O_R   0.337460 0.588430 0.524740 -0.557608
O12   O     O_R   0.662540 0.088430 0.475260 -0.554816
O13   O     O_3   0.192230 0.499460 0.407330 -0.348805
O14   O     O_3   0.807770 0.999460 0.592670 -0.360054
V1    V     V_3+5 0.263080 0.500100 0.108540 1.627553
V2    V     V_3+5 0.736920 0.000100 0.891460 1.682362
O15   O     O_R   0.155290 0.412090 0.756570 -0.528875
O16   O     O_R   0.844710 0.912090 0.243430 -0.532531
C5    C     C_R   0.128404 0.387380 0.933516 0.802089
C6    C     C_R   0.871215 0.887083 0.066266 0.803116
O17   O     O_R   0.155290 0.586170 0.756550 -0.511758
O18   O     O_R   0.844710 0.086170 0.243450 -0.520367
C7    C     C_R   0.129661 0.611578 0.930992 0.867840
C8    C     C_R   0.870239 0.111702 0.068715 0.849449
V3    V     V_3+5 0.240910 0.499900 0.616030 1.605612
V4    V     V_3+5 0.759090 0.999900 0.383970 1.631022
O19   O     O_3   0.311760 0.500540 0.867100 -0.408665
O20   O     O_3   0.688240 0.000540 0.132900 -0.387708
C9    C     C_3   0.111895 0.752752 0.064267 0.630057
C10   C     C_3   0.889042 0.252366 0.930085 0.634125
C11   C     C_3   0.054362 0.836215 0.065562 0.048541
C12   C     C_3   0.945177 0.336246 0.932816 0.076739
C13   C     C_3   0.958247 0.657250 0.074327 0.360787
C14   C     C_3   0.042054 0.157230 0.923168 0.347942
C15   C     C_3   0.033704 0.723054 0.777768 0.164719
C16   C     C_3   0.966312 0.223001 0.219940 0.162103
C17   C     C_3   0.058718 0.683564 0.962224 -0.354827
C18   C     C_3   0.941355 0.183498 0.035602 -0.343689
H1    H     H_    0.101630 0.747893 0.706132 0.166579
H2    H     H_    0.898069 0.247305 0.291806 0.154509
C19   C     C_3   0.944149 0.816121 0.024734 -0.301760
C20   C     C_3   0.055341 0.316422 0.973791 -0.316924
C21   C     C_3   0.899265 0.736828 0.134543 0.638401
C22   C     C_3   0.100171 0.237316 0.862724 0.637170
C23   C     C_3   0.953781 0.791747 0.812665 0.379659
C24   C     C_3   0.045874 0.291918 0.185400 0.377281
H3    H     H_    0.621636 0.766595 0.407679 0.212608
H4    H     H_    0.426954 0.307762 0.645840 0.175252
C25   C     C_2   0.446277 0.679566 0.360166 0.261477
C26   C     C_2   0.551104 0.174880 0.649215 0.244987
C27   C     C_2   0.491877 0.697628 0.511836 0.048151
C28   C     C_2   0.556665 0.240876 0.537026 0.039328
C29   C     C_2   0.552233 0.825655 0.644938 -0.064433
C30   C     C_2   0.446826 0.322399 0.353345 -0.051193
C31   C     C_2   0.559248 0.767475 0.511829 0.020151
C32   C     C_2   0.470169 0.291539 0.516511 0.008374
Cl1   Cl    Cl    0.135237 0.724317 0.292412 -0.491751
Cl2   Cl    Cl    0.870094 0.223433 0.700469 -0.541396
Cl3   Cl    Cl    0.835907 0.761327 0.759065 -0.493613
Cl4   Cl    Cl    0.164050 0.261816 0.238473 -0.472816
C33   C     C_3   0.898461 0.598037 0.969578 -0.556670
H5    H     H_    0.840373 0.568715 0.064798 0.235980
H6    H     H_    0.858961 0.623382 0.864330 0.293123
H7    H     H_    0.946006 0.551323 0.901580 0.174409
C34   C     C_3   0.102945 0.098471 0.026467 -0.527611
H8    H     H_    0.160491 0.069004 0.929959 0.249223
H9    H     H_    0.143497 0.124252 0.129739 0.294968
H10   H     H_    0.056091 0.051836 0.096885 0.170133
Cl5   Cl    Cl    0.770563 0.724203 0.141356 -0.545997
Cl6   Cl    Cl    0.228784 0.226384 0.853562 -0.469993
C35   C     C_3   0.489133 0.642224 0.677537 -0.659223
H11   H     H_    0.544697 0.659187 0.765961 0.255720
H12   H     H_    0.418641 0.645700 0.765612 0.249866
H13   H     H_    0.504527 0.579424 0.631006 0.178537
C36   C     C_3   0.653906 0.273291 0.459944 -0.729126
H14   H     H_    0.647935 0.328297 0.376307 0.239634
H15   H     H_    0.694141 0.289538 0.576049 0.248772
H16   H     H_    0.695308 0.227563 0.373515 0.263550
C37   C     C_3   0.459105 0.839971 0.767625 -0.556495
H17   H     H_    0.405449 0.864068 0.682853 0.219416
H18   H     H_    0.430702 0.783656 0.831563 0.291859
H19   H     H_    0.467835 0.883963 0.879066 0.230499
C38   C     C_3   0.496160 0.294411 0.167507 -0.603643
H20   H     H_    0.441307 0.277193 0.078007 0.262744
H21   H     H_    0.540519 0.343889 0.099710 0.197652
H22   H     H_    0.542304 0.241058 0.178437 0.256495
Cl7   Cl    Cl    0.470782 0.738657 0.160507 -0.619602
Cl8   Cl    Cl    0.442472 0.146549 0.780685 -0.564973
Cl9   Cl    Cl    0.235219 0.760829 0.953050 -0.663135
Cl10  Cl    Cl    0.763860 0.260352 0.026433 -0.741426
C39   C     C_3   0.113602 0.896806 0.931685 -0.669820
H23   H     H_    0.179189 0.918552 0.987195 0.260438
H24   H     H_    0.144105 0.871683 0.797407 0.229974
H25   H     H_    0.072269 0.950895 0.913651 0.209069
C40   C     C_3   0.884428 0.395344 0.069036 -0.694756
H26   H     H_    0.818763 0.416734 0.013478 0.251814
H27   H     H_    0.853886 0.368685 0.201606 0.223872
H28   H     H_    0.924054 0.450212 0.089707 0.216124
C41   C     C_3   0.054482 0.882436 0.246382 -0.597780
H29   H     H_    0.020053 0.844417 0.347321 0.260578
H30   H     H_    0.127777 0.893581 0.283135 0.247258
H31   H     H_    0.015191 0.940089 0.250974 0.196780
C42   C     C_3   0.945039 0.383577 0.753861 -0.605992
H32   H     H_    0.981056 0.347101 0.651612 0.260246
H33   H     H_    0.871833 0.394122 0.716142 0.235680
H34   H     H_    0.983797 0.441306 0.752194 0.195857
Cl11  Cl    Cl    0.976343 0.590110 0.258754 -0.517152
Cl12  Cl    Cl    0.023826 0.089731 0.738584 -0.505015
Cl13  Cl    Cl    0.891851 0.749722 0.367756 -0.469815
Cl14  Cl    Cl    0.106697 0.250012 0.629685 -0.440546
Cl15  Cl    Cl    0.004088 0.650117 0.620539 -0.434784
Cl16  Cl    Cl    0.997628 0.149568 0.374649 -0.432533
C43   C     C_3   0.978947 0.863852 0.678347 -0.541196
H35   H     H_    0.925706 0.872225 0.581206 0.258688
H36   H     H_    0.975332 0.923716 0.740371 0.197888
H37   H     H_    0.051799 0.859457 0.604757 0.164781
C44   C     C_3   0.020377 0.364016 0.319952 -0.536367
H38   H     H_    0.074009 0.372861 0.416188 0.258631
H39   H     H_    0.023615 0.423745 0.257642 0.198314
H40   H     H_    0.947611 0.359300 0.394122 0.162376

loop_
_geom_bond_atom_site_label_1
_geom_bond_atom_site_label_2
_ccdc_geom_bond_type
C38   H20   S    
C23   Cl3   S    
C27   C31   S    
O13   V3    S    
C39   H23   S    
C10   C18   S    
O4    C2    A    
V1    O19   S    
C30   C38   S    
C39   H25   S    
C15   C17   S    
O9    V1    S    
C28   C36   S    
C6    C19   S    
C14   C18   S    
O3    C1    A    
C11   C41   S    
C43   H36   S    
C9    C11   S    
C29   C31   D    
O12   V4    S    
C10   Cl2   S    
C24   Cl4   S    
C8    C18   S    
C34   H9    S    
O7    C3    A    
C44   H40   S    
H4    C32   S    
C1    O11   A    
O5    C7    A    
O7    V1    S    
C23   C43   S    
C37   H17   S    
O8    V2    S    
C33   H6    S    
C13   C33   S    
C40   H28   S    
C25   Cl7   S    
C42   H32   S    
C29   C37   S    
O3    V1    S    
O14   V4    S    
C13   C21   S    
C14   C22   S    
C27   C35   S    
C19   C21   S    
C14   C34   S    
C2    O12   A    
C5    C20   S    
C12   C42   S    
C42   H33   S    
C24   C44   S    
O11   V3    S    
C20   C22   S    
C25   C27   D    
O17   V3    S    
C26   C28   D    
C44   H39   S    
C22   Cl6   S    
C21   Cl5   S    
O8    C4    A    
C43   H37   S    
C2    C26   S    
C36   H15   S    
C15   H1    S    
C3    C30   S    
O15   V3    S    
C28   C32   S    
C41   H31   S    
C34   H10   S    
C35   H11   S    
C26   Cl8   S    
C7    C17   S    
C40   H26   S    
C19   C23   S    
C33   H7    S    
O10   V2    S    
O1    V3    S    
C41   H30   S    
C12   C20   S    
C35   H12   S    
C44   H38   S    
C15   C23   S    
O18   V4    S    
C15   Cl15  S    
O15   C5    A    
C42   H34   S    
O16   C6    A    
O1    C3    A    
C1    C25   S    
C14   Cl12  S    
C11   C19   S    
C22   Cl14  S    
V2    O20   S    
C21   Cl13  S    
C4    C29   S    
O10   C6    A    
O16   V4    S    
C37   H18   S    
C10   Cl10  S    
C16   C18   S    
C9    Cl9   S    
C36   H16   S    
C39   H24   S    
O5    V1    S    
C11   C39   S    
O17   C7    A    
O6    V2    S    
C20   C24   S    
O18   C8    A    
O2    V4    S    
C9    C17   S    
C38   H21   S    
V3    O19   S    
C43   H35   S    
V4    O20   S    
C16   Cl16  S    
C16   C24   S    
O9    C5    A    
O13   V1    S    
C10   C12   S    
C12   C40   S    
O14   V2    S    
C13   C17   S    
C34   H8    S    
O2    C4    A    
C35   H13   S    
C13   Cl11  S    
C36   H14   S    
O4    V2    S    
O6    C8    A    
C16   H2    S    
C37   H19   S    
H3    C31   S    
C9    Cl1   S    
C33   H5    S    
C38   H22   S    
C41   H29   S    
C30   C32   D    
C40   H27   S    
