data_mof_unit_26623.cif
_audit_creation_date              2012-10-26T21:08:05-0400
_audit_creation_method            fapswitch 2.2
_symmetry_space_group_name_H-M    P1
_symmetry_Int_Tables_number       1
_space_group_crystal_system       triclinic
_cell_length_a                    15.823741
_cell_length_b                    10.741836
_cell_length_c                    10.003276
_cell_angle_alpha                 86.763459
_cell_angle_beta                  90.295438
_cell_angle_gamma                 98.197571
_cell_volume                      1680.25221184

loop_
_atom_site_label
_atom_site_type_symbol
_atom_type_description
_atom_site_fract_x
_atom_site_fract_y
_atom_site_fract_z
_atom_type_partial_charge
C1    C     C_R   0.484674 0.261223 0.501507 0.550718
C2    C     C_R   0.322014 0.992981 0.792852 0.289567
C3    C     C_R   0.363326 0.888957 0.821200 0.296364
C4    C     C_R   0.340077 0.485863 0.499926 0.608851
C5    C     C_R   0.386570 0.832772 0.708262 0.243540
C6    C     C_R   0.434720 0.914493 0.612104 -0.020835
C7    C     C_R   0.421708 0.044045 0.608782 -0.065660
C8    C     C_R   0.453508 0.120979 0.497618 -0.014413
C9    C     C_R   0.430680 0.061957 0.376884 0.143205
C10   C     C_R   0.435145 0.928368 0.376395 0.182951
C11   C     C_R   0.462952 0.866228 0.493871 -0.008908
C12   C     C_3   0.077760 0.395534 0.493386 -0.092041
C13   C     C_R   0.650052 0.598480 0.133381 0.235901
C14   C     C_R   0.726305 0.582115 0.072750 0.203458
C15   C     C_R   0.728992 0.590972 0.932178 0.196722
C16   C     C_R   0.489701 0.735605 0.497130 0.598534
C17   C     C_R   0.652412 0.602886 0.862524 0.214211
C18   C     C_R   0.574162 0.545875 0.925022 0.028275
C19   C     C_R   0.573841 0.543780 0.072192 0.019428
C20   C     C_R   0.427879 0.490948 0.072856 0.420348
C21   C     C_R   0.428661 0.470852 0.933489 0.308704
C22   C     C_R   0.659071 0.491999 0.500379 0.597020
C23   C     C_3   0.986892 0.527011 0.514353 0.150543
C24   C     C_3   0.954079 0.330643 0.590994 0.193162
C25   C     C_3   0.004352 0.286606 0.475001 0.230298
C26   C     C_1   0.248777 0.447962 0.498141 0.230161
C27   C     C_1   0.747154 0.466746 0.499726 0.133788
C28   C     C_3   0.028725 0.436930 0.612598 0.146725
C29   C     C_3   0.910921 0.420086 0.494236 -0.097202
C30   C     C_3   0.033468 0.480574 0.394964 0.148497
C31   C     C_3   0.959313 0.372267 0.377289 0.189943
C32   C     C_1   0.172237 0.416336 0.494534 0.187713
C33   C     C_1   0.820390 0.443834 0.497083 0.154449
C34   C     C_R   0.346637 0.066520 0.675655 0.234212
Cl1   Cl    Cl    0.021307 0.127526 0.458269 -0.289569
Cl2   Cl    Cl    0.301844 0.729936 0.643682 -0.465722
Cl3   Cl    Cl    0.370248 0.828082 0.271990 -0.306821
Cl4   Cl    Cl    0.333523 0.539472 0.132451 -0.288051
Cl5   Cl    Cl    0.820081 0.609047 0.169497 -0.351721
Cl6   Cl    Cl    0.267811 0.142134 0.591781 -0.379032
Cl7   Cl    Cl    0.236337 0.019490 0.893429 -0.248709
Cu1   Cu    Cu3+1 0.499990 0.499990 0.640660 1.155652
Cu2   Cu    Cu3+1 0.500010 0.500010 0.359340 1.188646
H1    H     H_    0.472708 0.010951 0.108829 0.358349
H2    H     H_    0.040943 0.340871 0.959646 0.419805
H3    H     H_    0.486002 0.220517 0.162560 0.319576
H4    H     H_    0.581988 0.900980 0.212711 0.347211
H5    H     H_    0.946117 0.590050 0.928164 0.417196
H6    H     H_    0.682484 0.842569 0.582335 0.386445
H7    H     H_    0.402508 0.252759 0.814624 0.340325
H8    H     H_    0.925835 0.076314 0.853163 0.395970
H9    H     H_    0.932843 0.161029 0.100066 0.390818
H10   H     H_    0.053491 0.708566 0.105934 0.398522
H11   H     H_    0.076051 0.862421 0.493685 0.419237
N1    N     N_R   0.500800 0.501210 0.147910 -0.262086
N2    N     N_R   0.500830 0.501290 0.852040 -0.281486
O1    O     O_R   0.499990 0.319640 0.618810 -0.500499
O2    O     O_2   0.523179 0.987993 0.871767 -0.262676
O3    O     O_3   0.418687 0.994694 0.058234 -0.405954
O4    O     O_2   0.681350 0.744101 0.344578 -0.235850
O5    O     O_2   0.726337 0.839142 0.126505 -0.168312
O6    O     O_3   0.567227 0.814492 0.182100 -0.440653
O7    O     O_2   0.815336 0.639709 0.701541 -0.201855
O8    O     O_2   0.865895 0.766750 0.889311 -0.162317
O9    O     O_3   0.895402 0.537088 0.892875 -0.381898
O10   O     O_2   0.570997 0.795985 0.793778 -0.214118
O11   O     O_2   0.719476 0.850194 0.841367 -0.158960
O12   O     O_R   0.500000 0.319660 0.381240 -0.511902
O13   O     O_3   0.679144 0.753436 0.615881 -0.450018
O14   O     O_2   0.282489 0.314352 0.986692 -0.115029
O15   O     O_2   0.282149 0.489298 0.819079 -0.140800
O16   O     O_3   0.360052 0.297669 0.765988 -0.473021
O17   O     O_2   0.846209 0.289394 0.802404 -0.194030
O18   O     O_2   0.833761 0.129982 0.635008 -0.202660
O19   O     O_3   0.962953 0.141093 0.797614 -0.412213
O20   O     O_2   0.820633 0.252157 0.258636 -0.243021
O21   O     O_2   0.914157 0.409536 0.121124 -0.158211
O22   O     O_3   0.965636 0.195578 0.177544 -0.413350
O23   O     O_R   0.379070 0.499980 0.618770 -0.422348
O24   O     O_2   0.167358 0.648249 0.302181 -0.155084
O25   O     O_2   0.109124 0.483520 0.154479 -0.185804
O26   O     O_3   0.022149 0.667927 0.186015 -0.387691
O27   O     O_2   0.909990 0.734644 0.471543 -0.133852
O28   O     O_2   0.989622 0.715725 0.681866 -0.172098
O29   O     O_3   0.075437 0.775753 0.464438 -0.388640
O30   O     O_2   0.142267 0.349863 0.773831 -0.172436
O31   O     O_2   0.124845 0.572906 0.793075 -0.144489
O32   O     O_3   0.011242 0.395652 0.898191 -0.401824
O33   O     O_2   0.327468 0.241962 0.331091 -0.211081
O34   O     O_R   0.379080 0.500000 0.381190 -0.436121
O35   O     O_2   0.294352 0.054108 0.207554 -0.047281
O36   O     O_3   0.425694 0.218569 0.134999 -0.499084
O37   O     O_R   0.500000 0.680340 0.618760 -0.434848
O38   O     O_R   0.500010 0.680360 0.381190 -0.403230
O39   O     O_R   0.620920 0.500000 0.618810 -0.478674
O40   O     O_R   0.620930 0.500020 0.381230 -0.495447
O41   O     O_2   0.462520 0.785165 0.989624 -0.182805
S1    S     S_3+6 0.445205 0.912277 0.936249 0.101400
S2    S     S_3+6 0.079709 0.442703 0.772436 0.164885
S3    S     S_3+6 0.366311 0.143334 0.262251 0.156969
S4    S     S_3+6 0.657246 0.750936 0.199649 0.131000
S5    S     S_3+6 0.827806 0.637550 0.849990 0.173839
S6    S     S_3+6 0.655295 0.754125 0.778820 0.140953
S7    S     S_3+6 0.333194 0.392447 0.877082 0.177522
S8    S     S_3+6 0.895261 0.220901 0.709457 0.144420
S9    S     S_3+6 0.911693 0.307946 0.229537 0.143173
S10   S     S_3+6 0.086757 0.571448 0.255995 0.170610
S11   S     S_3+6 0.987828 0.691884 0.535531 0.192631

loop_
_geom_bond_atom_site_label_1
_geom_bond_atom_site_label_2
_ccdc_geom_bond_type
C25   C31   S    
O15   S7    D    
O25   S10   D    
C26   C32   T    
C30   S10   S    
C1    C8    S    
C22   O39   A    
O2    S1    D    
Cu2   O38   S    
H4    O6    S    
O41   S1    D    
O11   S6    D    
C7    C8    A    
C27   C33   T    
O8    S5    D    
O24   S10   D    
C16   O37   A    
C12   C28   S    
C10   Cl3   S    
C34   Cl6   S    
C23   C29   S    
O21   S9    D    
H8    O19   S    
O7    S5    D    
C30   C31   S    
O14   S7    D    
H3    O36   S    
H1    O3    S    
Cu1   O37   S    
C5    Cl2   S    
C29   C33   S    
C1    O12   A    
O27   S11   D    
C18   C19   A    
H7    O16   S    
C24   C29   S    
Cu1   N2    S    
C14   Cl5   S    
C21   S7    S    
Cu2   O12   S    
O35   S3    D    
O29   S11   S    
C9    C10   A    
C4    O34   A    
C18   N2    A    
O6    S4    S    
C2    C34   A    
Cu1   O23   S    
H6    O13   S    
C13   C14   A    
C12   C32   S    
O9    S5    S    
C20   N1    A    
H9    O22   S    
Cu1   O1    S    
Cu2   O40   S    
O31   S2    D    
O13   S6    S    
Cu2   O34   S    
C13   C19   A    
O33   S3    D    
Cu1   O39   S    
C23   C30   S    
H2    O32   S    
C24   C25   S    
C4    O23   A    
C6    C11   A    
C8    C9    A    
O16   S7    S    
O26   S10   S    
H10   O26   S    
O5    S4    D    
C1    O1    A    
H11   O29   S    
C20   Cl4   S    
C11   C16   S    
O17   S8    D    
C17   C18   A    
C23   C28   S    
O30   S2    D    
C25   Cl1   S    
C28   S2    S    
Cu2   N1    S    
O19   S8    S    
C9    S3    S    
C22   C27   S    
H5    O9    S    
C31   S9    S    
Cu1   Cu2   S    
C13   S4    S    
O4    S4    D    
O36   S3    S    
C19   N1    A    
C15   C17   A    
O20   S9    D    
C12   C30   S    
C22   O40   A    
O10   S6    D    
C24   C28   S    
C3    C5    A    
C21   N2    A    
C4    C26   S    
C6    C7    A    
C16   O38   A    
C12   C25   S    
O22   S9    S    
C2    C3    A    
C17   S6    S    
C29   C31   S    
O18   S8    D    
C3    S1    S    
C5    C6    A    
C23   S11   S    
C7    C34   A    
C15   S5    S    
O32   S2    S    
C10   C11   A    
O28   S11   D    
C20   C21   A    
O3    S1    S    
C14   C15   A    
C24   S8    S    
C2    Cl7   S    
