data_mof_unit_12976.cif
_audit_creation_date              2012-12-10T17:47:43-0500
_audit_creation_method            fapswitch 2.2
_symmetry_space_group_name_H-M    P1
_symmetry_Int_Tables_number       1
_space_group_crystal_system       triclinic
_cell_length_a                    14.7518
_cell_length_b                    14.738429
_cell_length_c                    14.345939
_cell_angle_alpha                 76.475425
_cell_angle_beta                  102.092088
_cell_angle_gamma                 115.015236
_cell_volume                      2726.37289237

loop_
_atom_site_label
_atom_site_type_symbol
_atom_type_description
_atom_site_fract_x
_atom_site_fract_y
_atom_site_fract_z
_atom_type_partial_charge
C1    C     C_R   0.879974 0.311715 0.512127 0.835613
C2    C     C_R   0.119897 0.688390 0.488099 0.864250
C3    C     C_R   0.636172 0.080133 0.535817 -0.056892
C4    C     C_R   0.357532 0.927894 0.515102 -0.062573
C5    C     C_R   0.672733 0.004435 0.587908 -0.002936
C6    C     C_R   0.317831 0.002919 0.500603 0.042426
C7    C     C_R   0.530256 0.056489 0.524317 0.052095
C8    C     C_R   0.462596 0.954599 0.542467 0.049722
C9    C     C_R   0.499766 0.883116 0.598217 -0.326663
C10   C     C_R   0.489929 0.131247 0.503341 -0.347477
C11   C     C_R   0.603123 0.906743 0.622779 0.448018
C12   C     C_R   0.385448 0.106144 0.492075 0.468475
C13   C     C_R   0.694097 0.628647 0.316362 0.097883
C14   C     C_R   0.279522 0.330134 0.665091 0.030515
C15   C     C_R   0.787738 0.627264 0.359144 0.244434
C16   C     C_R   0.201921 0.365966 0.637104 0.261802
C17   C     C_R   0.715779 0.508682 0.494446 0.303119
C18   C     C_R   0.280663 0.477666 0.501571 0.273424
C19   C     C_R   0.616625 0.506159 0.454072 -0.160891
C20   C     C_R   0.358726 0.438579 0.522456 -0.148548
C21   C     C_R   0.607046 0.564061 0.360616 0.028741
C22   C     C_R   0.358628 0.366059 0.607841 0.073949
C23   C     C_R   0.999958 0.499725 0.668801 0.813435
C24   C     C_R   0.000039 0.500259 0.331203 0.795499
C25   C     C_R   0.527500 0.452490 0.502406 0.047237
C26   C     C_R   0.438724 0.471082 0.464432 0.058654
C27   C     C_R   0.428236 0.510261 0.366006 -0.338206
C28   C     C_R   0.519443 0.373840 0.581117 -0.378119
C29   C     C_R   0.510606 0.557366 0.313747 0.460613
C30   C     C_R   0.436599 0.329371 0.632983 0.510379
C31   C     C_1   0.000110 0.499675 0.771220 -0.177108
C32   C     C_1   0.999908 0.500300 0.228788 -0.192660
C33   C     C_1   0.000118 0.499739 0.856650 -0.000131
C34   C     C_1   0.999930 0.500228 0.143365 -0.002260
C35   C     C_1   0.000068 0.499902 0.957311 0.012963
C36   C     C_1   0.000005 0.500062 0.042710 0.012607
C37   C     C_R   0.810820 0.202349 0.524073 -0.178545
C38   C     C_R   0.186980 0.797441 0.491956 -0.116390
C39   C     C_R   0.777785 0.027678 0.602310 0.158250
C40   C     C_R   0.212109 0.972226 0.495665 0.086006
C41   C     C_R   0.845965 0.125457 0.570055 0.268000
C42   C     C_R   0.147309 0.867872 0.497975 0.282839
C43   C     C_R   0.706592 0.175609 0.495246 0.073612
C44   C     C_R   0.292043 0.829428 0.496083 0.046756
Cu1   Cu    Cu3+1 0.081740 0.475690 0.523180 0.975949
Cu2   Cu    Cu3+1 0.918260 0.524310 0.476820 0.971774
H1    H     H_    0.354837 0.499991 0.327161 0.140717
H2    H     H_    0.572112 0.338392 0.598382 0.131718
H3    H     H_    0.448049 0.810210 0.629731 0.145003
H4    H     H_    0.538795 0.209646 0.503541 0.141413
N1    N     N_R   0.795420 0.560790 0.441960 -0.180282
N2    N     N_R   0.204580 0.439210 0.558040 -0.168805
O1    O     O_R   0.977910 0.338120 0.530560 -0.545700
O2    O     O_R   0.022090 0.661880 0.469440 -0.540583
O3    O     O_R   0.839850 0.379180 0.491410 -0.571886
O4    O     O_R   0.160150 0.620820 0.508590 -0.541559
O5    O     O_R   0.069040 0.479460 0.643530 -0.542508
O6    O     O_R   0.930960 0.520540 0.356470 -0.576391
O7    O     O_R   0.930990 0.520530 0.604380 -0.522915
O8    O     O_R   0.069010 0.479470 0.395620 -0.554660
O9    O     O_3   0.636549 0.834905 0.680783 -0.695921
H5    H     H_    0.578160 0.770744 0.697200 0.319825
O10   O     O_3   0.348924 0.181939 0.468916 -0.692044
H6    H     H_    0.404072 0.247868 0.449860 0.321372
N3    N     N_3   0.329819 0.768312 0.463747 -0.560733
H7    H     H_    0.390493 0.813949 0.424599 0.231959
H8    H     H_    0.351961 0.722435 0.522921 0.239282
N4    N     N_3   0.677126 0.235727 0.409491 -0.572910
H9    H     H_    0.613911 0.190444 0.368224 0.236987
H10   H     H_    0.663699 0.293391 0.427061 0.232917
O11   O     O_3   0.045372 0.832512 0.504658 -0.734105
H11   H     H_    0.027420 0.886539 0.514718 0.320844
O12   O     O_3   0.946494 0.141900 0.582027 -0.753608
H12   H     H_    0.972725 0.179051 0.519845 0.340921
N5    N     N_3   0.816471 0.951360 0.648021 -0.475731
H13   H     H_    0.855549 0.943235 0.599617 0.234999
H14   H     H_    0.867239 0.976015 0.708627 0.249261
N6    N     N_3   0.171599 0.046420 0.491459 -0.497977
H15   H     H_    0.116489 0.042227 0.431534 0.221523
H16   H     H_    0.140057 0.032088 0.554865 0.223175
O13   O     O_3   0.497525 0.595855 0.216494 -0.695820
H17   H     H_    0.425998 0.586215 0.195726 0.319144
O14   O     O_3   0.430833 0.249068 0.707698 -0.684558
H18   H     H_    0.491203 0.233104 0.715722 0.318092
N7    N     N_3   0.283956 0.563661 0.428764 -0.528286
H19   H     H_    0.358065 0.615933 0.423355 0.211615
H20   H     H_    0.247158 0.540281 0.362808 0.218940
N8    N     N_3   0.739038 0.468957 0.593160 -0.538825
H21   H     H_    0.703970 0.484983 0.639733 0.220333
H22   H     H_    0.727318 0.392684 0.601340 0.211413
N9    N     N_3   0.119060 0.325783 0.692470 -0.504790
H23   H     H_    0.085222 0.247078 0.696739 0.243226
H24   H     H_    0.146208 0.342800 0.762333 0.188062
N10   N     N_3   0.875063 0.702800 0.317605 -0.612940
H25   H     H_    0.914559 0.670844 0.293308 0.254429
H26   H     H_    0.920652 0.749134 0.368191 0.283987
N11   N     N_3   0.688684 0.699325 0.229536 -0.488430
H27   H     H_    0.733000 0.772971 0.243623 0.230346
H28   H     H_    0.718263 0.685692 0.176528 0.244749
N12   N     N_3   0.277870 0.257804 0.752180 -0.495671
H29   H     H_    0.212960 0.191593 0.745940 0.230384
H30   H     H_    0.277520 0.288595 0.810674 0.211365

loop_
_geom_bond_atom_site_label_1
_geom_bond_atom_site_label_2
_ccdc_geom_bond_type
C7    C10   A    
Cu1   O8    S    
Cu2   O7    S    
C27   C29   A    
C17   N8    S    
O12   H12   S    
C35   C36   T    
C4    C8    A    
C17   N1    A    
C15   N10   S    
O13   H17   S    
C18   N2    A    
C7    C8    A    
C39   C41   A    
Cu1   Cu2   S    
C25   C28   A    
C23   O7    A    
Cu1   O5    S    
C26   C27   A    
C19   C21   A    
C5    C11   A    
C3    C7    A    
C6    C12   A    
N6    H16   S    
C30   O14   S    
C1    O1    A    
N12   H29   S    
C33   C35   S    
Cu1   O4    S    
N4    H9    S    
N3    H8    S    
Cu2   O3    S    
C31   C33   T    
C15   N1    A    
C18   C20   A    
C1    C37   S    
C40   C42   A    
Cu1   O1    S    
Cu2   O6    S    
C13   N11   S    
C44   N3    S    
N10   H25   S    
N11   H28   S    
N11   H27   S    
N7    H20   S    
C18   N7    S    
C6    C40   A    
C9    H3    S    
C4    C6    A    
C2    O2    A    
N9    H23   S    
C12   O10   S    
N6    H15   S    
C8    C9    A    
C4    C44   A    
Cu1   N2    S    
C3    C5    A    
C25   C26   A    
N7    H19   S    
C21   C29   A    
Cu2   N1    S    
C23   C31   S    
C37   C43   A    
N5    H13   S    
C24   C32   S    
C38   C44   A    
N9    H24   S    
C9    C11   A    
C2    C38   S    
O14   H18   S    
C24   O8    A    
C3    C43   A    
Cu2   O2    S    
N12   H30   S    
C13   C21   A    
N10   H26   S    
N5    H14   S    
C10   C12   A    
C40   N6    S    
C24   O6    A    
C20   C22   A    
C29   O13   S    
C39   N5    S    
C13   C15   A    
C14   C16   A    
C10   H4    S    
C27   H1    S    
C23   O5    A    
C28   H2    S    
C22   C30   A    
C16   N2    A    
N8    H22   S    
C11   O9    S    
C14   N12   S    
C43   N4    S    
C14   C22   A    
C5    C39   A    
C1    O3    A    
O11   H11   S    
C2    O4    A    
C20   C26   A    
C28   C30   A    
C42   O11   S    
C17   C19   A    
C34   C36   S    
C37   C41   A    
O9    H5    S    
C19   C25   A    
C41   O12   S    
O10   H6    S    
C38   C42   A    
N8    H21   S    
C16   N9    S    
N4    H10   S    
N3    H7    S    
C32   C34   T    
