data_mof_unit_30197.cif
_audit_creation_date              2013-03-05T15:41:27-0500
_audit_creation_method            fapswitch 2.2
_symmetry_space_group_name_H-M    P1
_symmetry_Int_Tables_number       1
_space_group_crystal_system       triclinic
_cell_length_a                    11.755674
_cell_length_b                    18.745161
_cell_length_c                    10.109984
_cell_angle_alpha                 89.854709
_cell_angle_beta                  111.339354
_cell_angle_gamma                 90.501771
_cell_volume                      2075.0377576

loop_
_atom_site_label
_atom_site_type_symbol
_atom_site_description
_atom_site_fract_x
_atom_site_fract_y
_atom_site_fract_z
_atom_type_partial_charge
O1    O     O_R   0.267710 0.668200 0.902110 -0.472660
O2    O     O_R   0.732290 0.331800 0.097890 -0.488067
O3    O     O_R   0.732290 0.168200 0.097890 -0.550048
O4    O     O_R   0.267710 0.831800 0.902110 -0.475002
O5    O     O_R   0.099480 0.674460 0.038850 -0.528385
O6    O     O_R   0.900520 0.325540 0.961150 -0.535483
O7    O     O_R   0.900520 0.174460 0.961150 -0.544086
O8    O     O_R   0.099480 0.825540 0.038850 -0.523896
C1    C     C_R   0.075467 0.645646 0.139835 0.583927
C2    C     C_R   0.926252 0.353355 0.859609 0.579153
C3    C     C_R   0.929218 0.147628 0.860966 0.617968
C4    C     C_R   0.075891 0.854390 0.141144 0.583319
O9    O     O_R   0.116720 0.669210 0.267660 -0.470863
O10   O     O_R   0.883280 0.330790 0.732340 -0.481542
O11   O     O_R   0.883280 0.169210 0.732340 -0.458618
O12   O     O_R   0.116720 0.830790 0.267660 -0.470075
O13   O     O_R   0.366710 0.675440 0.427590 -0.532262
O14   O     O_R   0.633290 0.324560 0.572410 -0.531986
O15   O     O_R   0.633290 0.175440 0.572410 -0.513311
O16   O     O_R   0.366710 0.824560 0.427590 -0.531999
C5    C     C_R   0.466230 0.645694 0.438291 0.590376
C6    C     C_R   0.532941 0.353704 0.560893 0.535001
C7    C     C_R   0.532388 0.146264 0.560821 0.590726
C8    C     C_R   0.468193 0.853691 0.439330 0.568876
O17   O     O_R   0.534870 0.669390 0.371760 -0.494604
O18   O     O_R   0.465130 0.330610 0.628240 -0.483926
O19   O     O_R   0.465130 0.169390 0.628240 -0.493543
O20   O     O_R   0.534870 0.830610 0.371760 -0.465412
O21   O     O_R   0.453080 0.674480 0.075160 -0.516414
O22   O     O_R   0.546920 0.325520 0.924840 -0.519627
O23   O     O_R   0.546920 0.174480 0.924840 -0.507730
O24   O     O_R   0.453080 0.825520 0.075160 -0.490677
C9    C     C_R   0.375250 0.643981 0.968566 0.578558
C10   C     C_R   0.623822 0.353270 0.038190 0.547817
C11   C     C_R   0.649586 0.140358 0.983412 0.625853
C12   C     C_R   0.378326 0.854686 0.963894 0.573558
Cr1   Cr    Cr6+3 0.187610 0.750000 0.979860 1.035956
Cr2   Cr    Cr6+3 0.812390 0.250000 0.020140 0.995606
Cr3   Cr    Cr6+3 0.245810 0.750000 0.341640 1.040610
Cr4   Cr    Cr6+3 0.754190 0.250000 0.658360 1.043849
Cr5   Cr    Cr6+3 0.485760 0.750000 0.219910 1.015891
Cr6   Cr    Cr6+3 0.514240 0.250000 0.780090 1.044787
O25   O     O_3   0.306390 0.750000 0.180470 -0.277469
O26   O     O_3   0.693610 0.250000 0.819530 -0.283660
C13   C     C_R   0.509191 0.424424 0.492040 -0.045652
C14   C     C_R   0.485410 0.573403 0.502552 -0.017219
C15   C     C_R   0.493175 0.925466 0.504125 -0.032627
C16   C     C_R   0.509309 0.074780 0.494847 -0.016152
C17   C     C_R   0.283518 0.409672 0.421868 0.176834
C18   C     C_R   0.709371 0.586009 0.603345 0.164778
C19   C     C_R   0.716623 0.917661 0.549163 0.202508
C20   C     C_R   0.285670 0.082700 0.427498 0.167469
C21   C     C_R   0.181126 0.436088 0.443833 -0.075478
C22   C     C_R   0.821855 0.559486 0.608873 -0.107295
C23   C     C_R   0.816130 0.948221 0.525226 -0.083293
C24   C     C_R   0.178134 0.052244 0.431044 -0.082389
C25   C     C_R   0.176728 0.506546 0.478107 -0.094300
C26   C     C_R   0.828658 0.491376 0.559198 -0.081453
C27   C     C_R   0.812680 0.018614 0.483114 -0.133799
C28   C     C_R   0.177642 0.982293 0.474198 -0.077644
C29   C     C_R   0.272142 0.552846 0.487913 -0.073266
C30   C     C_R   0.725698 0.447140 0.514574 -0.050856
C31   C     C_R   0.713949 0.060804 0.474839 -0.067147
C32   C     C_R   0.281652 0.940774 0.504734 -0.070775
C33   C     C_R   0.382423 0.527545 0.480355 -0.056252
C34   C     C_R   0.612003 0.470850 0.515584 -0.054000
C35   C     C_R   0.610166 0.032060 0.497114 0.013981
C36   C     C_R   0.390732 0.968754 0.494822 -0.056771
C37   C     C_R   0.391823 0.453276 0.460992 -0.002400
C38   C     C_R   0.601952 0.543829 0.541610 0.020119
C39   C     C_R   0.606684 0.957837 0.519233 0.058879
C40   C     C_R   0.395507 0.042574 0.472033 0.018891
H1    H     H_    0.102525 0.402355 0.430774 0.155662
H2    H     H_    0.904288 0.591436 0.652632 0.135612
H3    H     H_    0.897493 0.917403 0.540956 0.148546
H4    H     H_    0.094837 0.082923 0.399851 0.123090
H5    H     H_    0.098446 0.525359 0.499235 0.214155
H6    H     H_    0.914688 0.472049 0.557900 0.185807
H7    H     H_    0.889047 0.041458 0.461558 0.144940
H8    H     H_    0.096579 0.960050 0.485605 0.188300
H9    H     H_    0.262912 0.605969 0.522777 0.198553
H10   H     H_    0.735670 0.395762 0.472328 0.194136
H11   H     H_    0.719099 0.115146 0.442592 0.143484
H12   H     H_    0.277172 0.888489 0.547574 0.176887
C41   C     C_2   0.418166 0.923299 0.922147 0.031616
C42   C     C_2   0.636605 0.062783 0.979643 0.013531
C43   C     C_2   0.604942 0.424685 0.076627 0.034174
C44   C     C_2   0.406182 0.572104 0.940223 0.027581
C45   C     C_2   0.530443 0.951667 0.998708 0.086602
C46   C     C_2   0.545267 0.030145 0.008734 0.070886
C47   C     C_2   0.495276 0.455886 0.031481 0.053619
C48   C     C_2   0.488224 0.533674 0.046315 0.078363
H13   H     H_    0.970158 0.067245 0.082109 0.139486
H14   H     H_    0.107628 0.951970 0.980597 0.176212
H15   H     H_    0.049404 0.563392 0.921793 0.175940
H16   H     H_    0.880174 0.456271 0.993531 0.139718
C49   C     C_2   0.016662 0.923952 0.118094 0.016710
C50   C     C_2   0.996765 0.080422 0.889330 0.038394
C51   C     C_2   0.992221 0.420626 0.887681 0.000672
C52   C     C_2   0.011782 0.577257 0.109275 0.000610
C53   C     C_2   0.045966 0.969495 0.031852 -0.203710
C54   C     C_2   0.002337 0.042976 0.005463 -0.194867
C55   C     C_2   0.955712 0.469309 0.960359 -0.221088
C56   C     C_2   0.009629 0.540521 0.994003 -0.223006
N1    N     N_2   0.274618 0.340800 0.357612 -0.509323
H17   H     H_    0.349356 0.323680 0.336686 0.242174
C57   C     C_3   0.158542 0.323755 0.245500 -0.301873
H18   H     H_    0.172396 0.290154 0.163284 0.122469
H19   H     H_    0.111859 0.372675 0.190343 0.149249
H20   H     H_    0.098590 0.294552 0.290788 0.161621
N2    N     N_2   0.706389 0.651472 0.673244 -0.504380
H21   H     H_    0.778914 0.685235 0.683636 0.251613
C58   C     C_3   0.687692 0.641987 0.806285 -0.319352
H22   H     H_    0.688687 0.694409 0.857200 0.122012
H23   H     H_    0.761746 0.608976 0.880434 0.146164
H24   H     H_    0.598121 0.615855 0.788248 0.139668
N3    N     N_2   0.728921 0.846652 0.603395 -0.489594
H25   H     H_    0.800448 0.817296 0.596578 0.250041
C59   C     C_3   0.705224 0.835456 0.732457 -0.316402
H26   H     H_    0.631060 0.795303 0.712003 0.161592
H27   H     H_    0.675786 0.885139 0.769430 0.146042
H28   H     H_    0.788983 0.815842 0.817673 0.129596
N4    N     N_2   0.280051 0.150984 0.364551 -0.519130
H29   H     H_    0.242247 0.189421 0.408373 0.284567
C60   C     C_3   0.227711 0.150328 0.210884 -0.334072
H30   H     H_    0.276986 0.189500 0.168767 0.142376
H31   H     H_    0.129686 0.164639 0.174249 0.142374
H32   H     H_    0.235670 0.097164 0.166571 0.171542
N5    N     N_2   0.454502 0.069582 0.040398 -0.514085
H33   H     H_    0.386211 0.091232 0.954297 0.273454
C61   C     C_3   0.494254 0.114863 0.164089 -0.269483
H34   H     H_    0.469770 0.171266 0.133916 0.150195
H35   H     H_    0.593734 0.111897 0.220702 0.157818
H36   H     H_    0.447531 0.097149 0.234408 0.160563
N6    N     N_2   0.627008 0.910426 0.096866 -0.481932
H37   H     H_    0.692479 0.938468 0.176492 0.275851
C62   C     C_3   0.670628 0.847826 0.045611 -0.246558
H38   H     H_    0.686786 0.804284 0.124817 0.177728
H39   H     H_    0.758146 0.859285 0.032282 0.130755
H40   H     H_    0.603722 0.828548 0.942868 0.107537
N7    N     N_2   0.555128 0.564237 0.183331 -0.475715
H41   H     H_    0.567131 0.529568 0.265959 0.262964
C63   C     C_3   0.663354 0.607702 0.199777 -0.206549
H42   H     H_    0.742279 0.585430 0.286242 0.213991
H43   H     H_    0.655837 0.662701 0.234030 0.191727
H44   H     H_    0.680230 0.612593 0.099000 0.102734
N8    N     N_2   0.384692 0.415330 0.977793 -0.520883
H45   H     H_    0.367995 0.388989 0.883266 0.301549
C64   C     C_3   0.355988 0.374806 0.082941 -0.300903
H46   H     H_    0.270089 0.344470 0.030427 0.155626
H47   H     H_    0.343424 0.411962 0.161634 0.166699
H48   H     H_    0.429518 0.336245 0.137057 0.133983
C65   C     C_2   0.709766 0.023350 0.912924 0.128753
H49   H     H_    0.744436 0.971145 0.949050 0.114280
O27   O     O_2   0.728326 0.048683 0.811559 -0.533878
C66   C     C_2   0.327056 0.966586 0.811810 0.182155
H50   H     H_    0.355175 0.013297 0.767467 0.134349
O28   O     O_2   0.219408 0.950032 0.767478 -0.535849
C67   C     C_2   0.331052 0.539133 0.804606 0.173577
H51   H     H_    0.367976 0.497447 0.758143 0.128816
O29   O     O_2   0.224895 0.556877 0.746578 -0.539157
C68   C     C_2   0.718653 0.465331 0.139820 0.205623
H52   H     H_    0.742539 0.505095 0.076729 0.077355
O30   O     O_2   0.787721 0.451235 0.259710 -0.543353
C69   C     C_2   0.035003 0.050343 0.777358 0.255586
H53   H     H_    0.024673 0.993806 0.754894 0.154040
O31   O     O_2   0.075276 0.088985 0.707011 -0.509709
C70   C     C_2   0.939648 0.943246 0.201514 0.154220
H54   H     H_    0.898699 0.995184 0.194426 0.087144
O32   O     O_2   0.919907 0.899666 0.280719 -0.541728
C71   C     C_2   0.970960 0.545929 0.217278 0.190670
H55   H     H_    0.969518 0.488638 0.228549 0.151861
O33   O     O_2   0.944793 0.584044 0.299365 -0.534600
C72   C     C_2   0.095470 0.432076 0.839844 0.205015
H56   H     H_    0.162206 0.473004 0.889510 0.178797
O34   O     O_2   0.109291 0.394149 0.748907 -0.505797

loop_
_geom_bond_atom_site_label_1
_geom_bond_atom_site_label_2
_geom_bond_distance
_ccdc_geom_bond_type
C26   C30   1.393922 A    
C63   H44   1.110016 S    
C51   C55   1.340398 D    
C71   H55   1.080308 S    
O4    C12   1.290584 A    
C53   C54   1.463709 S    
C45   N6    1.436215 S    
O23   Cr6   1.970550 S    
C43   C47   1.340169 D    
Cr5   O25   1.998334 S    
N1    H17   1.029676 S    
N2    H21   1.031591 S    
C61   H36   1.094141 S    
N3    C59   1.444408 S    
C47   N8    1.426104 S    
O1    C9    1.282987 A    
N6    H37   1.029988 S    
O7    C3    1.283328 A    
C71   O33   1.219205 D    
C69   H53   1.080937 S    
Cr6   O26   1.998334 S    
C3    C50   1.466204 S    
C24   H4    1.083155 S    
C32   C36   1.418081 A    
C66   H50   1.085223 S    
N8    C64   1.439949 S    
C42   C65   1.475433 S    
C41   C45   1.367573 D    
C68   H52   1.079621 S    
C23   C27   1.381879 A    
C64   H47   1.109052 S    
C11   C42   1.459950 S    
C33   C37   1.417230 A    
N4    C60   1.447956 S    
C64   H46   1.107342 S    
O5    Cr1   1.963116 S    
C63   H42   1.101795 S    
O21   C9    1.265582 A    
O20   Cr5   2.079629 S    
C52   C56   1.347332 D    
C63   H43   1.102861 S    
O13   Cr3   1.964249 S    
C44   C67   1.468112 S    
C1    O9    1.281945 A    
C72   H56   1.077466 S    
C32   H12   1.079110 S    
O14   Cr4   1.964247 S    
N8    H45   1.029461 S    
C22   H2    1.082894 S    
C46   N5    1.432154 S    
C3    O11   1.279227 A    
C4    O12   1.271285 A    
O3    Cr2   2.088780 S    
C60   H32   1.112208 S    
O24   Cr5   1.970548 S    
O6    Cr2   1.963114 S    
C7    O19   1.295134 A    
O8    C4    1.285733 A    
C65   O27   1.217276 D    
C19   C23   1.395954 A    
O1    Cr1   2.103760 S    
C58   H24   1.110694 S    
C23   H3    1.082761 S    
O2    C10   1.264842 A    
C70   O32   1.221069 D    
C30   H10   1.078998 S    
C69   O31   1.221088 D    
C17   C37   1.436128 A    
C52   C71   1.463067 S    
C57   H19   1.111993 S    
C19   C39   1.435391 A    
C16   C40   1.403361 A    
Cr2   O26   2.000532 S    
C68   O30   1.218245 D    
C59   H27   1.108325 S    
C62   H40   1.109279 S    
C31   C35   1.420329 A    
C14   C38   1.399537 A    
O22   C10   1.281371 A    
C13   C37   1.411290 A    
C25   H5    1.079810 S    
N4    H29   1.031231 S    
H14   C53   1.086406 S    
C14   C33   1.428303 A    
C2    O10   1.271077 A    
C64   H48   1.110741 S    
O17   Cr5   2.081319 S    
C47   C48   1.472344 S    
O16   Cr3   1.949616 S    
C30   C34   1.415756 A    
C17   N1    1.432509 S    
C50   C54   1.347659 D    
O13   C5    1.268997 A    
C24   C28   1.381507 A    
C31   H11   1.076665 S    
C41   C66   1.480208 S    
Cr1   O25   2.000532 S    
O15   C7    1.267929 A    
O5    C1    1.272024 A    
C20   C40   1.424042 A    
N1    C57   1.455130 S    
O2    Cr2   2.103759 S    
C67   H51   1.084373 S    
O3    C11   1.316203 A    
C36   C40   1.406225 A    
C6    C13   1.476573 S    
C67   O29   1.218873 D    
C20   N4    1.419342 S    
N2    C58   1.449940 S    
C44   C48   1.361975 D    
C48   N7    1.438365 S    
C62   H39   1.104402 S    
C15   C39   1.417760 A    
C4    C49   1.461382 S    
C70   H54   1.080503 S    
C5    C14   1.484421 S    
C1    C52   1.454735 S    
C42   C46   1.353198 D    
C60   H30   1.107480 S    
C57   H20   1.110330 S    
O23   C11   1.306854 A    
O8    Cr1   1.978326 S    
C57   H18   1.103226 S    
C27   H7    1.082576 S    
C61   H34   1.110651 S    
C45   C46   1.479245 S    
O24   C12   1.273739 A    
C15   C36   1.432431 A    
C55   C56   1.459419 S    
H15   C56   1.085695 S    
O18   Cr6   2.081319 S    
C58   H22   1.108465 S    
C22   C26   1.386693 A    
C59   H28   1.110985 S    
N6    C62   1.454451 S    
C5    O17   1.299246 A    
C28   H8    1.080754 S    
C21   C25   1.372465 A    
C7    C16   1.476651 S    
O21   Cr5   1.971048 S    
O14   C6    1.270674 A    
C8    C15   1.477534 S    
C9    C44   1.454664 S    
C21   H1    1.082806 S    
C8    O20   1.290499 A    
C61   H35   1.100974 S    
H13   C54   1.081045 S    
O6    C2    1.279737 A    
Cr3   O25   2.001680 S    
C59   H26   1.107926 S    
C25   C29   1.386961 A    
C12   C41   1.477254 S    
C49   C70   1.491547 S    
C62   H38   1.110040 S    
C27   C31   1.387314 A    
C28   C32   1.391677 A    
N7    C63   1.462436 S    
N5    H33   1.030664 S    
C18   C22   1.398722 A    
C29   H9    1.076636 S    
N7    H41   1.026230 S    
O19   Cr6   2.079631 S    
C34   C38   1.407810 A    
C51   C72   1.474885 S    
C17   C21   1.396034 A    
C66   O28   1.216406 D    
C18   N2    1.424645 S    
C19   N3    1.426613 S    
O7    Cr2   1.978327 S    
C35   C39   1.411219 A    
C10   C43   1.436298 S    
C16   C35   1.429794 A    
C18   C38   1.421525 A    
C2    C51   1.447976 S    
C72   O34   1.221123 D    
O11   Cr4   2.089085 S    
O9    Cr3   2.072501 S    
C50   C69   1.476309 S    
O15   Cr4   1.949617 S    
C26   H6    1.081817 S    
O12   Cr3   2.089084 S    
O10   Cr4   2.072499 S    
C29   C33   1.412283 A    
Cr4   O26   2.001681 S    
C43   C68   1.462419 S    
O4    Cr1   2.088778 S    
C6    O18   1.293810 A    
H16   C55   1.083177 S    
C13   C34   1.431102 A    
C60   H31   1.109663 S    
O22   Cr6   1.971047 S    
C58   H23   1.111248 S    
C65   H49   1.074243 S    
N3    H25   1.032012 S    
O16   C8    1.273346 A    
C49   C53   1.348104 D    
C20   C24   1.394833 A    
N5    C61   1.440745 S    
