data_mof_unit_24770.cif
_audit_creation_date              2012-12-10T17:02:59-0500
_audit_creation_method            fapswitch 2.2
_symmetry_space_group_name_H-M    P1
_symmetry_Int_Tables_number       1
_space_group_crystal_system       triclinic
_cell_length_a                    9.811087
_cell_length_b                    11.045692
_cell_length_c                    13.343294
_cell_angle_alpha                 94.016032
_cell_angle_beta                  82.047021
_cell_angle_gamma                 111.199544
_cell_volume                      1334.87936119

loop_
_atom_site_label
_atom_site_type_symbol
_atom_type_description
_atom_site_fract_x
_atom_site_fract_y
_atom_site_fract_z
_atom_type_partial_charge
C1    C     C_R   0.556519 0.745476 0.507186 0.876931
C2    C     C_R   0.422891 0.418518 0.968859 0.073409
C3    C     C_R   0.466337 0.423591 0.862870 0.063832
C4    C     C_R   0.536706 0.450723 0.033011 0.020838
C5    C     C_R   0.679888 0.452895 0.993016 0.057023
C6    C     C_R   0.705200 0.420231 0.890851 -0.255398
C7    C     C_R   0.601161 0.407755 0.826603 -0.179196
C8    C     C_R   0.515294 0.489792 0.134027 -0.246362
C9    C     C_R   0.757994 0.501410 0.160892 -0.191534
C10   C     C_R   0.370210 0.437094 0.797138 -0.117335
C11   C     C_2   0.588449 0.884568 0.511021 -0.358838
C12   C     C_R   0.420674 0.474988 0.689871 0.802523
C13   C     C_2   0.484398 0.930602 0.497428 -0.151845
C14   C     C_2   0.411851 0.115508 0.488109 -0.353676
C15   C     C_2   0.516018 0.069485 0.501404 -0.155360
C16   C     C_2   0.922061 0.489543 0.491596 -0.082332
C17   C     C_2   0.077198 0.509169 0.509298 -0.075541
C18   C     C_R   0.443592 0.254542 0.492518 0.857867
C19   C     C_R   0.577187 0.511222 0.309128 0.828789
C20   C     C_R   0.792558 0.484664 0.057346 0.394346
C21   C     C_R   0.619272 0.503610 0.199738 -0.148816
C22   C     C_R   0.222928 0.413171 0.835129 -0.237244
C23   C     C_R   0.171265 0.373875 0.934191 -0.140286
C24   C     C_R   0.267811 0.374551 0.003000 0.107204
Cu1   Cu    Cu3+1 0.362000 0.479240 0.482530 0.931095
Cu2   Cu    Cu3+1 0.638000 0.520760 0.517470 0.932345
H1    H     H_    0.841771 0.516986 0.210435 0.173531
H2    H     H_    0.374877 0.865631 0.483373 0.181240
H3    H     H_    0.302544 0.050295 0.473961 0.151191
H4    H     H_    0.697794 0.949830 0.525031 0.150250
H5    H     H_    0.126079 0.576898 0.568552 0.159431
H6    H     H_    0.872515 0.420616 0.433183 0.160308
H7    H     H_    0.106049 0.385180 0.399853 0.188572
H8    H     H_    0.895247 0.617162 0.598495 0.193590
H9    H     H_    0.805902 0.405828 0.858906 0.144405
H10   H     H_    0.420101 0.513946 0.161971 0.170930
H11   H     H_    0.144946 0.417170 0.786533 0.161085
H12   H     H_    0.053623 0.340099 0.956488 0.179071
H13   H     H_    0.626007 0.379169 0.749291 0.179777
H14   H     H_    0.625514 0.134453 0.515523 0.178833
N1    N     N_2   0.845330 0.551960 0.543750 -0.289264
N2    N     N_2   0.154690 0.448120 0.456210 -0.287473
O1    O     O_R   0.426290 0.668220 0.490680 -0.575629
O2    O     O_R   0.659360 0.703290 0.520190 -0.568426
O3    O     O_R   0.326580 0.473880 0.629020 -0.577153
O4    O     O_R   0.559660 0.508940 0.658530 -0.580785
O5    O     O_R   0.340640 0.296710 0.479810 -0.578734
O6    O     O_R   0.573710 0.331780 0.509320 -0.587058
O7    O     O_R   0.440340 0.491060 0.341470 -0.576570
O8    O     O_R   0.673420 0.526120 0.370980 -0.580981
O9    O     O_3   0.937201 0.501921 0.022874 -0.766104
H15   H     H_    0.960335 0.536134 0.953556 0.316143
C25   C     C_3   0.196359 0.307078 0.103264 -0.404405
C26   C     C_3   0.243913 0.192238 0.118890 -0.339639
C27   C     C_3   0.173226 0.128776 0.220484 -0.839732
H16   H     H_    0.208210 0.199850 0.283560 0.264737
H17   H     H_    0.051235 0.092273 0.224507 0.250731
H18   H     H_    0.208500 0.045669 0.229393 0.245127
H19   H     H_    0.210482 0.118761 0.057030 0.222134
H20   H     H_    0.365100 0.224216 0.117083 0.232813
H21   H     H_    0.212734 0.375009 0.168925 0.196749
H22   H     H_    0.074494 0.266880 0.104648 0.198861

loop_
_geom_bond_atom_site_label_1
_geom_bond_atom_site_label_2
_ccdc_geom_bond_type
Cu1   N2    S    
C2    C4    A    
C23   C24   A    
C13   H2    S    
C6    C7    A    
C16   H6    S    
C23   H12   S    
C25   H22   S    
C14   C18   S    
C9    C20   A    
C1    C11   S    
C13   C15   S    
Cu2   O6    S    
C4    C8    A    
C18   O5    A    
Cu1   O1    S    
C27   H16   S    
C27   H17   S    
C2    C3    A    
C24   C25   S    
Cu2   O2    S    
C3    C10   A    
C26   H20   S    
C25   C26   S    
C10   C22   A    
C11   C13   D    
C19   O8    A    
C9    C21   A    
C16   C17   S    
H8    N1    S    
C10   C12   S    
H7    N2    S    
C19   C21   S    
C8    C21   A    
C20   O9    S    
C3    C7    A    
C26   H19   S    
Cu2   O8    S    
C2    C24   A    
C5    C6    A    
C17   H5    S    
Cu1   O7    S    
C15   H14   S    
Cu2   O4    S    
C14   H3    S    
C25   H21   S    
O9    H15   S    
Cu1   O3    S    
Cu2   N1    S    
C6    H9    S    
C9    H1    S    
C12   O4    A    
C8    H10   S    
C27   H18   S    
C5    C20   A    
C7    H13   S    
C17   N2    D    
C4    C5    A    
Cu1   O5    S    
C1    O2    A    
Cu1   Cu2   S    
C26   C27   S    
C22   H11   S    
C19   O7    A    
C16   N1    D    
C1    O1    A    
C22   C23   A    
C14   C15   D    
C11   H4    S    
C12   O3    A    
C18   O6    A    
