data_mof_unit_53654.cif
_audit_creation_date              2012-12-10T17:32:15-0500
_audit_creation_method            fapswitch 2.2
_symmetry_space_group_name_H-M    P1
_symmetry_Int_Tables_number       1
_space_group_crystal_system       triclinic
_cell_length_a                    12.316641
_cell_length_b                    13.191755
_cell_length_c                    15.057493
_cell_angle_alpha                 77.452935
_cell_angle_beta                  101.43187
_cell_angle_gamma                 116.625269
_cell_volume                      2120.54036488

loop_
_atom_site_label
_atom_site_type_symbol
_atom_type_description
_atom_site_fract_x
_atom_site_fract_y
_atom_site_fract_z
_atom_type_partial_charge
C1    C     C_R   0.854860 0.286563 0.508144 0.776982
C2    C     C_R   0.897083 0.498244 0.076876 0.032308
C3    C     C_R   0.200632 0.499241 0.078654 -0.217586
C4    C     C_R   0.200262 0.499061 0.986132 -0.213529
C5    C     C_R   0.099567 0.498683 0.923319 0.136493
C6    C     C_R   0.997960 0.498630 0.953336 -0.004731
C7    C     C_R   0.895958 0.498044 0.890383 -0.001474
C8    C     C_R   0.795067 0.498168 0.921109 0.487797
C9    C     C_R   0.795819 0.496854 0.014446 -0.301876
C10   C     C_R   0.098999 0.498529 0.830871 -0.240349
C11   C     C_R   0.998533 0.498654 0.768067 -0.090406
C12   C     C_R   0.999405 0.499448 0.671197 0.809790
C13   C     C_R   0.897396 0.497998 0.797881 -0.221220
C14   C     C_R   0.275523 0.021081 0.376746 -0.190045
C15   C     C_R   0.227914 0.834499 0.467415 -0.049123
C16   C     C_R   0.815509 0.085420 0.569155 -0.185935
C17   C     C_R   0.736681 0.970546 0.587499 -0.147621
C18   C     C_R   0.613302 0.932730 0.554864 -0.182808
C19   C     C_R   0.566581 0.009358 0.499618 0.080698
C20   C     C_R   0.650152 0.123676 0.472186 0.081904
C21   C     C_R   0.439899 0.976041 0.469866 0.073335
C22   C     C_R   0.400300 0.053087 0.406640 0.166148
C23   C     C_R   0.145095 0.713412 0.486480 0.801235
C24   C     C_R   0.485753 0.160085 0.372197 -0.240479
C25   C     C_R   0.608924 0.194291 0.403317 -0.198236
C26   C     C_R   0.350947 0.868543 0.501666 -0.252704
C27   C     C_R   0.189623 0.911815 0.406514 -0.194583
C28   C     C_R   0.773102 0.163560 0.513687 -0.101781
C29   C     C_R   0.348577 0.330597 0.647632 -0.285682
C30   C     C_R   0.758803 0.644861 0.375461 0.071136
C31   C     C_R   0.661956 0.676323 0.348537 -0.257649
C32   C     C_R   0.558901 0.621875 0.395440 -0.195209
C33   C     C_R   0.551434 0.534720 0.470452 -0.005750
C34   C     C_R   0.000088 0.499861 0.328829 0.803129
C35   C     C_R   0.653304 0.505541 0.495657 0.288026
C36   C     C_R   0.447384 0.475660 0.521402 -0.043233
C37   C     C_R   0.448132 0.389703 0.596367 0.173736
C38   C     C_R   0.548085 0.362902 0.619883 -0.251232
C39   C     C_R   0.647977 0.419209 0.570639 -0.193633
C40   C     C_R   0.341744 0.497578 0.501679 0.016843
C41   C     C_R   0.247947 0.356307 0.624730 0.063672
C42   C     C_R   0.898388 0.498537 0.169537 -0.220464
C43   C     C_R   0.999588 0.499077 0.232008 -0.069899
C44   C     C_R   0.100050 0.498981 0.201747 -0.247954
C45   C     C_R   0.100295 0.499020 0.109273 0.129888
C46   C     C_R   0.998468 0.498801 0.046462 0.059964
Cu1   Cu    Cu3+1 0.098270 0.475420 0.521130 0.933772
Cu2   Cu    Cu3+1 0.901730 0.524580 0.478870 0.921897
H1    H     H_    0.820216 0.497772 0.192976 0.152794
H2    H     H_    0.457314 0.217781 0.320871 0.144686
H3    H     H_    0.244849 0.079447 0.328328 0.135007
H4    H     H_    0.374724 0.808371 0.552613 0.146940
H5    H     H_    0.909478 0.113562 0.600399 0.151245
H6    H     H_    0.557801 0.842490 0.572473 0.127468
H7    H     H_    0.770680 0.910842 0.629751 0.137810
H8    H     H_    0.671208 0.275709 0.370594 0.174348
H9    H     H_    0.170786 0.310997 0.664011 0.122468
H10   H     H_    0.549223 0.297254 0.677200 0.162087
H11   H     H_    0.348618 0.264839 0.705073 0.143181
H12   H     H_    0.178463 0.499713 0.249946 0.150193
H13   H     H_    0.333179 0.561273 0.445937 0.122259
H14   H     H_    0.838413 0.687695 0.338694 0.124322
H15   H     H_    0.486802 0.649787 0.371677 0.134615
H16   H     H_    0.666802 0.743217 0.291101 0.144689
H17   H     H_    0.719235 0.391869 0.594301 0.206074
H18   H     H_    0.279259 0.499475 0.126251 0.141730
H19   H     H_    0.278663 0.499184 0.963675 0.142712
H20   H     H_    0.177374 0.499203 0.807820 0.154537
H21   H     H_    0.819803 0.497331 0.748871 0.196301
H22   H     H_    0.716892 0.494490 0.037919 0.158640
H23   H     H_    0.094423 0.886335 0.379112 0.148155
N1    N     N_R   0.246280 0.438190 0.553160 -0.180222
N2    N     N_R   0.754320 0.561190 0.447410 -0.206145
O1    O     O_R   0.972510 0.318130 0.526570 -0.578447
O2    O     O_R   0.806530 0.359650 0.490890 -0.604802
O3    O     O_R   0.082980 0.479210 0.647590 -0.585374
O4    O     O_R   0.917000 0.520730 0.611900 -0.602988
O5    O     O_R   0.193470 0.640350 0.509110 -0.587795
O6    O     O_R   0.027490 0.681870 0.473430 -0.585035
O7    O     O_R   0.083000 0.479270 0.388100 -0.585256
O8    O     O_R   0.917020 0.520790 0.352410 -0.599728
O9    O     O_3   0.691936 0.491167 0.861174 -0.579679
C47   C     C_3   0.695267 0.601783 0.836076 -0.347051
H24   H     H_    0.615285 0.596949 0.784972 0.196558
H25   H     H_    0.779084 0.662852 0.803385 0.158840
H26   H     H_    0.688623 0.634561 0.895997 0.161297

loop_
_geom_bond_atom_site_label_1
_geom_bond_atom_site_label_2
_ccdc_geom_bond_type
C16   C28   A    
C21   C26   A    
C19   C20   A    
C25   H8    S    
C7    C8    A    
C45   C46   A    
C2    C46   A    
C8    O9    S    
C1    O1    A    
Cu2   O6    S    
C36   C37   A    
C19   C21   A    
C44   H12   S    
Cu1   O3    S    
C5    C6    A    
C20   C25   A    
C33   C36   A    
Cu2   O8    S    
C18   C19   A    
C16   H5    S    
C34   O7    A    
C38   H10   S    
C47   H24   S    
C8    C9    A    
C1    C28   S    
C34   O8    A    
C14   C27   A    
C40   N1    A    
C17   H7    S    
C15   C23   S    
C21   C22   A    
C39   H17   S    
Cu2   O2    S    
Cu1   O7    S    
Cu2   N2    S    
C24   H2    S    
C38   C39   A    
C1    O2    A    
Cu1   Cu2   S    
C29   H11   S    
C36   C40   A    
C24   C25   A    
Cu1   O1    S    
C30   N2    A    
C16   C17   A    
C15   C26   A    
C20   C28   A    
C3    C45   A    
C40   H13   S    
Cu2   O4    S    
C35   C39   A    
C43   C44   A    
C37   C38   A    
C26   H4    S    
C15   C27   A    
C14   H3    S    
C12   O4    A    
C17   C18   A    
C9    H22   S    
C41   N1    A    
C47   H25   S    
C30   H14   S    
C22   C24   A    
C3    H18   S    
C42   C43   A    
C3    C4    A    
C27   H23   S    
C44   C45   A    
C35   N2    A    
C6    C46   A    
C29   C41   A    
C31   H16   S    
C31   C32   A    
C34   C43   S    
C32   H15   S    
C4    C5    A    
C4    H19   S    
C11   C12   S    
C6    C7    A    
C10   H20   S    
C32   C33   A    
C14   C22   A    
C12   O3    A    
C41   H9    S    
C5    C10   A    
C11   C13   A    
C30   C31   A    
C13   H21   S    
C2    C42   A    
C33   C35   A    
C23   O5    A    
Cu1   N1    S    
C10   C11   A    
C18   H6    S    
C42   H1    S    
C7    C13   A    
C47   H26   S    
O9    C47   S    
C29   C37   A    
Cu1   O5    S    
C23   O6    A    
C2    C9    A    
