data_mof_unit_28187.cif
_audit_creation_date              2012-12-11T17:29:57-0500
_audit_creation_method            fapswitch 2.2
_symmetry_space_group_name_H-M    P1
_symmetry_Int_Tables_number       1
_space_group_crystal_system       triclinic
_cell_length_a                    18.821707
_cell_length_b                    19.287072
_cell_length_c                    20.380954
_cell_angle_alpha                 107.836719
_cell_angle_beta                  105.807229
_cell_angle_gamma                 111.665475
_cell_volume                      5891.38449953

loop_
_atom_site_label
_atom_site_type_symbol
_atom_type_description
_atom_site_fract_x
_atom_site_fract_y
_atom_site_fract_z
_atom_type_partial_charge
C1    C     C_R   0.085435 0.087322 0.353609 -0.140491
C2    C     C_R   0.245395 0.070775 0.546105 -0.127283
C3    C     C_R   0.152914 0.222516 0.710313 -0.142722
C4    C     C_R   0.760677 0.926691 0.504802 -0.141276
C5    C     C_R   0.993625 0.763352 0.425863 0.010923
C6    C     C_R   0.229508 0.272905 0.712603 0.052050
C7    C     C_R   0.940062 0.709909 0.443725 -0.006498
C8    C     C_R   0.253495 0.999922 0.537504 0.069051
C9    C     C_R   0.023355 0.981441 0.725977 0.030616
C10   C     C_R   0.022824 0.647976 0.480063 -0.265361
C11   C     C_R   0.942703 0.637523 0.444134 0.113045
C12   C     C_R   0.756025 0.995135 0.547727 0.080195
C13   C     C_R   0.868676 0.561650 0.413259 -0.285232
C14   C     C_R   0.875072 0.493931 0.418399 0.145284
C15   C     C_R   0.956474 0.504280 0.455120 0.044764
C16   C     C_R   0.838838 0.817204 0.280902 -0.136636
C17   C     C_R   0.030386 0.581908 0.485856 0.141250
C18   C     C_R   0.802017 0.416758 0.388506 -0.213792
C19   C     C_R   0.809366 0.349961 0.395417 -0.195366
C20   C     C_R   0.889778 0.360210 0.432231 0.147285
C21   C     C_R   0.964063 0.437663 0.462140 0.000832
C22   C     C_R   0.045829 0.449017 0.500064 0.057610
C23   C     C_R   0.756517 0.794293 0.273541 0.041848
C24   C     C_R   0.118546 0.527325 0.530650 -0.207333
C25   C     C_R   0.110712 0.593209 0.523164 -0.205985
C26   C     C_R   0.897226 0.294306 0.439954 -0.307623
C27   C     C_R   0.977400 0.305368 0.476259 0.035394
C28   C     C_R   0.958743 0.205410 0.530511 -0.151410
C29   C     C_R   0.052241 0.381913 0.507548 0.103333
C30   C     C_R   0.329337 0.920709 0.556938 -0.261584
C31   C     C_R   0.330487 0.997776 0.576219 0.117242
C32   C     C_R   0.407955 0.072736 0.623651 -0.257568
C33   C     C_R   0.484198 0.071633 0.638631 0.141382
C34   C     C_R   0.983221 0.236517 0.483095 0.101045
C35   C     C_R   0.482256 0.994371 0.607727 0.026396
C36   C     C_R   0.404843 0.918453 0.570436 0.142497
C37   C     C_R   0.561558 0.146831 0.676212 -0.206561
C38   C     C_R   0.635100 0.145849 0.675842 -0.207340
C39   C     C_R   0.631522 0.069693 0.637608 0.141750
C40   C     C_R   0.760649 0.811171 0.346280 -0.131137
C41   C     C_R   0.556016 0.993405 0.606759 0.026861
C42   C     C_R   0.551893 0.916607 0.567919 0.143469
C43   C     C_R   0.476580 0.841000 0.537935 -0.207870
C44   C     C_R   0.403308 0.841907 0.539485 -0.208681
C45   C     C_R   0.230421 0.228308 0.645602 -0.141521
C46   C     C_R   0.699565 0.069086 0.623465 -0.260980
C47   C     C_R   0.692187 0.993468 0.576835 0.114905
C48   C     C_R   0.620396 0.917121 0.553607 -0.262434
C49   C     C_R   0.289003 0.362393 0.765607 0.138870
C50   C     C_R   0.266688 0.409493 0.815160 -0.190636
C51   C     C_R   0.325919 0.492068 0.869251 -0.163057
C52   C     C_R   0.036897 0.210354 0.464052 -0.094067
C53   C     C_R   0.408800 0.528815 0.874661 0.224606
C54   C     C_R   0.428363 0.484195 0.821018 -0.183193
C55   C     C_R   0.369447 0.401475 0.767343 -0.193183
C56   C     C_R   0.917754 0.756524 0.491171 0.027245
C57   C     C_R   0.615899 0.726569 0.068646 -0.165786
C58   C     C_R   0.688127 0.764989 0.137226 -0.188384
C59   C     C_R   0.534571 0.685312 0.065227 0.223702
C60   C     C_R   0.680511 0.763052 0.203387 0.146591
C61   C     C_R   0.599263 0.728983 0.201237 -0.179627
C62   C     C_R   0.527076 0.691066 0.132730 -0.183687
C63   C     C_R   0.103638 0.028594 0.233579 0.145387
C64   C     C_R   0.829952 0.065922 0.567740 -0.137317
C65   C     C_R   0.106896 0.960321 0.186650 -0.190171
C66   C     C_R   0.137635 0.965814 0.132523 -0.166361
C67   C     C_R   0.175859 0.930891 0.482093 -0.134369
C68   C     C_R   0.165465 0.039999 0.124351 0.224543
C69   C     C_R   0.168813 0.109974 0.175436 -0.183780
C70   C     C_R   0.137592 0.104373 0.229248 -0.183727
C71   C     C_R   0.171991 0.047886 0.927573 -0.165719
C72   C     C_R   0.137787 0.049683 0.858773 -0.185941
C73   C     C_R   0.136124 0.973163 0.933751 0.222516
C74   C     C_R   0.067606 0.977150 0.795214 0.147199
C75   C     C_R   0.038446 0.900960 0.799427 -0.178468
C76   C     C_R   0.017424 0.948208 0.289364 -0.136747
C77   C     C_R   0.073192 0.899122 0.868119 -0.181125
C78   C     C_R   0.034901 0.053809 0.718571 -0.123385
C79   C     C_R   0.064963 0.021329 0.286726 0.047392
C80   C     C_3   0.160870 0.416635 0.627699 -0.892707
C81   C     C_R   0.967049 0.913956 0.654104 -0.124444
H1    H     H_    0.133441 0.151896 0.376486 0.088801
H2    H     H_    0.720428 0.861887 0.489480 0.088533
H3    H     H_    0.752329 0.290488 0.372355 0.131195
H4    H     H_    0.841049 0.234108 0.417342 0.143905
H5    H     H_    0.181830 0.539080 0.561167 0.137637
H6    H     H_    0.167442 0.653263 0.547182 0.127998
H7    H     H_    0.270106 0.862073 0.524543 0.116009
H8    H     H_    0.409852 0.132533 0.642570 0.117550
H9    H     H_    0.564116 0.206531 0.701278 0.129125
H10   H     H_    0.693299 0.204849 0.700898 0.128990
H11   H     H_    0.755275 0.128551 0.644283 0.116660
H12   H     H_    0.158798 0.865976 0.461857 0.114189
H13   H     H_    0.859706 0.813327 0.236237 0.094878
H14   H     H_    0.614561 0.858132 0.519644 0.116841
H15   H     H_    0.472986 0.781495 0.509174 0.128197
H16   H     H_    0.344313 0.783072 0.511662 0.128238
H17   H     H_    0.749600 0.793453 0.137329 0.116506
H18   H     H_    0.623912 0.724989 0.017665 0.124306
H19   H     H_    0.491827 0.511533 0.824627 0.119125
H20   H     H_    0.388691 0.367264 0.729797 0.113600
H21   H     H_    0.590677 0.727289 0.251156 0.111176
H22   H     H_    0.308148 0.525435 0.909100 0.122612
H23   H     H_    0.075684 0.117641 0.762782 0.095565
H24   H     H_    0.465016 0.659849 0.131008 0.118944
H25   H     H_    0.921501 0.218608 0.559428 0.104911
H26   H     H_    0.204438 0.382452 0.813825 0.113474
H27   H     H_    0.164383 0.108739 0.856729 0.116505
H28   H     H_    0.222441 0.105911 0.977023 0.123681
H29   H     H_    0.189645 0.167231 0.169599 0.119218
H30   H     H_    0.136468 0.158313 0.264823 0.113432
H31   H     H_    0.985432 0.843499 0.751402 0.112516
H32   H     H_    0.135426 0.910760 0.094671 0.123470
H33   H     H_    0.045300 0.841181 0.871971 0.119402
H34   H     H_    0.947518 0.849044 0.638591 0.109298
H35   H     H_    0.084022 0.901868 0.190121 0.113104
H36   H     H_    0.709513 0.803340 0.362806 0.094472
H37   H     H_    0.071141 0.227898 0.431792 0.091849
H38   H     H_    0.854345 0.129041 0.609993 0.086055
H39   H     H_    0.001308 0.885571 0.252344 0.084283
H40   H     H_    0.272635 0.253508 0.621892 0.088872
H41   H     H_    0.861526 0.690567 0.539423 0.103277
H42   H     H_    0.794047 0.680049 0.458306 0.097079
H43   H     H_    0.992935 0.674384 0.339750 0.111847
H44   H     H_    0.986613 0.752023 0.322597 0.102153
H45   H     H_    0.293058 0.135135 0.584864 0.094630
H46   H     H_    0.179503 0.418518 0.531546 0.153904
H47   H     H_    0.171994 0.481128 0.657232 0.245603
H48   H     H_    0.221157 0.416242 0.651552 0.251590
H49   H     H_    0.112891 0.373277 0.638736 0.257008
H50   H     H_    0.124846 0.241646 0.747085 0.085911
H51   H     H_    0.079408 0.708550 0.504895 0.131227
H52   H     H_    0.807217 0.555839 0.385908 0.126242
H53   H     H_    0.739488 0.408306 0.360298 0.131129
N1    N     N_R   0.052570 0.055840 0.395080 -0.038654
N2    N     N_2   0.461433 0.625365 0.995316 -0.106716
N3    N     N_2   0.174866 0.042611 0.058360 -0.105334
N4    N     N_R   0.834730 0.954500 0.499860 -0.038616
N5    N     N_2   0.147747 0.972518 0.005173 -0.106530
N6    N     N_R   0.890190 0.849120 0.355200 -0.042740
N7    N     N_R   0.997110 0.161210 0.539740 -0.041443
N8    N     N_R   0.841940 0.845190 0.395070 -0.039606
N9    N     N_R   0.045360 0.165140 0.499870 -0.042110
N10   N     N_R   0.877490 0.041590 0.539730 -0.039198
N11   N     N_R   0.009810 0.968740 0.355210 -0.037549
N12   N     N_R   0.954640 0.834860 0.500130 -0.054143
N13   N     N_R   0.158060 0.154810 0.604930 -0.036936
N14   N     N_3   0.848654 0.723247 0.509610 -0.224120
N15   N     N_3   0.016921 0.739160 0.364735 -0.226796
N16   N     N_2   0.132629 0.389790 0.546317 -0.116045
N17   N     N_R   0.122510 0.958410 0.460270 -0.040217
N18   N     N_R   0.990190 0.031260 0.644790 -0.040645
N19   N     N_R   0.947430 0.944160 0.604920 -0.037399
N20   N     N_R   0.165270 0.045500 0.500140 -0.041467
N21   N     N_R   0.109810 0.150880 0.644800 -0.037406
N22   N     N_R   0.002890 0.838790 0.460260 -0.057472
N23   N     N_2   0.477692 0.602515 0.939728 -0.106441
Ni1   Ni    Ni4+2 0.104370 0.104380 0.500010 0.212820
Ni2   Ni    Ni4+2 0.895630 0.895620 0.499990 0.215241
Ni3   Ni    Ni4+2 0.006290 0.904630 0.408560 0.205536
Ni4   Ni    Ni4+2 0.993710 0.095370 0.591440 0.208748

loop_
_geom_bond_atom_site_label_1
_geom_bond_atom_site_label_2
_ccdc_geom_bond_type
C66   C68   A    
H43   N15   S    
C63   C65   A    
C56   N14   S    
C6    C45   A    
C40   N8    A    
N10   Ni4   S    
C27   C29   A    
C41   C42   A    
C14   C18   A    
C35   C36   A    
C58   H17   S    
C76   C79   A    
N8    Ni2   S    
C3    C6    A    
C1    N1    A    
C78   N18   A    
C39   C41   A    
C62   H24   S    
C63   C79   S    
C53   C54   A    
N21   Ni4   S    
C7    C11   S    
H42   N14   S    
N3    N5    D    
C75   H31   S    
C76   H39   S    
C64   H38   S    
C37   H9    S    
C3    H50   S    
C48   H14   S    
N6    N8    A    
N20   Ni1   S    
N7    N9    A    
H46   N16   S    
C38   C39   A    
C12   C64   A    
C57   C59   A    
C46   H11   S    
C10   C17   A    
C58   C60   A    
C23   C40   A    
C57   H18   S    
C59   N2    S    
C25   H6    S    
C81   N19   A    
C24   H5    S    
C18   C19   A    
C44   H16   S    
N17   N20   A    
C34   C52   A    
C29   N16   S    
C46   C47   A    
C5    N15   S    
N4    Ni2   S    
C72   H27   S    
C28   H25   S    
C68   C69   A    
N1    N11   A    
H41   N14   S    
C4    C12   A    
N13   N21   A    
N18   Ni4   S    
C61   C62   A    
C40   H36   S    
C28   C34   A    
C2    N20   A    
N1    Ni1   S    
C13   C14   A    
C54   H19   S    
C68   N3    S    
C16   N6    A    
C7    C56   A    
C12   C47   S    
C43   H15   S    
C27   C34   S    
C23   C60   S    
C52   N9    A    
C80   H49   S    
C74   C75   A    
C67   N17   A    
N22   Ni3   S    
C24   C25   A    
C72   C74   A    
C70   H30   S    
C5    C7    A    
N11   Ni3   S    
N12   Ni2   S    
C64   N10   A    
C45   H40   S    
C1    H1    S    
C49   C55   A    
C78   H23   S    
C38   H10   S    
C33   C37   A    
C60   C61   A    
C51   C53   A    
N19   Ni2   S    
C80   N16   S    
C43   C44   A    
C37   C38   A    
C69   H29   S    
C47   C48   A    
C63   C70   A    
C81   H34   S    
C3    N21   A    
C50   C51   A    
C26   C27   A    
C42   C48   A    
C20   C21   A    
C75   C77   A    
H44   N15   S    
C39   C46   A    
N2    N23   D    
C2    H45   S    
C53   N23   S    
C76   N11   A    
C65   C66   A    
C66   H32   S    
C32   H8    S    
C50   H26   S    
C1    C79   A    
C65   H35   S    
C22   C24   A    
C36   C44   A    
C42   C43   A    
C30   H7    S    
C19   H3    S    
N9    Ni1   S    
C71   C73   A    
C15   C17   A    
C54   C55   A    
C59   C62   A    
C80   H48   S    
C45   N13   A    
C8    C31   S    
C13   H52   S    
C31   C32   A    
C2    C8    A    
N7    Ni4   S    
C16   C23   A    
C5    N22   A    
C73   N5    S    
C55   H20   S    
C16   H13   S    
C30   C36   A    
C17   C25   A    
N17   Ni3   S    
C19   C20   A    
C61   H21   S    
C80   H47   S    
C71   C72   A    
N4    N10   A    
C32   C33   A    
C11   C13   A    
C57   C58   A    
C30   C31   A    
C4    H2    S    
C20   C26   A    
C26   H4    S    
C71   H28   S    
C33   C35   A    
C18   H53   S    
C9    C78   A    
C6    C49   S    
C56   N12   A    
C69   C70   A    
C35   C41   A    
C10   H51   S    
C10   C11   A    
C4    N4    A    
C15   C21   A    
N12   N22   A    
N18   N19   A    
C8    C67   A    
C49   C50   A    
C9    C74   S    
C22   C29   A    
C67   H12   S    
C73   C77   A    
C14   C15   A    
C28   N7    A    
C21   C22   A    
N13   Ni1   S    
C51   H22   S    
N6    Ni3   S    
C77   H33   S    
C9    C81   A    
C52   H37   S    
