data_mof_unit_64439.cif
_audit_creation_date              2012-10-26T17:54:07-0400
_audit_creation_method            fapswitch 2.2
_symmetry_space_group_name_H-M    P1
_symmetry_Int_Tables_number       1
_space_group_crystal_system       monoclinic
_cell_length_a                    23.48585
_cell_length_b                    23.485849
_cell_length_c                    55.959708
_cell_angle_alpha                 89.999986
_cell_angle_beta                  90.0
_cell_angle_gamma                 90.0
_cell_volume                      30866.5426293

loop_
_atom_site_label
_atom_site_type_symbol
_atom_type_description
_atom_site_fract_x
_atom_site_fract_y
_atom_site_fract_z
_atom_type_partial_charge
C1    C     C_R   1.000000 0.892934 0.000000 0.556392
C2    C     C_R   0.059687 0.415299 0.775743 0.438570
C3    C     C_R   0.969355 0.457529 0.914008 -0.021817
C4    C     C_R   0.542471 0.030645 0.085992 -0.021817
C5    C     C_R   0.030644 0.457528 0.085992 -0.021817
C6    C     C_R   0.457529 0.969355 0.085992 -0.021817
C7    C     C_R   0.969356 0.542472 0.085992 -0.021817
C8    C     C_R   0.042471 0.469355 0.414008 -0.021817
C9    C     C_R   0.530644 0.042471 0.414008 -0.021817
C10   C     C_R   0.957529 0.530645 0.414008 -0.021817
C11   C     C_R   0.469355 0.957529 0.414008 -0.021817
C12   C     C_R   0.042471 0.530644 0.585992 -0.021817
C13   C     C_R   0.584701 0.059687 0.775743 0.438569
C14   C     C_R   0.530644 0.957528 0.585992 -0.021817
C15   C     C_R   0.957528 0.469355 0.585992 -0.021817
C16   C     C_R   0.469356 0.042472 0.585992 -0.021816
C17   C     C_R   0.500000 0.000000 0.926686 0.033522
C18   C     C_R   1.000000 0.500000 0.926686 0.033522
C19   C     C_R   0.500000 1.000000 0.073314 0.033521
C20   C     C_R   0.000000 0.500000 0.073314 0.033522
C21   C     C_R   1.000000 0.500000 0.426686 0.033520
C22   C     C_R   0.500000 0.000000 0.426686 0.033521
C23   C     C_R   0.000000 0.500000 0.573314 0.033521
C24   C     C_R   0.940313 0.584701 0.775743 0.438570
C25   C     C_R   0.500000 1.000000 0.573314 0.033522
C26   C     C_R   0.500000 1.000000 0.876191 0.249264
C27   C     C_R   0.000000 0.500000 0.876191 0.249264
C28   C     C_R   0.500000 1.000000 0.123809 0.249264
C29   C     C_R   1.000000 0.500000 0.123809 0.249264
C30   C     C_R   1.000000 0.500000 0.376191 0.249265
C31   C     C_R   0.500000 1.000000 0.376191 0.249264
C32   C     C_R   0.000000 0.500000 0.623809 0.249264
C33   C     C_R   0.500000 0.000000 0.623809 0.249264
C34   C     C_1   0.831993 0.000000 0.000000 -0.013061
C35   C     C_R   0.415299 0.059687 0.224257 0.438570
C36   C     C_1   0.000000 0.831993 0.000000 -0.013061
C37   C     C_1   0.168007 0.000000 0.000000 -0.013061
C38   C     C_1   0.000000 0.168007 0.000000 -0.013061
C39   C     C_1   0.331993 0.500000 0.500000 -0.013061
C40   C     C_1   0.500000 0.331993 0.500000 -0.013061
C41   C     C_1   0.668007 0.500000 0.500000 -0.013061
C42   C     C_1   0.500000 0.668007 0.500000 -0.013061
C43   C     C_1   0.780755 0.000000 0.000000 -0.027721
C44   C     C_1   0.000000 0.780755 0.000000 -0.027721
C45   C     C_1   0.219245 0.000000 0.000000 -0.027721
C46   C     C_R   0.059689 0.584699 0.224257 0.438570
C47   C     C_1   0.000000 0.219245 0.000000 -0.027721
C48   C     C_1   0.280755 0.500000 0.500000 -0.027721
C49   C     C_1   0.500000 0.280755 0.500000 -0.027721
C50   C     C_1   0.719245 0.500000 0.500000 -0.027721
C51   C     C_1   0.500000 0.719245 0.500000 -0.027721
C52   C     C_1   0.720791 0.000000 0.000000 -0.027633
C53   C     C_1   0.000000 0.720792 0.000000 -0.027633
C54   C     C_1   0.279208 0.000000 0.000000 -0.027633
C55   C     C_1   0.000000 0.279208 0.000000 -0.027633
C56   C     C_1   0.220792 0.500000 0.500000 -0.027633
C57   C     C_R   0.584701 0.940312 0.224257 0.438570
C58   C     C_1   0.500000 0.220792 0.500000 -0.027633
C59   C     C_1   0.779208 0.500000 0.500000 -0.027633
C60   C     C_1   0.500000 0.779208 0.500000 -0.027633
C61   C     C_1   0.669558 0.000000 0.000000 -0.010913
C62   C     C_1   0.000000 0.669558 0.000000 -0.010913
C63   C     C_1   0.330442 0.000000 0.000000 -0.010913
C64   C     C_1   1.000000 0.330442 0.000000 -0.010913
C65   C     C_1   0.169558 0.500000 0.500000 -0.010913
C66   C     C_1   0.500000 0.169558 0.500000 -0.010913
C67   C     C_1   0.830442 0.500000 0.500000 -0.010913
C68   C     C_R   0.940310 0.415301 0.224257 0.438570
C69   C     C_1   0.500000 0.830442 0.500000 -0.010913
C70   C     C_R   0.500000 0.000000 0.953131 0.537488
C71   C     C_R   1.000000 0.500000 0.953131 0.537487
C72   C     C_R   0.500000 0.000000 0.046869 0.537487
C73   C     C_R   0.000000 0.500000 0.046869 0.537487
C74   C     C_R   0.000000 0.500000 0.453131 0.537486
C75   C     C_R   0.500000 0.000000 0.453131 0.537486
C76   C     C_R   0.000000 0.500000 0.546869 0.537487
C77   C     C_R   0.500000 1.000000 0.546869 0.537487
C78   C     C_R   0.608631 0.000000 0.000000 0.533608
C79   C     C_R   0.915298 0.440314 0.275743 0.438570
C80   C     C_R   0.000000 0.608631 0.000000 0.533608
C81   C     C_R   0.391369 0.000000 0.000000 0.533609
C82   C     C_R   0.000000 0.391369 0.000000 0.533608
C83   C     C_R   0.108631 0.500000 0.500000 0.533608
C84   C     C_R   0.500000 0.108631 0.500000 0.533608
C85   C     C_R   0.891369 0.500000 0.500000 0.533609
C86   C     C_R   0.500000 0.891369 0.500000 0.533608
C87   C     C_R   0.460176 0.965811 0.762603 0.038670
C88   C     C_R   0.034190 0.460176 0.762603 0.038670
C89   C     C_R   0.539824 0.034189 0.762603 0.038670
C90   C     C_R   0.559688 0.915300 0.275743 0.438570
C91   C     C_R   0.965810 0.539824 0.762603 0.038670
C92   C     C_R   0.460176 0.034190 0.237397 0.038670
C93   C     C_R   0.034191 0.539823 0.237397 0.038670
C94   C     C_R   0.539824 0.965810 0.237397 0.038670
C95   C     C_R   0.965809 0.460177 0.237397 0.038670
C96   C     C_R   0.960176 0.465811 0.262603 0.038670
C97   C     C_R   0.534190 0.960176 0.262603 0.038670
C98   C     C_R   0.039824 0.534189 0.262603 0.038670
C99   C     C_R   0.465810 0.039823 0.262603 0.038670
C100  C     C_R   0.960177 0.534190 0.737397 0.038670
C101  C     C_R   0.084702 0.559686 0.275743 0.438570
C102  C     C_R   0.534190 0.039823 0.737397 0.038670
C103  C     C_R   0.039823 0.465810 0.737397 0.038670
C104  C     C_R   0.465809 0.960177 0.737397 0.038670
C105  C     C_R   0.500000 1.000000 0.775184 -0.090077
C106  C     C_R   1.000000 0.500000 0.775184 -0.090077
C107  C     C_R   0.500000 1.000000 0.224816 -0.090077
C108  C     C_R   1.000000 0.500000 0.224816 -0.090077
C109  C     C_R   1.000000 0.500000 0.275184 -0.090077
C110  C     C_R   0.500000 1.000000 0.275184 -0.090077
C111  C     C_R   1.000000 0.500000 0.724816 -0.090077
C112  C     C_R   0.107066 0.000000 0.000000 0.556392
C113  C     C_R   0.440312 0.084700 0.275743 0.438570
C114  C     C_R   0.500000 1.000000 0.724816 -0.090077
C115  C     C_3   0.581228 0.928493 0.875284 -0.343181
C116  C     C_3   0.071507 0.581228 0.875284 -0.343181
C117  C     C_3   0.418772 0.071507 0.875284 -0.343181
C118  C     C_3   0.928493 0.418772 0.875284 -0.343180
C119  C     C_3   0.581228 0.071507 0.124716 -0.343181
C120  C     C_3   0.071506 0.418770 0.124716 -0.343181
C121  C     C_3   0.418772 0.928493 0.124716 -0.343181
C122  C     C_3   0.928494 0.581229 0.124716 -0.343181
C123  C     C_3   0.081228 0.428492 0.375284 -0.343181
C124  C     C_R   0.915300 0.559688 0.724257 0.438570
C125  C     C_3   0.571507 0.081228 0.375284 -0.343181
C126  C     C_3   0.918772 0.571508 0.375284 -0.343180
C127  C     C_3   0.428493 0.918771 0.375284 -0.343181
C128  C     C_3   0.081229 0.571506 0.624716 -0.343181
C129  C     C_3   0.571506 0.918770 0.624716 -0.343181
C130  C     C_3   0.918771 0.428494 0.624716 -0.343181
C131  C     C_3   0.428494 0.081230 0.624716 -0.343181
C132  C     C_3   0.591148 0.939992 0.926989 -0.373966
C133  C     C_3   0.060008 0.591148 0.926989 -0.373966
C134  C     C_3   0.408852 0.060008 0.926989 -0.373965
C135  C     C_R   0.559689 0.084700 0.724257 0.438570
C136  C     C_3   0.939992 0.408852 0.926989 -0.373965
C137  C     C_3   0.591148 0.060008 0.073011 -0.373965
C138  C     C_3   0.060007 0.408851 0.073011 -0.373966
C139  C     C_3   0.408852 0.939992 0.073011 -0.373966
C140  C     C_3   0.939993 0.591149 0.073011 -0.373966
C141  C     C_3   0.091148 0.439991 0.426989 -0.373965
C142  C     C_3   0.560008 0.091148 0.426989 -0.373966
C143  C     C_3   0.908852 0.560009 0.426989 -0.373966
C144  C     C_3   0.439992 0.908852 0.426989 -0.373966
C145  C     C_3   0.091148 0.560007 0.573011 -0.373966
C146  C     C_R   0.084700 0.440312 0.724257 0.438569
C147  C     C_3   0.560007 0.908851 0.573011 -0.373966
C148  C     C_3   0.908851 0.439993 0.573011 -0.373966
C149  C     C_3   0.439993 0.091149 0.573011 -0.373966
C150  C     C_R   0.440311 0.915300 0.724257 0.438570
C151  C     C_R   0.415241 0.941296 0.800637 -0.060426
C152  C     C_R   0.058705 0.415241 0.800637 -0.060426
C153  C     C_R   0.584759 0.058704 0.800637 -0.060426
C154  C     C_R   0.941295 0.584759 0.800637 -0.060426
C155  C     C_R   0.415241 0.058705 0.199363 -0.060426
C156  C     C_R   0.000000 0.107066 0.000000 0.556392
C157  C     C_R   0.058707 0.584757 0.199363 -0.060426
C158  C     C_R   0.584758 0.941295 0.199363 -0.060426
C159  C     C_R   0.941293 0.415243 0.199363 -0.060426
C160  C     C_R   0.915240 0.441296 0.300637 -0.060426
C161  C     C_R   0.558706 0.915242 0.300637 -0.060426
C162  C     C_R   0.084760 0.558704 0.300637 -0.060426
C163  C     C_R   0.441294 0.084758 0.300637 -0.060426
C164  C     C_R   0.915242 0.558706 0.699363 -0.060426
C165  C     C_R   0.558706 0.084758 0.699363 -0.060426
C166  C     C_R   0.084758 0.441294 0.699363 -0.060426
C167  C     C_R   0.892934 0.000000 0.000000 0.556392
C168  C     C_R   0.441293 0.915242 0.699363 -0.060426
C169  C     C_R   0.458127 0.969630 0.813252 -0.026992
C170  C     C_R   0.030370 0.458127 0.813252 -0.026992
C171  C     C_R   0.541873 0.030370 0.813252 -0.026992
C172  C     C_R   0.969630 0.541873 0.813252 -0.026992
C173  C     C_R   0.458127 0.030370 0.186748 -0.026992
C174  C     C_R   0.030371 0.541872 0.186748 -0.026992
C175  C     C_R   0.541873 0.969630 0.186748 -0.026992
C176  C     C_R   0.969629 0.458128 0.186748 -0.026992
C177  C     C_R   0.958127 0.469631 0.313252 -0.026992
C178  C     C_R   0.500000 0.392934 0.500000 0.556392
C179  C     C_R   0.530370 0.958127 0.313252 -0.026992
C180  C     C_R   0.041873 0.530369 0.313252 -0.026992
C181  C     C_R   0.469630 0.041872 0.313252 -0.026992
C182  C     C_R   0.958128 0.530370 0.686748 -0.026992
C183  C     C_R   0.530371 0.041872 0.686748 -0.026992
C184  C     C_R   0.041872 0.469629 0.686748 -0.026992
C185  C     C_R   0.469629 0.958128 0.686748 -0.026992
C186  C     C_R   0.500000 0.000000 0.800558 -0.067376
C187  C     C_R   1.000000 0.500000 0.800558 -0.067376
C188  C     C_R   0.500000 1.000000 0.199442 -0.067376
C189  C     C_R   0.607066 0.500000 0.500000 0.556392
C190  C     C_R   1.000000 0.500000 0.199442 -0.067376
C191  C     C_R   1.000000 0.500000 0.300558 -0.067376
C192  C     C_R   0.500000 1.000000 0.300558 -0.067376
C193  C     C_R   1.000000 0.500000 0.699442 -0.067376
C194  C     C_R   0.500000 1.000000 0.699442 -0.067376
C195  C     C_R   0.459207 0.969741 0.838371 0.398635
C196  C     C_R   0.030259 0.459207 0.838371 0.398635
C197  C     C_R   0.540793 0.030259 0.838371 0.398635
C198  C     C_R   0.969741 0.540793 0.838371 0.398635
C199  C     C_R   0.459207 0.030259 0.161628 0.398635
C200  C     C_R   0.500000 0.607066 0.500000 0.556392
C201  C     C_R   0.030260 0.540792 0.161628 0.398635
C202  C     C_R   0.540793 0.969741 0.161628 0.398635
C203  C     C_R   0.969739 0.459208 0.161628 0.398635
C204  C     C_R   0.959206 0.469741 0.338371 0.398635
C205  C     C_R   0.530260 0.959207 0.338371 0.398635
C206  C     C_R   0.040793 0.530259 0.338371 0.398634
C207  C     C_R   0.469740 0.040793 0.338371 0.398635
C208  C     C_R   0.959207 0.530260 0.661628 0.398635
C209  C     C_R   0.530260 0.040792 0.661628 0.398635
C210  C     C_R   0.040793 0.469740 0.661628 0.398635
C211  C     C_R   0.392934 0.500000 0.500000 0.556392
C212  C     C_R   0.469740 0.959208 0.661628 0.398635
C213  C     C_R   0.540205 0.966694 0.888754 0.049886
C214  C     C_R   0.033306 0.540205 0.888754 0.049886
C215  C     C_R   0.459795 0.033306 0.888754 0.049886
C216  C     C_R   0.966694 0.459795 0.888754 0.049886
C217  C     C_R   0.540205 0.033306 0.111246 0.049886
C218  C     C_R   0.033305 0.459794 0.111246 0.049886
C219  C     C_R   0.459795 0.966694 0.111246 0.049886
C220  C     C_R   0.966695 0.540206 0.111246 0.049886
C221  C     C_R   0.040205 0.466694 0.388754 0.049886
C222  C     C_R   0.415299 0.940313 0.775743 0.438570
C223  C     C_R   0.533305 0.040205 0.388754 0.049886
C224  C     C_R   0.959795 0.533306 0.388754 0.049886
C225  C     C_R   0.466695 0.959794 0.388754 0.049886
C226  C     C_R   0.040205 0.533305 0.611246 0.049886
C227  C     C_R   0.533305 0.959794 0.611246 0.049886
C228  C     C_R   0.959794 0.466695 0.611246 0.049886
C229  C     C_R   0.466695 0.040206 0.611246 0.049886
C230  C     C_R   0.542471 0.969355 0.914008 -0.021817
C231  C     C_R   0.030645 0.542471 0.914008 -0.021817
C232  C     C_R   0.457529 0.030645 0.914008 -0.021817
Cu1   Cu    Cu3+1 1.000000 0.000000 0.023160 0.981630
Cu2   Cu    Cu3+1 0.442500 0.000000 0.500000 0.964059
Cu3   Cu    Cu3+1 1.000000 0.442500 0.500000 0.964059
Cu4   Cu    Cu3+1 0.557500 0.000000 0.500000 0.964058
Cu5   Cu    Cu3+1 0.000000 1.000000 0.976840 0.981630
Cu6   Cu    Cu3+1 0.500000 0.500000 0.523160 0.981629
Cu7   Cu    Cu3+1 0.500000 0.500000 0.476840 0.981630
Cu8   Cu    Cu3+1 0.500000 0.057500 0.000000 0.964058
Cu9   Cu    Cu3+1 0.942500 0.500000 0.000000 0.964058
Cu10  Cu    Cu3+1 0.500000 0.942500 0.000000 0.964058
Cu11  Cu    Cu3+1 0.057500 0.500000 0.000000 0.964058
Cu12  Cu    Cu3+1 0.000000 0.557500 0.500000 0.964058
F1    F     F_    0.367933 0.919736 0.764892 -0.545705
F2    F     F_    0.580266 0.867934 0.264892 -0.545705
F3    F     F_    0.132068 0.580263 0.264892 -0.545705
F4    F     F_    0.419734 0.132066 0.264892 -0.545705
F5    F     F_    0.867935 0.580266 0.735108 -0.545705
F6    F     F_    0.580267 0.132065 0.735108 -0.545705
F7    F     F_    0.132065 0.419734 0.735108 -0.545705
F8    F     F_    0.419733 0.867935 0.735108 -0.545705
F9    F     F_    0.080264 0.367934 0.764892 -0.545705
F10   F     F_    0.632067 0.080264 0.764892 -0.545705
F11   F     F_    0.919736 0.632066 0.764892 -0.545706
F12   F     F_    0.367934 0.080265 0.235108 -0.545705
F13   F     F_    0.080268 0.632064 0.235108 -0.545705
F14   F     F_    0.632066 0.919735 0.235108 -0.545705
F15   F     F_    0.919732 0.367936 0.235108 -0.545705
F16   F     F_    0.867932 0.419737 0.264892 -0.545705
H1    H     H_    0.380522 0.920686 0.809999 0.195210
H2    H     H_    0.579315 0.880523 0.309999 0.195210
H3    H     H_    0.451479 0.867636 0.418580 0.133922
H4    H     H_    0.095402 0.547223 0.554060 0.153120
H5    H     H_    0.085389 0.606873 0.573800 0.144919
H6    H     H_    0.132364 0.548520 0.581420 0.133922
H7    H     H_    0.547223 0.904598 0.554059 0.153120
H8    H     H_    0.606873 0.914610 0.573800 0.144918
H9    H     H_    0.548519 0.867635 0.581420 0.133922
H10   H     H_    0.904598 0.452776 0.554060 0.153120
H11   H     H_    0.914611 0.393127 0.573800 0.144918
H12   H     H_    0.867636 0.451480 0.581420 0.133922
H13   H     H_    0.119479 0.579313 0.309999 0.195210
H14   H     H_    0.452777 0.095402 0.554059 0.153120
H15   H     H_    0.393127 0.085390 0.573800 0.144918
H16   H     H_    0.451481 0.132365 0.581420 0.133922
H17   H     H_    0.420685 0.119477 0.309999 0.195210
H18   H     H_    0.880523 0.579316 0.690000 0.195210
H19   H     H_    0.579317 0.119477 0.690000 0.195210
H20   H     H_    0.119477 0.420684 0.690000 0.195210
H21   H     H_    0.420683 0.880523 0.690000 0.195210
H22   H     H_    0.570788 0.924165 0.856065 0.159376
H23   H     H_    0.625132 0.945639 0.876664 0.151930
H24   H     H_    0.579992 0.884821 0.882847 0.132558
H25   H     H_    0.079314 0.380522 0.809999 0.195210
H26   H     H_    0.075835 0.570788 0.856065 0.159376
H27   H     H_    0.054361 0.625132 0.876664 0.151930
H28   H     H_    0.115178 0.579992 0.882847 0.132558
H29   H     H_    0.429212 0.075835 0.856065 0.159376
H30   H     H_    0.374868 0.054361 0.876664 0.151930
H31   H     H_    0.420008 0.115178 0.882847 0.132558
H32   H     H_    0.924165 0.429212 0.856065 0.159376
H33   H     H_    0.945639 0.374868 0.876664 0.151930
H34   H     H_    0.884822 0.420008 0.882847 0.132558
H35   H     H_    0.570788 0.075835 0.143935 0.159376
H36   H     H_    0.619479 0.079314 0.809999 0.195210
H37   H     H_    0.625132 0.054361 0.123336 0.151930
H38   H     H_    0.579992 0.115178 0.117153 0.132558
H39   H     H_    0.075833 0.429210 0.143935 0.159376
H40   H     H_    0.054359 0.374867 0.123336 0.151929
H41   H     H_    0.115177 0.420006 0.117153 0.132558
H42   H     H_    0.429212 0.924165 0.143935 0.159376
H43   H     H_    0.374868 0.945639 0.123336 0.151930
H44   H     H_    0.420008 0.884822 0.117153 0.132558
H45   H     H_    0.924167 0.570790 0.143935 0.159377
H46   H     H_    0.945641 0.625133 0.123336 0.151929
H47   H     H_    0.920686 0.619478 0.809999 0.195210
H48   H     H_    0.884823 0.579994 0.117153 0.132558
H49   H     H_    0.070788 0.424164 0.356065 0.159376
H50   H     H_    0.125131 0.445638 0.376664 0.151930
H51   H     H_    0.079991 0.384821 0.382847 0.132558
H52   H     H_    0.575834 0.070789 0.356065 0.159376
H53   H     H_    0.554360 0.125132 0.376664 0.151930
H54   H     H_    0.615178 0.079992 0.382846 0.132558
H55   H     H_    0.929212 0.575836 0.356065 0.159376
H56   H     H_    0.874868 0.554362 0.376663 0.151930
H57   H     H_    0.920009 0.615179 0.382847 0.132558
H58   H     H_    0.380522 0.079314 0.190000 0.195210
H59   H     H_    0.424166 0.929211 0.356065 0.159377
H60   H     H_    0.445640 0.874868 0.376664 0.151930
H61   H     H_    0.384822 0.920007 0.382846 0.132558
H62   H     H_    0.070789 0.575834 0.643935 0.159377
H63   H     H_    0.125132 0.554360 0.623336 0.151930
H64   H     H_    0.079993 0.615177 0.617153 0.132558
H65   H     H_    0.575833 0.929210 0.643935 0.159376
H66   H     H_    0.554358 0.874867 0.623336 0.151930
H67   H     H_    0.615177 0.920006 0.617153 0.132558
H68   H     H_    0.929211 0.424166 0.643935 0.159376
H69   H     H_    0.079317 0.619476 0.190000 0.195210
H70   H     H_    0.874868 0.445640 0.623336 0.151929
H71   H     H_    0.920007 0.384822 0.617153 0.132558
H72   H     H_    0.424167 0.070790 0.643935 0.159377
H73   H     H_    0.445641 0.125133 0.623336 0.151929
H74   H     H_    0.384823 0.079994 0.617153 0.132558
H75   H     H_    0.595402 0.952776 0.945940 0.153120
H76   H     H_    0.585387 0.893126 0.926200 0.144919
H77   H     H_    0.632363 0.951478 0.918580 0.133922
H78   H     H_    0.047224 0.595402 0.945940 0.153120
H79   H     H_    0.106874 0.585387 0.926200 0.144919
H80   H     H_    0.619478 0.920685 0.190000 0.195210
H81   H     H_    0.048521 0.632364 0.918580 0.133921
H82   H     H_    0.404598 0.047224 0.945940 0.153120
H83   H     H_    0.414613 0.106874 0.926200 0.144919
H84   H     H_    0.367636 0.048522 0.918580 0.133921
H85   H     H_    0.952776 0.404598 0.945940 0.153120
H86   H     H_    0.893126 0.414612 0.926200 0.144919
H87   H     H_    0.951479 0.367636 0.918580 0.133921
H88   H     H_    0.595402 0.047224 0.054059 0.153120
H89   H     H_    0.585388 0.106874 0.073800 0.144919
H90   H     H_    0.632364 0.048521 0.081420 0.133922
H91   H     H_    0.920682 0.380524 0.190000 0.195210
H92   H     H_    0.047223 0.404598 0.054059 0.153120
H93   H     H_    0.106873 0.414611 0.073800 0.144919
H94   H     H_    0.048519 0.367636 0.081420 0.133922
H95   H     H_    0.404598 0.952776 0.054059 0.153120
H96   H     H_    0.414612 0.893126 0.073800 0.144919
H97   H     H_    0.367636 0.951479 0.081420 0.133922
H98   H     H_    0.952777 0.595402 0.054059 0.153119
H99   H     H_    0.893127 0.585389 0.073800 0.144919
H100  H     H_    0.951481 0.632364 0.081420 0.133922
H101  H     H_    0.095402 0.452776 0.445940 0.153120
H102  H     H_    0.880521 0.420687 0.309999 0.195210
H103  H     H_    0.085387 0.393125 0.426200 0.144919
H104  H     H_    0.132363 0.451478 0.418580 0.133922
H105  H     H_    0.547223 0.095402 0.445940 0.153120
H106  H     H_    0.606874 0.085388 0.426200 0.144919
H107  H     H_    0.548520 0.132364 0.418580 0.133922
H108  H     H_    0.904598 0.547224 0.445940 0.153120
H109  H     H_    0.914613 0.606874 0.426200 0.144919
H110  H     H_    0.867636 0.548522 0.418580 0.133922
H111  H     H_    0.452776 0.904598 0.445940 0.153120
H112  H     H_    0.393126 0.914612 0.426200 0.144919
N1    N     N_R   0.500000 0.000000 0.850398 -0.398247
N2    N     N_R   1.000000 0.500000 0.850398 -0.398247
N3    N     N_R   0.500000 1.000000 0.149602 -0.398247
N4    N     N_R   1.000000 0.500000 0.149602 -0.398247
N5    N     N_R   1.000000 0.500000 0.350398 -0.398248
N6    N     N_R   0.500000 1.000000 0.350398 -0.398247
N7    N     N_R   0.000000 0.500000 0.649602 -0.398247
N8    N     N_R   0.500000 0.000000 0.649602 -0.398247
O1    O     O_R   0.000610 0.920310 0.019440 -0.492784
O2    O     O_R   0.579690 0.500610 0.519440 -0.492784
O3    O     O_R   0.499390 0.579690 0.519440 -0.492784
O4    O     O_R   0.420310 0.499390 0.519440 -0.492784
O5    O     O_R   0.500610 0.579690 0.480560 -0.492784
O6    O     O_R   0.579690 0.499390 0.480560 -0.492784
O7    O     O_R   0.499390 0.420310 0.480560 -0.492784
O8    O     O_R   0.420310 0.500610 0.480560 -0.492784
O9    O     O_R   0.500970 0.048820 0.964370 -0.507153
O10   O     O_R   0.951180 0.500970 0.964370 -0.507153
O11   O     O_R   0.499030 0.951180 0.964370 -0.507153
O12   O     O_R   0.079690 0.000610 0.019440 -0.492784
O13   O     O_R   0.048820 0.499030 0.964370 -0.507153
O14   O     O_R   0.500970 0.951180 0.035630 -0.507152
O15   O     O_R   0.951180 0.499030 0.035630 -0.507152
O16   O     O_R   0.499030 0.048820 0.035630 -0.507153
O17   O     O_R   0.048820 0.500970 0.035630 -0.507152
O18   O     O_R   0.000970 0.548820 0.464370 -0.507152
O19   O     O_R   0.451180 0.000970 0.464370 -0.507151
O20   O     O_R   0.999030 0.451180 0.464370 -0.507151
O21   O     O_R   0.548820 0.999030 0.464370 -0.507152
O22   O     O_R   0.000970 0.451180 0.535630 -0.507152
O23   O     O_R   0.999390 0.079690 0.019440 -0.492784
O24   O     O_R   0.451180 0.999030 0.535630 -0.507152
O25   O     O_R   0.999030 0.548820 0.535630 -0.507152
O26   O     O_R   0.548820 0.000970 0.535630 -0.507152
O27   O     O_R   0.582140 0.048820 0.999240 -0.505040
O28   O     O_R   0.951180 0.582140 0.999240 -0.505039
O29   O     O_R   0.417860 0.951180 0.999240 -0.505039
O30   O     O_R   0.048820 0.417860 0.999240 -0.505039
O31   O     O_R   0.582140 0.951180 0.000760 -0.505039
O32   O     O_R   0.951180 0.417860 0.000760 -0.505039
O33   O     O_R   0.417860 0.048820 0.000760 -0.505039
O34   O     O_R   0.920310 0.999390 0.019440 -0.492784
O35   O     O_R   0.048820 0.582140 0.000760 -0.505040
O36   O     O_R   0.082140 0.548820 0.499240 -0.505039
O37   O     O_R   0.451180 0.082140 0.499240 -0.505039
O38   O     O_R   0.917860 0.451180 0.499240 -0.505039
O39   O     O_R   0.548820 0.917860 0.499240 -0.505039
O40   O     O_R   0.082140 0.451180 0.500760 -0.505039
O41   O     O_R   0.451180 0.917860 0.500760 -0.505039
O42   O     O_R   0.917860 0.548820 0.500760 -0.505039
O43   O     O_R   0.548820 0.082140 0.500760 -0.505039
O44   O     O_2   0.419830 0.939958 0.850704 -0.484791
O45   O     O_R   0.000610 0.079690 0.980560 -0.492784
O46   O     O_2   0.060042 0.419830 0.850704 -0.484791
O47   O     O_2   0.580170 0.060042 0.850704 -0.484791
O48   O     O_2   0.939958 0.580170 0.850704 -0.484791
O49   O     O_2   0.419830 0.060042 0.149296 -0.484791
O50   O     O_2   0.060044 0.580168 0.149296 -0.484791
O51   O     O_2   0.580170 0.939957 0.149296 -0.484791
O52   O     O_2   0.939956 0.419831 0.149296 -0.484791
O53   O     O_2   0.919829 0.439959 0.350704 -0.484791
O54   O     O_2   0.560043 0.919830 0.350704 -0.484791
O55   O     O_2   0.080171 0.560041 0.350704 -0.484791
O56   O     O_R   0.079690 0.999390 0.980560 -0.492784
O57   O     O_2   0.439957 0.080169 0.350704 -0.484791
O58   O     O_2   0.919831 0.560043 0.649296 -0.484791
O59   O     O_2   0.560044 0.080169 0.649296 -0.484791
O60   O     O_2   0.080169 0.439957 0.649296 -0.484791
O61   O     O_2   0.439956 0.919831 0.649296 -0.484791
O62   O     O_R   0.999390 0.920310 0.980560 -0.492784
O63   O     O_R   0.920310 0.000610 0.980560 -0.492784
O64   O     O_R   0.500610 0.420310 0.519440 -0.492784

loop_
_geom_bond_atom_site_label_1
_geom_bond_atom_site_label_2
_ccdc_geom_bond_type
Cu10  O11   S    
C173  C188  A    
C177  C191  A    
C117  H30   S    
C212  N8    A    
C148  H12   S    
Cu10  O29   S    
C199  N3    A    
C126  H56   S    
C133  H78   S    
C77   O24   A    
C121  H43   S    
C50   C59   S    
C76   O25   A    
Cu12  O25   S    
C181  C207  A    
C165  H19   S    
C52   C61   T    
C70   O11   A    
C162  H13   S    
C180  C206  A    
C54   C63   T    
C184  C193  A    
C18   C71   S    
C27   N2    S    
C104  C150  A    
Cu3   O22   S    
Cu1   Cu5   S    
C120  H40   S    
C118  H33   S    
C175  C188  A    
C44   C53   S    
C130  H71   S    
C199  O49   S    
C208  N7    A    
C170  C187  A    
C122  H45   S    
C16   C149  S    
Cu1   O1    S    
C91   C100  A    
C166  H20   S    
C10   C224  A    
C211  O4    A    
C130  C228  S    
C98   C109  A    
C176  C203  A    
Cu2   Cu4   S    
Cu1   O12   S    
Cu4   O26   S    
C214  C231  A    
C24   C154  A    
C132  H76   S    
C167  O34   A    
C2    C152  A    
C67   C85   S    
C68   C95   A    
C209  O59   S    
C165  C183  A    
C72   O16   A    
C166  C184  A    
C139  H95   S    
C79   C160  A    
C90   C161  A    
C94   C97   A    
C99   C110  A    
C174  C201  A    
C128  H64   S    
C26   C215  A    
C100  C124  A    
C102  C114  A    
Cu5   O62   S    
C70   O9    A    
C152  C170  A    
C127  H60   S    
C12   C23   A    
C150  C168  A    
C71   O10   A    
C177  C204  A    
C73   O17   A    
C1    O62   A    
C75   O21   A    
C184  C210  A    
C141  H104  S    
C85   O42   A    
C116  C214  S    
C1    O1    A    
C27   C216  A    
C36   C44   T    
C112  O12   A    
C135  F6    S    
C37   C45   T    
C34   C167  S    
C120  H41   S    
C16   C25   A    
C114  C194  A    
C83   O36   A    
C33   C227  A    
C195  O44   S    
C106  C187  A    
C138  H93   S    
C17   C230  A    
C150  F8    S    
C155  H58   S    
C96   C109  A    
C151  C222  A    
C41   C189  S    
C146  F7    S    
C196  N2    A    
C149  H14   S    
C79   C96   A    
C40   C178  S    
C107  C188  A    
C20   C73   S    
Cu12  O36   S    
C123  H50   S    
C182  C208  A    
Cu4   O39   S    
C29   N4    S    
C81   O33   A    
C95   C108  A    
C144  H111  S    
C200  O5    A    
C100  C111  A    
C128  C226  S    
C201  O50   S    
C144  H3    S    
C147  H7    S    
C105  C186  A    
C179  C205  A    
C163  C181  A    
C129  H66   S    
C30   N5    S    
C23   C76   S    
C169  C195  A    
C5    C20   A    
C6    C19   A    
C123  C221  S    
C198  N2    A    
C26   C213  A    
C62   C80   S    
C35   C155  A    
C15   C148  S    
C222  F1    S    
C168  H21   S    
C113  C163  A    
C40   C49   T    
C16   C229  A    
C183  C194  A    
C115  C213  S    
C3    C136  S    
C6    C139  S    
C117  C215  S    
C74   O20   A    
C102  C135  A    
C59   C67   T    
C4    C137  S    
C31   N6    S    
Cu6   O4    S    
C28   N3    S    
C27   C214  A    
C172  C198  A    
C8    C141  S    
C134  C232  S    
C161  C179  A    
Cu6   O3    S    
C162  C180  A    
Cu1   O34   S    
C157  C174  A    
Cu8   O27   S    
C122  H48   S    
C108  C190  A    
C189  O6    A    
C33   C229  A    
C17   C232  A    
Cu11  O30   S    
Cu3   Cu12  S    
C94   C107  A    
C39   C211  S    
C215  C232  A    
C149  H16   S    
C119  H35   S    
C202  O51   S    
C134  H84   S    
Cu4   O21   S    
C206  N5    A    
C163  H17   S    
C115  H23   S    
C14   C147  S    
C132  H77   S    
C12   C145  S    
C143  H109  S    
C189  O2    A    
C142  H105  S    
C12   C226  A    
C205  O54   S    
C87   C105  A    
C26   N1    S    
C211  O8    A    
C145  H6    S    
C130  H68   S    
C7    C220  A    
C137  H88   S    
C29   C218  A    
C32   C226  A    
C57   C94   A    
C207  N6    A    
C31   C223  A    
C78   O31   A    
Cu7   O8    S    
C140  H99   S    
C141  H101  S    
C123  H51   S    
Cu7   O6    S    
C117  H29   S    
Cu3   O20   S    
C118  H34   S    
C34   C43   T    
C175  C202  A    
C125  H54   S    
C180  C191  A    
C126  H57   S    
C9    C142  S    
Cu8   O16   S    
C121  H42   S    
C151  C169  A    
C159  C176  A    
C82   O32   A    
C74   O18   A    
C76   O22   A    
C170  C196  A    
C85   O38   A    
C35   F12   S    
C86   O41   A    
C60   C69   T    
Cu6   O2    S    
C13   F10   S    
C127  H61   S    
C158  C175  A    
C120  C218  S    
Cu2   O37   S    
C89   C105  A    
C84   O43   A    
C118  C216  S    
C51   C60   S    
C71   O13   A    
C143  H108  S    
C203  N4    A    
C1    C36   S    
C57   C158  A    
Cu9   O15   S    
C28   C217  A    
C208  O58   S    
C173  C199  A    
C134  H82   S    
C185  C194  A    
C167  O63   A    
C154  H47   S    
C212  O61   S    
C75   O19   A    
C47   C55   S    
C101  C162  A    
C169  C186  A    
C18   C231  A    
C93   C108  A    
C7    C140  S    
C172  C187  A    
C206  O55   S    
C116  H27   S    
C103  C111  A    
C204  O53   S    
C80   O28   A    
C136  H85   S    
C131  H74   S    
C137  H90   S    
C29   C220  A    
C127  H59   S    
C32   C228  A    
C77   O26   A    
C90   C97   A    
C141  H103  S    
C35   C92   A    
C131  C229  S    
C10   C21   A    
C117  H31   S    
C121  C219  S    
C148  H11   S    
C118  H32   S    
C119  H37   S    
C126  H55   S    
Cu4   O43   S    
C30   C221  A    
C125  C223  S    
C153  H36   S    
C133  H79   S    
C121  H44   S    
C157  H69   S    
C82   O30   A    
C138  H94   S    
C152  H25   S    
C147  H8    S    
C156  O23   A    
C86   O39   A    
C3    C216  A    
C84   O37   A    
C120  H39   S    
C176  C190  A    
C5    C218  A    
C130  H70   S    
C11   C225  A    
C129  C227  S    
C135  C165  A    
C123  H49   S    
C201  N4    A    
C13   C153  A    
C111  C193  A    
C144  H112  S    
C115  H22   S    
C28   C219  A    
Cu10  O14   S    
C25   C77   S    
C178  O7    A    
C209  N8    A    
C101  F3    S    
C2    F9    S    
C41   C50   T    
Cu3   O40   S    
C132  H75   S    
Cu6   Cu7   S    
C171  C186  A    
C129  H65   S    
C139  H96   S    
C132  C230  S    
C99   C113  A    
C68   F15   S    
Cu11  O17   S    
C140  H98   S    
C98   C101  A    
C128  H63   S    
C138  H92   S    
C15   C228  A    
C178  O64   A    
C203  O52   S    
Cu2   O19   S    
C147  H9    S    
C136  H87   S    
Cu5   O63   S    
C131  H72   S    
C195  N1    A    
Cu6   O64   S    
C90   F2    S    
C42   C200  S    
C181  C192  A    
C200  O3    A    
C78   O27   A    
C14   C25   A    
C43   C52   S    
C160  C177  A    
C164  C182  A    
C151  H1    S    
C87   C104  A    
C210  N7    A    
C139  H97   S    
C7    C20   A    
C127  C225  S    
C80   O35   A    
C213  C230  A    
C39   C48   T    
C124  C164  A    
C89   C102  A    
C95   C96   A    
C38   C156  S    
C5    C138  S    
Cu9   O28   S    
Cu12  O42   S    
C122  C220  S    
C63   C81   S    
C159  H91   S    
C79   F16   S    
C149  H15   S    
C197  N1    A    
Cu5   O45   S    
C158  H80   S    
C126  C224  S    
C9    C22   A    
C65   C83   S    
Cu8   O33   S    
C56   C65   T    
Cu2   O41   S    
C57   F14   S    
C3    C18   A    
C110  C192  A    
C37   C112  S    
C4    C19   A    
C161  H2    S    
C58   C66   T    
C179  C192  A    
C207  O57   S    
C116  H26   S    
C68   C159  A    
C11   C144  S    
Cu3   O38   S    
C42   C51   T    
C155  C173  A    
C46   F13   S    
C15   C23   A    
C146  C166  A    
C133  H81   S    
C17   C70   S    
C202  N3    A    
C91   C106  A    
C164  H18   S    
C19   C72   S    
C129  H67   S    
C22   C75   S    
C145  H4    S    
Cu12  O18   S    
C204  N5    A    
Cu7   O7    S    
C140  H100  S    
Cu9   O10   S    
Cu9   O32   S    
C87   C222  A    
C148  H10   S    
Cu10  O31   S    
C125  H53   S    
Cu11  O35   S    
C182  C193  A    
C30   C224  A    
C205  N6    A    
C46   C157  A    
C21   C74   S    
C49   C58   S    
Cu9   Cu11  S    
C131  H73   S    
C24   F11   S    
C83   O40   A    
C133  C231  S    
C124  F5    S    
C210  O60   S    
C88   C106  A    
C53   C62   T    
C9    C223  A    
C92   C107  A    
C61   C78   S    
C55   C64   T    
C153  C171  A    
Cu8   Cu10  S    
C8    C21   A    
C185  C212  A    
C154  C172  A    
C160  H102  S    
C125  H52   S    
C2    C88   A    
Cu5   O56   S    
C64   C82   S    
C38   C47   T    
C104  C114  A    
C174  C190  A    
C45   C54   S    
C4    C217  A    
C31   C225  A    
C142  H107  S    
C24   C91   A    
C88   C103  A    
C81   O29   A    
C142  H106  S    
C48   C56   S    
C168  C185  A    
C13   C89   A    
C134  H83   S    
C33   N8    S    
C145  H5    S    
C115  H24   S    
C183  C209  A    
C113  F4    S    
C73   O15   A    
C11   C22   A    
Cu8   O9    S    
C112  O56   A    
C72   O14   A    
C143  H110  S    
C14   C227  A    
C171  C197  A    
C97   C110  A    
C32   N7    S    
C46   C93   A    
C109  C191  A    
C122  H46   S    
C128  H62   S    
C116  H28   S    
C10   C143  S    
C136  H86   S    
C8    C221  A    
C66   C84   S    
C6    C219  A    
Cu1   O23   S    
C137  H89   S    
Cu2   O24   S    
C92   C99   A    
C156  O45   A    
C197  O47   S    
C119  C217  S    
C198  O48   S    
C119  H38   S    
C196  O46   S    
C93   C98   A    
Cu7   O5    S    
C69   C86   S    
Cu11  O13   S    
C103  C146  A    
