data_mof_unit_50582.cif
_audit_creation_date              2012-12-10T16:52:38-0500
_audit_creation_method            fapswitch 2.2
_symmetry_space_group_name_H-M    P1
_symmetry_Int_Tables_number       1
_space_group_crystal_system       triclinic
_cell_length_a                    13.033463
_cell_length_b                    10.988806
_cell_length_c                    9.7425
_cell_angle_alpha                 91.258731
_cell_angle_beta                  95.861733
_cell_angle_gamma                 91.324406
_cell_volume                      1387.26028868

loop_
_atom_site_label
_atom_site_type_symbol
_atom_type_description
_atom_site_fract_x
_atom_site_fract_y
_atom_site_fract_z
_atom_type_partial_charge
C1    C     C_R   0.496354 0.265201 0.497322 0.764297
C2    C     C_2   0.485438 0.132464 0.483724 0.260125
C3    C     C_2   0.464484 0.412210 0.919437 0.557428
C4    C     C_R   0.300562 0.499677 0.474601 0.911038
C5    C     C_2   0.500960 0.404076 0.072495 0.461456
C6    C     C_R   0.506450 0.733347 0.502673 0.802590
C7    C     C_R   0.698669 0.503285 0.525490 0.878430
C8    C     C_R   0.810492 0.515742 0.538850 -0.258639
C9    C     C_R   0.187149 0.496187 0.460423 -0.311304
C10   C     C_R   0.024210 0.424166 0.336946 0.379753
C11   C     C_R   0.132668 0.431502 0.348657 0.302311
C12   C     C_R   0.024644 0.550101 0.548235 -0.179666
C13   C     C_R   0.133577 0.553675 0.561619 0.446747
C14   C     C_3   0.812312 0.252131 0.422533 -0.164406
C15   C     C_3   0.412994 0.071995 0.268981 -0.336686
C16   C     C_3   0.323337 0.283848 0.935008 -0.376694
C17   C     C_3   0.191132 0.248030 0.284737 -0.362901
C18   C     C_3   0.194156 0.534896 0.787578 -0.153736
C19   C     C_3   0.678465 0.859943 0.418015 -0.230961
C20   C     C_3   0.470308 0.032457 0.823206 -0.231552
C21   C     C_R   0.971116 0.474700 0.442874 -0.193491
C22   C     C_R   0.865086 0.450542 0.446236 0.442402
C23   C     C_R   0.859983 0.603629 0.630500 0.223131
C24   C     C_R   0.968359 0.618563 0.638988 0.362765
C25   C     C_2   0.444978 0.929057 0.557904 0.208281
C26   C     C_2   0.521710 0.864545 0.513069 0.340562
C27   C     C_2   0.461434 0.061498 0.587997 0.315225
Cu1   Cu    Cu3+1 0.500020 0.500020 0.638640 1.062713
Cu2   Cu    Cu3+1 0.499980 0.499980 0.361360 1.034293
H1    H     H_    0.465290 0.574278 0.108581 0.182540
H2    H     H_    0.260145 0.236455 0.868082 0.204759
H3    H     H_    0.596545 0.625289 0.842240 0.396551
H4    H     H_    0.547881 0.241281 0.047894 0.309153
H5    H     H_    0.834411 0.757938 0.720988 0.338205
H6    H     H_    0.014348 0.354766 0.148684 0.350436
H7    H     H_    0.983208 0.707781 0.814399 0.326939
H8    H     H_    0.248899 0.235473 0.375159 0.152945
H9    H     H_    0.215407 0.197052 0.194695 0.175940
H10   H     H_    0.115371 0.207088 0.305236 0.177664
H11   H     H_    0.214779 0.440679 0.759028 0.142901
H12   H     H_    0.892100 0.220135 0.449653 0.132546
H13   H     H_    0.120241 0.531080 0.834808 0.156788
H14   H     H_    0.254767 0.570987 0.867263 0.170793
H15   H     H_    0.303113 0.936269 0.600012 0.341505
H16   H     H_    0.635912 0.850022 0.313191 0.184183
H17   H     H_    0.703446 0.770172 0.457550 0.155931
H18   H     H_    0.749143 0.916018 0.408537 0.179844
H19   H     H_    0.548718 0.995592 0.817581 0.165577
H20   H     H_    0.411798 0.957553 0.824735 0.180909
H21   H     H_    0.471783 0.082423 0.922837 0.170038
H22   H     H_    0.771312 0.183489 0.350309 0.209363
H23   H     H_    0.770112 0.256808 0.516161 0.116602
H24   H     H_    0.349538 0.024119 0.316023 0.145062
H25   H     H_    0.427462 0.019426 0.174704 0.188874
H26   H     H_    0.389316 0.163984 0.237031 0.195769
H27   H     H_    0.288930 0.360706 0.989343 0.157053
H28   H     H_    0.355210 0.217171 0.010231 0.169428
N1    N     N_2   0.498860 0.498660 0.846770 -0.078558
N2    N     N_2   0.498840 0.498630 0.152900 -0.267108
O1    O     O_R   0.500020 0.321960 0.617050 -0.528196
O2    O     O_3   0.505016 0.079543 0.358307 -0.546608
O3    O     O_3   0.399221 0.323664 0.851366 -0.543312
O4    O     O_3   0.570284 0.574521 0.914128 -0.686691
O5    O     O_3   0.538532 0.297260 0.126271 -0.666428
O6    O     O_3   0.800042 0.676774 0.705648 -0.722618
O7    O     O_3   0.968743 0.369283 0.222327 -0.662888
O8    O     O_3   0.019449 0.703253 0.729912 -0.683898
O9    O     O_3   0.185592 0.372333 0.251864 -0.574634
O10   O     O_3   0.188937 0.612995 0.673596 -0.488534
O11   O     O_3   0.350952 0.872770 0.574154 -0.740264
O12   O     O_R   0.499980 0.321920 0.382890 -0.512641
O13   O     O_3   0.619178 0.919961 0.510799 -0.604126
O14   O     O_3   0.443200 0.112929 0.714854 -0.554161
O15   O     O_R   0.349010 0.500000 0.598060 -0.548069
O16   O     O_R   0.348980 0.499950 0.363910 -0.556543
O17   O     O_R   0.500020 0.678080 0.617110 -0.574690
O18   O     O_R   0.499980 0.678040 0.382950 -0.619552
O19   O     O_R   0.651020 0.500050 0.636090 -0.554578
O20   O     O_R   0.650990 0.500000 0.401940 -0.531359
O21   O     O_3   0.813034 0.365038 0.356393 -0.486354

loop_
_geom_bond_atom_site_label_1
_geom_bond_atom_site_label_2
_ccdc_geom_bond_type
C26   O13   S    
Cu1   O15   S    
C19   H17   S    
C7    C8    S    
C16   H2    S    
C1    O12   A    
C15   H24   S    
Cu1   Cu2   S    
C18   H13   S    
C19   H18   S    
C8    C23   A    
C9    C13   A    
C1    C2    S    
C17   H10   S    
C18   H11   S    
C4    O16   A    
C20   H21   S    
C24   O8    S    
C14   H23   S    
Cu2   N2    S    
C8    C22   A    
C23   C24   A    
H15   O11   S    
C2    C27   D    
C14   O21   S    
Cu1   O19   S    
C4    O15   A    
C2    O2    S    
C17   H9    S    
C18   O10   S    
C10   O7    S    
C21   C22   A    
C19   O13   S    
C16   O3    S    
H5    O6    S    
Cu1   O1    S    
C10   C21   A    
H7    O8    S    
C5    N2    D    
C15   H25   S    
C1    O1    A    
C6    O18   A    
H6    O7    S    
C25   C26   D    
C12   C21   A    
C5    O5    S    
C15   H26   S    
C16   H27   S    
C20   H20   S    
C14   H22   S    
Cu2   O20   S    
H1    N2    S    
C15   O2    S    
C17   H8    S    
C9    C11   A    
C20   H19   S    
C14   H12   S    
C7    O19   A    
Cu1   O17   S    
C11   O9    S    
C7    O20   A    
C3    O3    S    
N1    O4    S    
C17   O9    S    
H3    O4    S    
C3    C5    S    
C19   H16   S    
C6    O17   A    
Cu2   O16   S    
Cu1   N1    S    
C25   C27   S    
C12   C24   A    
C23   O6    S    
C22   O21   S    
C18   H14   S    
C6    C26   S    
C13   O10   S    
H4    O5    S    
C20   O14   S    
C16   H28   S    
C10   C11   A    
C3    N1    D    
Cu2   O18   S    
C12   C13   A    
C25   O11   S    
C4    C9    S    
C27   O14   S    
Cu2   O12   S    
