data_mof_unit_29446.cif
_audit_creation_date              2012-12-11T14:03:53-0500
_audit_creation_method            fapswitch 2.2
_symmetry_space_group_name_H-M    P1
_symmetry_Int_Tables_number       1
_space_group_crystal_system       triclinic
_cell_length_a                    19.015866
_cell_length_b                    11.01519
_cell_length_c                    18.913177
_cell_angle_alpha                 90.15435
_cell_angle_beta                  89.69518
_cell_angle_gamma                 90.027603
_cell_volume                      3961.54705274

loop_
_atom_site_label
_atom_site_type_symbol
_atom_type_description
_atom_site_fract_x
_atom_site_fract_y
_atom_site_fract_z
_atom_type_partial_charge
C1    C     C_R   0.240014 0.466800 0.646884 0.549816
C2    C     C_R   0.760179 0.467282 0.353215 0.558690
C3    C     C_R   0.739993 0.966919 0.646810 0.549727
C4    C     C_R   0.259911 0.966826 0.353031 0.546776
C5    C     C_2   0.264073 0.780857 0.524860 0.181953
C6    C     C_2   0.736404 0.780002 0.474830 0.179762
C7    C     C_2   0.765816 0.282859 0.525422 0.185330
C8    C     C_2   0.235964 0.280837 0.474891 0.187873
C9    C     C_R   0.997092 0.660046 0.425221 -0.000132
C10   C     C_R   0.043270 0.660650 0.563902 -0.013735
C11   C     C_R   0.462063 0.170625 0.436492 -0.018463
C12   C     C_R   0.537244 0.170288 0.563753 -0.016980
C13   C     C_R   0.025791 0.879641 0.418770 -0.125382
C14   C     C_R   0.006878 0.881687 0.564393 -0.124687
C15   C     C_R   0.474593 0.398780 0.432652 -0.139594
C16   C     C_R   0.526294 0.398771 0.567756 -0.139807
C17   C     C_R   0.016318 0.990548 0.453896 0.294187
C18   C     C_R   0.999251 0.989476 0.526071 0.273528
C19   C     C_R   0.494016 0.507095 0.464346 0.277363
C20   C     C_R   0.508852 0.507390 0.535687 0.277740
C21   C     C_R   0.025170 0.772101 0.529962 -0.053316
C22   C     C_R   0.019041 0.770126 0.456235 -0.057368
C23   C     C_R   0.516247 0.284536 0.533994 -0.036330
C24   C     C_R   0.483723 0.284639 0.466399 -0.036545
C25   C     C_R   0.038925 0.551894 0.524726 0.004628
C26   C     C_R   0.996173 0.553327 0.466619 0.020538
C27   C     C_R   0.525888 0.064863 0.524814 0.016376
C28   C     C_R   0.472826 0.065144 0.475316 0.015791
C29   C     C_R   0.066006 0.439186 0.545794 -0.097018
C30   C     C_R   0.954938 0.448274 0.454155 -0.085663
C31   C     C_R   0.561868 0.956164 0.536859 -0.093169
C32   C     C_R   0.437102 0.956420 0.462276 -0.092588
C33   C     C_R   0.035472 0.331994 0.523056 -0.042064
C34   C     C_R   0.975464 0.337459 0.481662 -0.031854
C35   C     C_R   0.533450 0.848033 0.513237 -0.017767
C36   C     C_R   0.466384 0.847877 0.483630 -0.020173
C37   C     C_2   0.240287 0.902425 0.926673 -0.045469
C38   C     C_2   0.745335 0.926518 0.083545 -0.066785
C39   C     C_2   0.755108 0.427837 0.916108 -0.067997
C40   C     C_2   0.259711 0.401639 0.073250 -0.047329
C41   C     C_2   0.246954 0.896062 0.084925 0.228166
C42   C     C_2   0.746867 0.930003 0.924569 0.242191
C43   C     C_2   0.753617 0.430849 0.074994 0.233375
C44   C     C_2   0.253229 0.396119 0.914793 0.233601
C45   C     C_R   0.207296 0.824798 0.641558 0.581916
C46   C     C_R   0.792991 0.824372 0.358273 0.598576
C47   C     C_R   0.707469 0.324992 0.641508 0.577424
C48   C     C_R   0.292764 0.324767 0.358343 0.577606
C49   C     C_2   0.192397 0.931814 0.045698 -0.085981
C50   C     C_2   0.771806 0.015085 0.969518 -0.075814
C51   C     C_2   0.729065 0.516421 0.030410 -0.077344
C52   C     C_2   0.307514 0.432532 0.954352 -0.084788
C53   C     C_2   0.185447 0.900587 0.971764 -0.100118
C54   C     C_2   0.787968 0.992103 0.042916 -0.118930
C55   C     C_2   0.712723 0.493743 0.956942 -0.116718
C56   C     C_2   0.314565 0.400816 0.028146 -0.100734
C57   C     C_2   0.991659 0.664214 0.917271 -0.104849
C58   C     C_2   0.989351 0.655820 0.073788 -0.093837
C59   C     C_2   0.491431 0.164118 0.917171 -0.103801
C60   C     C_2   0.489162 0.155905 0.073718 -0.105039
C61   C     C_2   0.963152 0.569898 0.030463 -0.142927
C62   C     C_2   0.977952 0.564878 0.955113 -0.154172
C63   C     C_2   0.463260 0.069655 0.030449 -0.149695
C64   C     C_2   0.478044 0.064723 0.955096 -0.153736
C65   C     C_R   0.060787 0.651522 0.638468 0.527927
C66   C     C_R   0.968250 0.654329 0.355053 0.533068
C67   C     C_R   0.559456 0.153270 0.637613 0.520719
C68   C     C_R   0.440382 0.153469 0.362376 0.521813
C69   C     C_R   0.239351 0.463359 0.849644 0.546200
C70   C     C_R   0.761764 0.468468 0.148260 0.535691
C71   C     C_R   0.738341 0.968304 0.851579 0.539054
C72   C     C_R   0.260695 0.963326 0.150274 0.541111
C73   C     C_R   0.226168 0.871169 0.853922 0.550978
C74   C     C_R   0.771788 0.874921 0.148314 0.554419
C75   C     C_R   0.728300 0.375291 0.851575 0.558080
C76   C     C_R   0.273904 0.370772 0.145985 0.551203
C77   C     C_R   0.028393 0.652782 0.850157 0.565981
C78   C     C_R   0.968162 0.651536 0.147535 0.555130
C79   C     C_R   0.528334 0.152775 0.850124 0.570355
C80   C     C_R   0.468069 0.151537 0.147487 0.565742
C81   C     C_2   0.212840 0.833071 0.564427 -0.055122
C82   C     C_2   0.787856 0.831933 0.435502 -0.051960
C83   C     C_2   0.713782 0.333822 0.564508 -0.056080
C84   C     C_2   0.287258 0.332781 0.435469 -0.059067
C85   C     C_2   0.245106 0.915073 0.422460 -0.145372
C86   C     C_2   0.754605 0.915248 0.577187 -0.143501
C87   C     C_2   0.746237 0.416168 0.422821 -0.133247
C88   C     C_2   0.254089 0.416107 0.576972 -0.136095
C89   C     C_2   0.270054 0.809034 0.447342 -0.082128
C90   C     C_2   0.730121 0.808673 0.552310 -0.082024
C91   C     C_2   0.772449 0.311339 0.448037 -0.080749
C92   C     C_2   0.230813 0.308556 0.552447 -0.080429
Cr1   Cr    Cr6+3 0.113970 0.508630 0.747920 1.031129
Cr2   Cr    Cr6+3 0.886030 0.508630 0.252080 1.037113
Cr3   Cr    Cr6+3 0.613970 0.008630 0.747920 1.043220
Cr4   Cr    Cr6+3 0.386030 0.008630 0.252080 1.037170
Cr5   Cr    Cr6+3 0.269200 0.666740 0.749850 1.075051
Cr6   Cr    Cr6+3 0.730800 0.666740 0.250150 1.074470
Cr7   Cr    Cr6+3 0.769200 0.166740 0.749850 1.060577
Cr8   Cr    Cr6+3 0.230800 0.166740 0.250150 1.064981
Cr9   Cr    Cr6+3 0.112300 0.820070 0.749800 1.026096
Cr10  Cr    Cr6+3 0.887700 0.820070 0.250200 1.029123
Cr11  Cr    Cr6+3 0.612300 0.320070 0.749800 1.015300
Cr12  Cr    Cr6+3 0.387700 0.320070 0.250200 1.018611
H1    H     H_    0.132138 0.885578 0.953095 0.132486
H2    H     H_    0.837764 0.026642 0.062470 0.145857
H3    H     H_    0.662851 0.528119 0.937642 0.146237
H4    H     H_    0.367932 0.386582 0.046780 0.135921
H5    H     H_    0.293917 0.917973 0.943965 0.144568
H6    H     H_    0.694041 0.897681 0.064721 0.158184
H7    H     H_    0.806489 0.399225 0.934714 0.150736
H8    H     H_    0.206032 0.416358 0.055973 0.150744
H9    H     H_    0.932229 0.494913 0.051321 0.166145
H10   H     H_    0.981352 0.474979 0.931545 0.160140
H11   H     H_    0.432702 0.994274 0.051367 0.169042
H12   H     H_    0.481820 0.974799 0.931621 0.163452
H13   H     H_    0.019888 0.732175 0.054376 0.091670
H14   H     H_    0.984874 0.754319 0.939790 0.106293
H15   H     H_    0.519302 0.232650 0.054222 0.102167
H16   H     H_    0.484260 0.254217 0.939587 0.102025
H17   H     H_    0.216962 0.977000 0.456766 0.129844
H18   H     H_    0.782411 0.977296 0.542796 0.131065
H19   H     H_    0.717511 0.477505 0.456886 0.126297
H20   H     H_    0.279894 0.479588 0.541955 0.127750
H21   H     H_    0.170053 0.881626 0.539625 0.057802
H22   H     H_    0.830835 0.880051 0.460573 0.065459
H23   H     H_    0.671138 0.381958 0.539379 0.050882
H24   H     H_    0.329814 0.381520 0.460672 0.051775
H25   H     H_    0.035464 0.879745 0.362394 0.132203
H26   H     H_    0.991093 0.885071 0.618953 0.154578
H27   H     H_    0.449825 0.413562 0.383295 0.176290
H28   H     H_    0.550498 0.413451 0.617413 0.177147
H29   H     H_    0.907147 0.450401 0.424034 0.160347
H30   H     H_    0.108053 0.433286 0.581682 0.159857
H31   H     H_    0.388530 0.955730 0.433798 0.138351
H32   H     H_    0.610482 0.955201 0.565395 0.136883
H33   H     H_    0.056273 0.247149 0.541561 0.190414
H34   H     H_    0.945687 0.257335 0.469093 0.212563
H35   H     H_    0.563052 0.766695 0.520423 0.209306
H36   H     H_    0.437619 0.766106 0.474224 0.203333
H37   H     H_    0.152721 0.993539 0.066372 0.121967
H38   H     H_    0.786635 0.104698 0.950552 0.145319
H39   H     H_    0.714421 0.606003 0.049813 0.146670
H40   H     H_    0.346886 0.495091 0.934078 0.121413
O1    O     O_R   0.043230 0.549300 0.667990 -0.497667
O2    O     O_R   0.956770 0.549300 0.332010 -0.516513
O3    O     O_R   0.543230 0.049300 0.667990 -0.484349
O4    O     O_R   0.456770 0.049300 0.332010 -0.482640
O5    O     O_R   0.262920 0.788600 0.824420 -0.489312
O6    O     O_R   0.737080 0.788600 0.175580 -0.504226
O7    O     O_R   0.762920 0.288600 0.824420 -0.502850
O8    O     O_R   0.237080 0.288600 0.175580 -0.487754
O9    O     O_R   0.167530 0.905110 0.830340 -0.509003
O10   O     O_R   0.832470 0.905110 0.169660 -0.509715
O11   O     O_R   0.667530 0.405110 0.830340 -0.508785
O12   O     O_R   0.332470 0.405110 0.169660 -0.509244
O13   O     O_R   0.054010 0.748440 0.822860 -0.500174
O14   O     O_R   0.945990 0.748440 0.177140 -0.497076
O15   O     O_R   0.554010 0.248440 0.822860 -0.492986
O16   O     O_R   0.445990 0.248440 0.177140 -0.494514
O17   O     O_3   0.165160 0.665150 0.749190 -0.307524
O18   O     O_3   0.834840 0.665150 0.250810 -0.295570
O19   O     O_3   0.665160 0.165150 0.749190 -0.305151
O20   O     O_3   0.334840 0.165150 0.250810 -0.306449
O21   O     O_R   0.178620 0.457600 0.674100 -0.531827
O22   O     O_R   0.821380 0.457600 0.325900 -0.510606
O23   O     O_R   0.678620 0.957600 0.674100 -0.518073
O24   O     O_R   0.321380 0.957600 0.325900 -0.517926
O25   O     O_R   0.284680 0.542100 0.669460 -0.464566
O26   O     O_R   0.715320 0.542100 0.330540 -0.463559
O27   O     O_R   0.784680 0.042100 0.669460 -0.472154
O28   O     O_R   0.215320 0.042100 0.330540 -0.476162
O29   O     O_R   0.262860 0.790390 0.676650 -0.421541
O30   O     O_R   0.737140 0.790390 0.323350 -0.425179
O31   O     O_R   0.762860 0.290390 0.676650 -0.419917
O32   O     O_R   0.237140 0.290390 0.323350 -0.419334
O33   O     O_R   0.167460 0.907030 0.670940 -0.497345
O34   O     O_R   0.832540 0.907030 0.329060 -0.494465
O35   O     O_R   0.667460 0.407030 0.670940 -0.521814
O36   O     O_R   0.332540 0.407030 0.329060 -0.519629
O37   O     O_R   0.053950 0.750220 0.675100 -0.531942
O38   O     O_R   0.946050 0.750220 0.324900 -0.533570
O39   O     O_R   0.553950 0.250220 0.675100 -0.537047
O40   O     O_R   0.446050 0.250220 0.324900 -0.534613
O41   O     O_R   0.043300 0.547370 0.827390 -0.502152
O42   O     O_R   0.956700 0.547370 0.172610 -0.506203
O43   O     O_R   0.543300 0.047370 0.827390 -0.501998
O44   O     O_R   0.456700 0.047370 0.172610 -0.502535
O45   O     O_R   0.178690 0.455820 0.821860 -0.500864
O46   O     O_R   0.821310 0.455820 0.178140 -0.503771
O47   O     O_R   0.678690 0.955820 0.821860 -0.495636
O48   O     O_R   0.321310 0.955820 0.178140 -0.508830
O49   O     O_R   0.284750 0.540170 0.828860 -0.534519
O50   O     O_R   0.715250 0.540170 0.171140 -0.534787
O51   O     O_R   0.784750 0.040170 0.828860 -0.538142
O52   O     O_R   0.215250 0.040170 0.171140 -0.535360
C93   C     C_1   0.307221 0.726938 0.400362 0.195477
N1    N     N_1   0.337202 0.662080 0.362653 -0.266034
C94   C     C_1   0.693137 0.726555 0.599198 0.200142
N2    N     N_1   0.663349 0.661669 0.636863 -0.265624
C95   C     C_1   0.810515 0.229719 0.401432 0.192333
N3    N     N_1   0.841205 0.165100 0.364138 -0.247971
C96   C     C_1   0.196294 0.224196 0.599803 0.184327
N4    N     N_1   0.168297 0.157709 0.637878 -0.260901
O53   O     O_3   0.291954 0.806487 0.060174 -0.724822
H41   H     H_    0.327521 0.789152 0.096842 0.337344
O54   O     O_3   0.729923 0.814147 0.946705 -0.737016
H42   H     H_    0.713846 0.767495 0.904879 0.324373
O55   O     O_3   0.770490 0.315109 0.052272 -0.740879
H43   H     H_    0.786434 0.268139 0.093879 0.324356
O56   O     O_3   0.208634 0.305657 0.938968 -0.717964
H44   H     H_    0.173444 0.287632 0.901982 0.339907
O57   O     O_3   0.312660 0.707160 0.557936 -0.660185
H45   H     H_    0.344437 0.670789 0.522302 0.329244
O58   O     O_3   0.687759 0.706389 0.441517 -0.659222
H46   H     H_    0.656610 0.668692 0.477140 0.330093
O59   O     O_3   0.814312 0.209415 0.558766 -0.660660
H47   H     H_    0.847732 0.176704 0.523493 0.344608
O60   O     O_3   0.186715 0.207990 0.441914 -0.657713
H48   H     H_    0.152807 0.177410 0.477365 0.333233
O61   O     O_3   0.018959 0.099147 0.418033 -0.689075
H49   H     H_    0.031598 0.083531 0.367892 0.327594
O62   O     O_3   0.972875 0.092672 0.557668 -0.721629
H50   H     H_    0.963173 0.076968 0.608383 0.329132
O63   O     O_3   0.500004 0.612411 0.425818 -0.707825
H51   H     H_    0.492253 0.595322 0.374946 0.328776
O64   O     O_3   0.504973 0.613739 0.573848 -0.706730
H52   H     H_    0.511879 0.597185 0.624851 0.328919

loop_
_geom_bond_atom_site_label_1
_geom_bond_atom_site_label_2
_ccdc_geom_bond_type
C84   H24   S    
C7    C83   D    
C96   N4    T    
Cr2   O2    S    
C59   H16   S    
C6    C82   D    
C87   C91   D    
Cr8   O28   S    
C77   O41   A    
C95   N3    T    
C14   C18   A    
C35   C36   A    
C88   H20   S    
C30   C34   A    
C3    O27   A    
Cr10  O14   S    
C3    O23   A    
Cr3   O43   S    
C57   C62   D    
C40   H8    S    
C65   O37   A    
O53   H41   S    
Cr8   O8    S    
C15   C19   A    
C12   C23   A    
C74   O10   A    
C59   C64   D    
C50   C54   S    
C20   O64   S    
C79   O43   A    
C60   C63   D    
Cr11  O39   S    
C32   C36   A    
C14   C21   A    
C16   C20   A    
C2    O22   A    
C62   H10   S    
Cr3   O19   S    
C79   O15   A    
Cr6   O30   S    
C43   C51   D    
C9    C22   A    
C80   O16   A    
Cr7   O27   S    
C76   O8    A    
C29   C33   A    
C11   C24   A    
Cr5   O25   S    
Cr6   O50   S    
C60   H15   S    
C17   C18   A    
Cr5   O49   S    
O64   H52   S    
C46   O34   A    
C9    C66   S    
C56   H4    S    
C47   O35   A    
C35   H35   S    
C5    C81   D    
C46   C82   S    
C59   C79   S    
C78   O14   A    
C69   O49   A    
C39   C55   D    
C6    O58   S    
C88   C92   D    
C4    O24   A    
C40   C56   D    
C49   H37   S    
Cr8   O32   S    
C23   C24   A    
Cr4   O24   S    
Cr1   O1    S    
C78   O42   A    
C39   C75   S    
C38   H6    S    
Cr2   O18   S    
C37   H5    S    
C42   O54   S    
C68   O4    A    
C45   O33   A    
C37   C53   D    
C44   C52   D    
C58   C61   D    
C39   H7    S    
C29   H30   S    
C66   O38   A    
Cr1   O21   S    
C94   N2    T    
C40   C76   S    
C21   C22   A    
C3    C86   S    
C41   O53   S    
C14   H26   S    
C61   C62   S    
Cr12  O16   S    
C16   H28   S    
C41   C49   D    
Cr6   O18   S    
C9    C26   A    
C33   C34   A    
Cr8   O52   S    
C10   C21   A    
C25   C29   A    
Cr4   O4    S    
C12   C67   S    
Cr5   O29   S    
C54   H2    S    
C12   C27   A    
C27   C31   A    
O54   H42   S    
Cr10  O38   S    
C57   C77   S    
C28   C32   A    
Cr3   O3    S    
O62   H50   S    
O55   H43   S    
C86   C90   D    
C33   H33   S    
O60   H48   S    
C85   C89   D    
C11   C68   S    
C90   C94   S    
C51   C55   S    
O59   H47   S    
O57   H45   S    
Cr7   O7    S    
C64   H12   S    
C76   O12   A    
C58   H13   S    
C47   C83   S    
Cr4   O20   S    
C55   H3    S    
Cr6   O26   S    
C75   O7    A    
O58   H46   S    
Cr2   O46   S    
C86   H18   S    
O61   H49   S    
C45   O29   A    
C48   C84   S    
C71   O51   A    
O56   H44   S    
C38   C54   D    
Cr1   O17   S    
C70   O50   A    
C30   H29   S    
C5    O57   S    
C46   O30   A    
O63   H51   S    
C80   O44   A    
Cr7   O31   S    
C2    C87   S    
Cr8   O20   S    
C52   H40   S    
Cr12  O12   S    
C85   H17   S    
C18   O62   S    
C36   H36   S    
C91   C95   S    
C92   C96   S    
C67   O39   A    
C42   C50   D    
C41   C72   S    
C8    C92   S    
C10   C25   A    
Cr11  O11   S    
C15   C24   A    
Cr12  O40   S    
C2    O26   A    
C26   C30   A    
C43   C70   S    
Cr5   O17   S    
C61   H9    S    
Cr10  O34   S    
Cr7   O19   S    
Cr7   O51   S    
Cr9   O9    S    
C69   O45   A    
C7    C91   S    
C48   O36   A    
Cr9   O37   S    
Cr10  O18   S    
C70   O46   A    
Cr6   O6    S    
C10   C65   S    
C37   C73   S    
C60   C80   S    
Cr5   O5    S    
Cr1   O45   S    
C4    O28   A    
C81   H21   S    
C1    O21   A    
C8    C84   D    
C45   C81   S    
Cr2   O42   S    
C83   H23   S    
C31   H32   S    
Cr3   O23   S    
C72   O52   A    
C32   H31   S    
C75   O11   A    
C4    C85   S    
C13   H25   S    
Cr3   O47   S    
C16   C23   A    
C89   C93   S    
Cr11  O19   S    
C13   C17   A    
C44   O56   S    
Cr4   O48   S    
C19   C20   A    
Cr9   O17   S    
C25   C26   A    
C68   O40   A    
C63   H11   S    
C8    O60   S    
C6    C90   S    
Cr10  O10   S    
C87   H19   S    
C34   H34   S    
Cr11  O15   S    
Cr12  O20   S    
Cr12  O36   S    
C52   C56   S    
C11   C28   A    
C1    C88   S    
C49   C53   S    
C31   C35   A    
C1    O25   A    
C42   C71   S    
C38   C74   S    
C13   C22   A    
Cr11  O35   S    
C51   H39   S    
C19   O63   S    
C93   N1    T    
C43   O55   S    
C5    C89   S    
Cr2   O22   S    
C66   O2    A    
Cr9   O33   S    
C58   C78   S    
C47   O31   A    
Cr9   O13   S    
C63   C64   S    
C7    O59   S    
C17   O61   S    
C53   H1    S    
C15   H27   S    
C73   O5    A    
C67   O3    A    
C73   O9    A    
C27   C28   A    
C44   C69   S    
C74   O6    A    
C71   O47   A    
C65   O1    A    
Cr4   O44   S    
C72   O48   A    
C82   H22   S    
C50   H38   S    
C77   O13   A    
C57   H14   S    
C48   O32   A    
Cr1   O41   S    
