data_mof_unit_22863.cif
_audit_creation_date              2013-03-05T15:49:14-0500
_audit_creation_method            fapswitch 2.2
_symmetry_space_group_name_H-M    P1
_symmetry_Int_Tables_number       1
_space_group_crystal_system       triclinic
_cell_length_a                    15.870679
_cell_length_b                    13.05857
_cell_length_c                    11.815798
_cell_angle_alpha                 98.984423
_cell_angle_beta                  92.938402
_cell_angle_gamma                 93.661266
_cell_volume                      2409.16129746

loop_
_atom_site_label
_atom_site_type_symbol
_atom_site_description
_atom_site_fract_x
_atom_site_fract_y
_atom_site_fract_z
_atom_type_partial_charge
O1    O     O_R   0.504400 0.354460 0.582000 -0.518369
O2    O     O_R   0.495600 0.645540 0.418000 -0.517065
O3    O     O_R   0.493920 0.341410 0.386200 -0.564707
O4    O     O_R   0.506080 0.658590 0.613800 -0.564852
C1    C     C_R   0.506049 0.300334 0.479455 0.841032
C2    C     C_R   0.493662 0.699592 0.520473 0.843088
O5    O     O_R   0.384320 0.506520 0.597880 -0.552422
O6    O     O_R   0.615680 0.493480 0.402120 -0.552174
O7    O     O_R   0.373840 0.493460 0.402080 -0.538989
O8    O     O_R   0.626160 0.506540 0.597920 -0.540084
C3    C     C_R   0.340195 0.498983 0.500811 0.820118
C4    C     C_R   0.659806 0.501029 0.499186 0.819394
Cu1   Cu    Cu3+1 0.506200 0.507730 0.615930 1.091690
Cu2   Cu    Cu3+1 0.493800 0.492270 0.384070 1.092887
C5    C     C_3   0.968437 0.405195 0.514043 -0.088630
C6    C     C_3   0.031579 0.595072 0.485679 -0.088622
C7    C     C_3   0.025035 0.427668 0.415771 -0.271863
C8    C     C_3   0.974979 0.572603 0.583960 -0.272053
H1    H     H_    0.045097 0.369247 0.345503 0.205711
H2    H     H_    0.954919 0.631029 0.654225 0.205596
C9    C     C_1   0.250863 0.498733 0.503299 -0.050751
C10   C     C_1   0.749143 0.501370 0.496672 -0.051535
C11   C     C_3   0.027897 0.480186 0.600389 0.340157
C12   C     C_3   0.972105 0.520085 0.399351 0.340426
C13   C     C_3   0.084259 0.502861 0.504312 -0.018890
C14   C     C_3   0.915754 0.497406 0.495432 -0.018793
C15   C     C_1   0.175586 0.499858 0.504954 0.055991
C16   C     C_1   0.824422 0.500332 0.494926 0.056292
C17   C     C_R   0.482696 0.812331 0.530890 -0.246954
C18   C     C_R   0.515741 0.187342 0.468477 -0.250036
C19   C     C_R   0.510862 0.018862 0.346547 0.340771
C20   C     C_R   0.484027 0.981045 0.651350 0.338873
C21   C     C_R   0.523336 0.127376 0.359826 -0.135035
C22   C     C_R   0.473914 0.872442 0.639118 -0.137873
C23   C     C_R   0.517554 0.138565 0.566822 0.334662
C24   C     C_R   0.479740 0.860566 0.431981 0.330139
C25   C     C_R   0.500393 0.029976 0.554807 -0.152283
C26   C     C_R   0.495462 0.969430 0.443192 -0.156679
N1    N     N_R   0.515540 0.519350 0.790140 -0.307571
N2    N     N_R   0.484460 0.480650 0.209860 -0.307376
C27   C     C_R   0.404167 0.420969 0.029186 0.174054
C28   C     C_R   0.595523 0.579573 0.970933 0.175064
C29   C     C_R   0.414495 0.428251 0.149135 0.362858
C30   C     C_R   0.585338 0.572077 0.850936 0.361692
C31   C     C_R   0.545933 0.526991 0.152632 0.486464
C32   C     C_R   0.454057 0.472966 0.847309 0.485265
C33   C     C_R   0.535871 0.527146 0.031421 -0.270837
C34   C     C_R   0.463936 0.473112 0.968592 -0.272226
C35   C     C_R   0.941889 0.295716 0.530799 0.140580
C36   C     C_R   0.004174 0.230640 0.559315 -0.077802
C37   C     C_R   0.981584 0.129308 0.576724 -0.126072
C38   C     C_R   0.896760 0.091402 0.564166 -0.095962
C39   C     C_R   0.834465 0.154759 0.533913 -0.073160
C40   C     C_R   0.856770 0.256424 0.517215 -0.102388
H3    H     H_    0.070282 0.258640 0.568792 0.166470
H4    H     H_    0.029892 0.080161 0.599915 0.157551
H5    H     H_    0.879367 0.012815 0.577331 0.152444
H6    H     H_    0.768790 0.125057 0.523199 0.162908
H7    H     H_    0.807292 0.302775 0.492738 0.115700
C41   C     C_R   0.058063 0.704523 0.468753 0.140166
C42   C     C_R   0.995634 0.769823 0.441302 -0.078325
C43   C     C_R   0.018124 0.871133 0.423728 -0.126055
C44   C     C_R   0.103002 0.908794 0.435051 -0.095820
C45   C     C_R   0.165470 0.845166 0.464091 -0.072918
C46   C     C_R   0.143260 0.743508 0.480904 -0.100484
H8    H     H_    0.929487 0.742002 0.432768 0.165790
H9    H     H_    0.969695 0.920439 0.401333 0.156805
H10   H     H_    0.120312 0.987374 0.421786 0.152666
H11   H     H_    0.231211 0.874631 0.473719 0.162539
H12   H     H_    0.192897 0.696894 0.504232 0.116616
N3    N     N_R   0.943950 0.541490 0.286670 0.133454
O9    O     O_R   0.999214 0.556358 0.212257 -0.261647
O10   O     O_R   0.864188 0.548183 0.260672 -0.269655
N4    N     N_R   0.056013 0.458837 0.713110 0.133142
O11   O     O_R   0.000714 0.443899 0.787456 -0.261903
O12   O     O_R   0.135789 0.452451 0.739291 -0.269939
N5    N     N_R   0.442779 0.802483 0.325750 0.157759
O13   O     O_R   0.489702 0.756962 0.248869 -0.271564
O14   O     O_R   0.360963 0.785807 0.311638 -0.358552
N6    N     N_R   0.556720 0.194656 0.672797 0.154505
O15   O     O_R   0.638726 0.201596 0.688557 -0.359149
O16   O     O_R   0.512161 0.243450 0.750476 -0.271890
C47   C     C_R   0.438026 0.823588 0.733544 0.156370
C48   C     C_R   0.484956 0.824080 0.837719 0.017284
C49   C     C_R   0.450378 0.775593 0.923984 -0.112939
C50   C     C_R   0.368478 0.727705 0.907699 -0.070427
C51   C     C_R   0.320998 0.727891 0.804827 -0.056889
C52   C     C_R   0.355661 0.775177 0.717870 -0.154584
H13   H     H_    0.548541 0.860623 0.851582 0.210345
H14   H     H_    0.487179 0.774695 0.003343 0.231857
H15   H     H_    0.341979 0.690113 0.974607 0.193731
H16   H     H_    0.257508 0.690812 0.792092 0.184251
H17   H     H_    0.318470 0.774165 0.638233 0.112568
C53   C     C_R   0.559952 0.175937 0.265579 0.159659
C54   C     C_R   0.642520 0.223782 0.281905 -0.153027
C55   C     C_R   0.677808 0.271173 0.195446 -0.057294
C56   C     C_R   0.630772 0.272060 0.092402 -0.072250
C57   C     C_R   0.548717 0.224702 0.075414 -0.115375
C58   C     C_R   0.513547 0.175933 0.161090 0.017247
H18   H     H_    0.679363 0.224381 0.361738 0.111547
H19   H     H_    0.741411 0.307877 0.208747 0.183191
H20   H     H_    0.657717 0.309848 0.025931 0.193289
H21   H     H_    0.512212 0.226397 0.996025 0.231753
H22   H     H_    0.449834 0.139887 0.146647 0.211397
N7    N     N_R   0.522697 0.959735 0.236645 0.146822
O17   O     O_R   0.461071 0.945133 0.157576 -0.329721
O18   O     O_R   0.598450 0.936979 0.209523 -0.273114
N8    N     N_R   0.467000 0.040818 0.758882 0.149469
O19   O     O_R   0.391479 0.071289 0.774900 -0.267254
O20   O     O_R   0.523200 0.052994 0.844870 -0.331088
N9    N     N_R   0.375992 0.432967 0.786197 0.169579
O21   O     O_R   0.310038 0.486937 0.797780 -0.319300
O22   O     O_R   0.369284 0.342173 0.721787 -0.250486
N10   N     N_R   0.624269 0.566334 0.213450 0.169661
O23   O     O_R   0.631282 0.656513 0.279111 -0.252465
O24   O     O_R   0.690127 0.512341 0.200471 -0.319865
N11   N     N_R   0.649634 0.622269 0.793864 0.169020
O25   O     O_R   0.639607 0.713592 0.766918 -0.356771
O26   O     O_R   0.724513 0.587059 0.790588 -0.285708
N12   N     N_R   0.350058 0.378300 0.206221 0.168965
O27   O     O_R   0.275156 0.413468 0.209043 -0.284846
O28   O     O_R   0.360117 0.287325 0.234102 -0.356736
N13   N     N_R   0.335529 0.353372 0.970561 0.185784
O29   O     O_R   0.347437 0.256300 0.935219 -0.251885
O30   O     O_R   0.258734 0.382724 0.972684 -0.192409
N14   N     N_R   0.663660 0.647909 0.029791 0.184979
O31   O     O_R   0.740914 0.620201 0.026710 -0.192691
O32   O     O_R   0.650420 0.744019 0.068117 -0.253008

loop_
_geom_bond_atom_site_label_1
_geom_bond_atom_site_label_2
_geom_bond_distance
_ccdc_geom_bond_type
C51   C52   1.397264 A    
N14   O31   1.301019 A    
C19   N7    1.431129 S    
C54   C55   1.397180 A    
C8    C14   1.549980 S    
C21   C53   1.489897 S    
N10   O23   1.300046 A    
N13   O29   1.300119 A    
N5    O13   1.300149 A    
C38   C39   1.396543 A    
O5    C3    1.299678 A    
N7    O18   1.300703 A    
C17   C24   1.411687 A    
C25   C26   1.423512 A    
N4    O12   1.298866 A    
C43   H9    1.082071 S    
O1    C1    1.306328 A    
C30   N11   1.431365 S    
C23   C25   1.410302 A    
C12   C14   1.533517 S    
C24   N5    1.437098 S    
N11   O26   1.301571 A    
C49   C50   1.396623 A    
N13   O30   1.301071 A    
C57   H21   1.080966 S    
C4    C10   1.419419 S    
C23   N6    1.437502 S    
N8    O19   1.300534 A    
C37   H4    1.082123 S    
C6    C41   1.510188 S    
C31   C33   1.433255 A    
O4    Cu1   1.974222 S    
C52   H17   1.082672 S    
C42   H8    1.083159 S    
N2    C29   1.372566 A    
C33   C34   1.413861 A    
O6    Cu2   1.933928 S    
C19   C21   1.401194 A    
C56   H20   1.082488 S    
C18   C21   1.410598 A    
C29   N12   1.431522 S    
C42   C43   1.397798 A    
C5    C11   1.536754 S    
C47   C52   1.405611 A    
C9    C15   1.196851 T    
C6    C12   1.536733 S    
C10   C16   1.196867 T    
C55   H19   1.082488 S    
C27   C29   1.405956 A    
O2    C2    1.305707 A    
C28   C30   1.406110 A    
C31   N10   1.427415 S    
N12   O28   1.298622 A    
C56   C57   1.396515 A    
C40   H7    1.076448 S    
N5    O14   1.300628 A    
N2    C31   1.376701 A    
C49   H14   1.081050 S    
C32   C34   1.433282 A    
C7    C12   1.544542 S    
N4    O11   1.300269 A    
C37   C38   1.396707 A    
C48   C49   1.398411 A    
N6    O16   1.299994 A    
N3    O10   1.298891 A    
C50   C51   1.397349 A    
C5    C14   1.545910 S    
C45   H11   1.082806 S    
C17   C22   1.410541 A    
C3    C9    1.419376 S    
C8    C11   1.544468 S    
C41   C42   1.405473 A    
C20   C22   1.400890 A    
O7    Cu2   1.927287 S    
C43   C44   1.396687 A    
C47   C48   1.404586 A    
O6    C4    1.299641 A    
C32   N9    1.427253 S    
C55   C56   1.397187 A    
C2    C17   1.480254 S    
C36   C37   1.397801 A    
N9    O22   1.300003 A    
C20   C25   1.419097 A    
O7    C3    1.301445 A    
O3    Cu2   1.974225 S    
O8    C4    1.301493 A    
N1    C32   1.376665 A    
C18   C23   1.409591 A    
O4    C2    1.310399 A    
C41   C46   1.406201 A    
C35   C36   1.405498 A    
C20   N8    1.431437 S    
O1    Cu1   1.976968 S    
C48   H13   1.081679 S    
C11   N4    1.456602 S    
C51   H16   1.082498 S    
N12   O27   1.301584 A    
C1    C18   1.479491 S    
C6    C13   1.545947 S    
C5    C7    1.555955 S    
C44   H10   1.082434 S    
N14   O32   1.300122 A    
N9    O21   1.299955 A    
C54   H18   1.082741 S    
N6    O15   1.300605 A    
O3    C1    1.309560 A    
O8    Cu1   1.927290 S    
N10   O24   1.299960 A    
C39   H6    1.082761 S    
C39   C40   1.398468 A    
N1    C30   1.372494 A    
C13   C15   1.452125 S    
N7    O17   1.301013 A    
C14   C16   1.452164 S    
C36   H3    1.083134 S    
C19   C26   1.420964 A    
C50   H15   1.082482 S    
C7    C13   1.550019 S    
C45   C46   1.398489 A    
C27   N13   1.433370 S    
C24   C26   1.411829 A    
N3    O9    1.300262 A    
N11   O25   1.298648 A    
C53   C58   1.404794 A    
C7    H1    1.110424 S    
C27   C34   1.419665 A    
N8    O20   1.300633 A    
C58   H22   1.081478 S    
C8    H2    1.110425 S    
C28   C33   1.419593 A    
C5    C35   1.510163 S    
C53   C54   1.405919 A    
O2    Cu2   1.976966 S    
Cu1   N1    2.037258 S    
C38   H5    1.082431 S    
C28   N14   1.433590 S    
Cu2   N2    2.037258 S    
C44   C45   1.396564 A    
O5    Cu1   1.933925 S    
C11   C13   1.533566 S    
C6    C8    1.556031 S    
C57   C58   1.398513 A    
C22   C47   1.489061 S    
C46   H12   1.076326 S    
Cu1   Cu2   2.711432 S    
C35   C40   1.406219 A    
C12   N3    1.456585 S    
