data_mof_unit_41554.cif
_audit_creation_date              2013-03-05T15:43:42-0500
_audit_creation_method            fapswitch 2.2
_symmetry_space_group_name_H-M    P1
_symmetry_Int_Tables_number       1
_space_group_crystal_system       triclinic
_cell_length_a                    14.278952
_cell_length_b                    14.081063
_cell_length_c                    27.339441
_cell_angle_alpha                 90.040834
_cell_angle_beta                  89.720991
_cell_angle_gamma                 119.908739
_cell_volume                      4764.80008211

loop_
_atom_site_label
_atom_site_type_symbol
_atom_site_description
_atom_site_fract_x
_atom_site_fract_y
_atom_site_fract_z
_atom_type_partial_charge
O1    O     O_R   0.137150 0.468200 0.553200 -0.508028
O2    O     O_R   0.531800 0.668950 0.553200 -0.504233
O3    O     O_R   0.331050 0.862850 0.553200 -0.489132
O4    O     O_R   0.173970 0.688730 0.549930 -0.503292
O5    O     O_R   0.311270 0.485240 0.549930 -0.494279
O6    O     O_R   0.514760 0.826030 0.549930 -0.500259
C1    C     C_R   0.235609 0.786776 0.569101 0.548365
C2    C     C_R   0.212962 0.446710 0.568273 0.548505
C3    C     C_R   0.546394 0.762721 0.570279 0.546906
O7    O     O_R   0.140110 0.470540 0.446010 -0.519469
O8    O     O_R   0.529460 0.669570 0.446010 -0.530131
O9    O     O_R   0.330430 0.859890 0.446010 -0.519635
O10   O     O_R   0.176710 0.690910 0.450560 -0.482962
O11   O     O_R   0.309090 0.485800 0.450560 -0.480412
O12   O     O_R   0.514200 0.823290 0.450560 -0.473634
C4    C     C_R   0.235918 0.787063 0.430947 0.592576
C5    C     C_R   0.213695 0.448919 0.431069 0.593881
C6    C     C_R   0.554369 0.766482 0.431534 0.578963
Cr1   Cr    Cr6+3 0.164410 0.584450 0.499910 1.044308
Cr2   Cr    Cr6+3 0.415550 0.579960 0.499910 1.044139
Cr3   Cr    Cr6+3 0.420040 0.835590 0.499910 1.063156
O13   O     O_3   0.333333 0.666667 0.499990 -0.313485
C7    C     C_3   0.546301 0.861227 0.743659 -0.102154
C8    C     C_3   0.153588 0.706180 0.737395 -0.107086
C9    C     C_3   0.183053 0.431333 0.736223 -0.058973
C10   C     C_3   0.748131 0.934126 0.723223 -0.076167
C11   C     C_3   0.073756 0.835684 0.726771 -0.079550
C12   C     C_3   0.286877 0.323148 0.728195 -0.063487
C13   C     C_3   0.770691 0.950892 0.780394 -0.110603
C14   C     C_3   0.053198 0.820310 0.783797 -0.126246
C15   C     C_3   0.280259 0.313063 0.786090 -0.076101
H1    H     H_    0.602777 0.966457 0.809461 0.205724
H2    H     H_    0.064663 0.639060 0.807522 0.228513
H3    H     H_    0.241021 0.479766 0.812218 0.218818
H4    H     H_    0.802752 0.905048 0.709329 0.145842
H5    H     H_    0.103174 0.924115 0.720869 0.162412
H6    H     H_    0.270305 0.240805 0.716122 0.184293
H7    H     H_    0.841147 0.939853 0.787051 0.100515
H8    H     H_    0.047926 0.891561 0.797357 0.101415
H9    H     H_    0.275719 0.234048 0.794983 0.083121
C16   C     C_1   0.730657 0.875162 0.904586 0.041658
C17   C     C_1   0.128995 0.854481 0.904982 0.043843
C18   C     C_1   0.138243 0.261233 0.901887 0.042398
C19   C     C_3   0.629161 0.837736 0.714771 0.042494
C20   C     C_3   0.168878 0.814780 0.712804 0.039807
C21   C     C_3   0.189902 0.336979 0.708684 0.043034
C22   C     C_3   0.575706 0.880359 0.799928 -0.063721
C23   C     C_3   0.142859 0.708508 0.795064 -0.074363
C24   C     C_3   0.171919 0.412077 0.792943 -0.079293
C25   C     C_3   0.672148 0.861162 0.810484 -0.014578
C26   C     C_3   0.149936 0.819135 0.810061 -0.022127
C27   C     C_3   0.172515 0.304508 0.805539 0.004469
C28   C     C_3   0.643466 0.744180 0.792721 -0.107164
C29   C     C_3   0.261646 0.915890 0.791914 -0.112967
C30   C     C_3   0.076306 0.207083 0.778085 -0.105976
C31   C     C_3   0.618171 0.729808 0.736957 -0.119074
C32   C     C_3   0.274352 0.911162 0.735117 -0.108453
C33   C     C_3   0.083427 0.228920 0.721214 -0.130355
C34   C     C_1   0.699343 0.869920 0.863312 -0.011670
C35   C     C_1   0.139493 0.831293 0.863578 0.006906
C36   C     C_1   0.158677 0.285240 0.859250 -0.014575
C37   C     C_1   0.602254 0.815190 0.662256 -0.024456
C38   C     C_1   0.185554 0.810300 0.659391 -0.028203
C39   C     C_1   0.192827 0.360657 0.655652 -0.024283
C40   C     C_1   0.581038 0.791243 0.619779 0.006460
C41   C     C_1   0.205168 0.802988 0.617053 -0.001444
C42   C     C_1   0.196750 0.392519 0.614388 -0.005939
H10   H     H_    0.532364 0.666387 0.733650 0.177012
H11   H     H_    0.337334 0.888718 0.729131 0.099133
H12   H     H_    0.017112 0.245176 0.712124 0.116679
H13   H     H_    0.569883 0.682922 0.811984 0.266485
H14   H     H_    0.325483 0.903562 0.808439 0.151692
H15   H     H_    0.001843 0.204093 0.790864 0.187912
H16   H     H_    0.465174 0.788380 0.740229 0.141017
H17   H     H_    0.228471 0.704135 0.728731 0.062240
H18   H     H_    0.109273 0.430508 0.722800 0.148180
O14   O     O_R   0.176750 0.985260 0.074180 -0.521012
O15   O     O_R   0.014740 0.191490 0.074180 -0.519157
O16   O     O_R   0.808510 0.823250 0.074180 -0.522796
O17   O     O_R   0.146100 0.172630 0.068980 -0.505883
O18   O     O_R   0.827370 0.973470 0.068980 -0.502660
O19   O     O_R   0.026530 0.853900 0.068980 -0.506006
C43   C     C_R   0.105869 0.221066 0.087636 0.553649
C44   C     C_R   0.778065 0.884694 0.087578 0.555310
C45   C     C_R   0.113771 0.893119 0.087875 0.553351
Cr4   Cr    Cr6+3 0.155170 0.075460 0.019960 1.051607
Cr5   Cr    Cr6+3 0.924540 0.079710 0.019960 1.041638
Cr6   Cr    Cr6+3 0.920290 0.844830 0.019960 1.047678
C46   C     C_R   0.105912 0.218152 0.950467 0.569463
C47   C     C_R   0.780417 0.887555 0.951263 0.570033
C48   C     C_R   0.112703 0.892584 0.951266 0.568728
O20   O     O_3   0.000000 0.000000 0.020040 -0.233547
O21   O     O_R   0.148270 0.170520 0.969620 -0.488472
O22   O     O_R   0.829480 0.977750 0.969620 -0.500858
O23   O     O_R   0.022250 0.851730 0.969620 -0.501059
C49   C     C_R   0.652269 0.906561 0.364069 -0.005945
C50   C     C_R   0.101424 0.760407 0.364989 -0.006157
C51   C     C_R   0.237370 0.337612 0.364712 -0.006785
C52   C     C_R   0.674767 0.921386 0.313130 -0.015697
C53   C     C_R   0.083384 0.762873 0.314139 -0.017520
C54   C     C_R   0.232003 0.315029 0.313953 -0.013999
C55   C     C_R   0.714537 0.945279 0.211586 0.003920
C56   C     C_R   0.052546 0.777983 0.213433 -0.000175
C57   C     C_R   0.214175 0.267861 0.213388 0.009891
C58   C     C_R   0.737166 0.036395 0.240333 -0.134726
C59   C     C_R   0.963899 0.730915 0.245276 -0.133488
C60   C     C_R   0.256833 0.221051 0.244862 -0.133002
C61   C     C_R   0.716949 0.024712 0.290429 -0.138034
C62   C     C_R   0.978940 0.723881 0.295046 -0.133478
C63   C     C_R   0.265530 0.243999 0.294564 -0.139839
C64   C     C_R   0.739699 0.958218 0.161972 -0.139667
C65   C     C_R   0.037841 0.793579 0.164582 -0.140221
C66   C     C_R   0.199666 0.238976 0.164465 -0.136556
H19   H     H_    0.780146 0.039614 0.145997 0.122442
H20   H     H_    0.957355 0.769465 0.151543 0.129337
H21   H     H_    0.222772 0.180961 0.151029 0.130967
H22   H     H_    0.771457 0.117237 0.224103 0.107080
H23   H     H_    0.882795 0.702219 0.231857 0.115213
H24   H     H_    0.281431 0.164480 0.231149 0.114943
H25   H     H_    0.736627 0.097909 0.310916 0.106170
H26   H     H_    0.907887 0.690036 0.318111 0.107932
H27   H     H_    0.296645 0.203472 0.317330 0.110707
C67   C     C_R   0.722756 0.867914 0.134045 -0.004524
C68   C     C_R   0.127475 0.850845 0.133883 -0.007081
C69   C     C_R   0.145081 0.274926 0.134106 -0.004418
C70   C     C_R   0.603638 0.714859 0.355040 -0.148252
C71   C     C_R   0.295386 0.847935 0.348280 -0.155938
C72   C     C_R   0.156077 0.451750 0.348861 -0.150015
C73   C     C_R   0.620368 0.727260 0.305317 -0.014476
C74   C     C_R   0.278573 0.849768 0.298789 -0.012821
C75   C     C_R   0.151037 0.430776 0.299549 -0.010447
C76   C     C_R   0.654868 0.829740 0.283853 0.045160
C77   C     C_R   0.173069 0.808332 0.281328 0.040169
C78   C     C_R   0.188470 0.362348 0.281636 0.046005
C79   C     C_R   0.598497 0.635801 0.277073 -0.112725
C80   C     C_R   0.367051 0.892355 0.266781 -0.121763
C81   C     C_R   0.108228 0.477855 0.268289 -0.119677
C82   C     C_R   0.610397 0.643405 0.226166 -0.001282
C83   C     C_R   0.353459 0.900045 0.216721 -0.000778
C84   C     C_R   0.096908 0.454163 0.218424 -0.000132
C85   C     C_R   0.649219 0.747765 0.204211 0.010438
C86   C     C_R   0.248274 0.864659 0.198775 0.018315
C87   C     C_R   0.131088 0.382407 0.199772 0.022950
C88   C     C_R   0.671756 0.840661 0.233167 0.050879
C89   C     C_R   0.157904 0.815678 0.231095 0.043849
C90   C     C_R   0.179332 0.338890 0.231487 0.052914
C91   C     C_R   0.672068 0.763137 0.154215 -0.144410
C92   C     C_R   0.231061 0.881942 0.150050 -0.148209
C93   C     C_R   0.113873 0.348327 0.150961 -0.143975
C94   C     C_R   0.611004 0.800228 0.384187 0.021269
C95   C     C_R   0.208823 0.803481 0.381452 0.023048
C96   C     C_R   0.198359 0.406399 0.381509 0.025990
H28   H     H_    0.659373 0.695617 0.130950 0.118829
H29   H     H_    0.297602 0.924912 0.124735 0.123996
H30   H     H_    0.071937 0.373705 0.126021 0.120358
H31   H     H_    0.571063 0.558420 0.295537 0.100630
H32   H     H_    0.447726 0.921872 0.281037 0.108207
H33   H     H_    0.080713 0.531338 0.283108 0.109706
H34   H     H_    0.574910 0.633716 0.370166 0.140431
H35   H     H_    0.377329 0.877266 0.360841 0.129015
H36   H     H_    0.129971 0.507896 0.361738 0.132038
O24   O     O_R   0.179100 0.982980 0.967000 -0.487891
O25   O     O_R   0.017020 0.196120 0.967000 -0.505115
O26   O     O_R   0.803880 0.820900 0.967000 -0.491538
C97   C     C_2   0.480538 0.820124 0.834210 0.190591
H37   H     H_    0.435837 0.859777 0.845577 0.132870
O27   O     O_2   0.454662 0.730131 0.851128 -0.449450
C98   C     C_2   0.223776 0.689031 0.821369 0.157635
H38   H     H_    0.290333 0.692408 0.801634 0.190380
O28   O     O_2   0.215210 0.669995 0.865235 -0.491980
C99   C     C_2   0.074192 0.414213 0.814077 0.195659
H39   H     H_    0.081101 0.453365 0.849098 0.160447
O29   O     O_2   0.986509 0.368676 0.793827 -0.432440
C100  C     C_2   0.729419 0.718362 0.807113 0.219015
H40   H     H_    0.809605 0.770874 0.793422 0.103113
O30   O     O_2   0.709164 0.640872 0.833832 -0.455549
C101  C     C_2   0.283477 0.026206 0.810586 0.216160
H41   H     H_    0.229970 0.056043 0.801344 0.106634
O31   O     O_2   0.361532 0.081940 0.836411 -0.481091
C102  C     C_2   0.064303 0.097639 0.792133 0.132902
H42   H     H_    0.094115 0.058031 0.768087 0.095273
O32   O     O_2   0.024071 0.054681 0.831307 -0.559625
C103  C     C_2   0.671899 0.000489 0.395783 0.246282
H43   H     H_    0.653405 0.062131 0.382986 0.082603
O33   O     O_2   0.710622 0.010520 0.436480 -0.474774
C104  C     C_2   0.009992 0.714751 0.400600 0.242189
H44   H     H_    0.933379 0.643395 0.391485 0.087130
O34   O     O_2   0.019324 0.757348 0.440555 -0.479751
C105  C     C_2   0.281905 0.289589 0.399792 0.242765
H45   H     H_    0.350343 0.280167 0.389722 0.087189
O35   O     O_2   0.241666 0.259060 0.440329 -0.464217
C106  C     C_3   0.584900 0.543096 0.195098 -0.258003
C107  C     C_3   0.538383 0.433548 0.222544 -0.303051
C108  C     C_3   0.511023 0.339415 0.187295 -0.452005
H46   H     H_    0.448791 0.331294 0.160760 0.159534
H47   H     H_    0.584499 0.353428 0.167122 0.148256
H48   H     H_    0.478768 0.262020 0.208344 0.134521
H49   H     H_    0.598537 0.437059 0.249233 0.153858
H50   H     H_    0.463452 0.416746 0.242273 0.176984
H51   H     H_    0.525172 0.534124 0.166875 0.151012
H52   H     H_    0.660477 0.558170 0.176395 0.135895
C109  C     C_3   0.452979 0.948705 0.184215 -0.253963
C110  C     C_3   0.496805 0.071565 0.176183 -0.302337
C111  C     C_3   0.588881 0.119006 0.138905 -0.446628
H53   H     H_    0.657867 0.111423 0.152444 0.146486
H54   H     H_    0.561280 0.075707 0.103374 0.162980
H55   H     H_    0.616872 0.207145 0.133013 0.137874
H56   H     H_    0.431690 0.086327 0.162967 0.164377
H57   H     H_    0.526936 0.115284 0.211515 0.157962
H58   H     H_    0.516979 0.937394 0.201438 0.155563
H59   H     H_    0.434970 0.903974 0.148928 0.142948
C112  C     C_3   0.044995 0.504160 0.187248 -0.253629
C113  C     C_3   0.923514 0.424327 0.181462 -0.297966
C114  C     C_3   0.870519 0.473971 0.150168 -0.448787
H60   H     H_    0.878248 0.548472 0.167926 0.152108
H61   H     H_    0.908747 0.495711 0.113336 0.161903
H62   H     H_    0.783340 0.413590 0.145858 0.134283
H63   H     H_    0.909650 0.346945 0.164189 0.162514
H64   H     H_    0.884111 0.403975 0.218116 0.162378
H65   H     H_    0.055975 0.580197 0.204783 0.155460
H66   H     H_    0.086018 0.530302 0.151143 0.141863
C115  C     C_2   0.534584 0.952045 0.720070 0.148190
H67   H     H_    0.511667 0.944819 0.681870 0.116062
O36   O     O_2   0.548475 0.032765 0.742772 -0.488800
C116  C     C_2   0.065434 0.603357 0.713150 0.209280
H68   H     H_    0.072442 0.590231 0.674509 0.092980
O37   O     O_2   0.987648 0.533401 0.735676 -0.407378
C117  C     C_2   0.273061 0.543171 0.721556 0.146116
H69   H     H_    0.272258 0.576024 0.685753 0.083953
O38   O     O_2   0.347914 0.597202 0.748782 -0.548470
C118  C     C_3   0.782900 0.042155 0.693639 -0.241158
C119  C     C_3   0.801474 0.037389 0.638303 -0.328382
C120  C     C_3   0.866401 0.151836 0.615922 -0.415753
H70   H     H_    0.826237 0.200523 0.623642 0.173400
H71   H     H_    0.949567 0.195624 0.630575 0.173070
H72   H     H_    0.871788 0.144923 0.575664 0.186019
H73   H     H_    0.844002 0.990890 0.630960 0.182957
H74   H     H_    0.723196 0.997863 0.619098 0.182669
H75   H     H_    0.726989 0.073941 0.698683 0.241796
H76   H     H_    0.859958 0.104826 0.708933 0.164741
C121  C     C_3   0.972095 0.778485 0.693693 -0.228048
C122  C     C_3   0.983390 0.839870 0.645082 -0.294989
C123  C     C_3   0.936390 0.761614 0.601757 -0.395923
H77   H     H_    0.980743 0.716386 0.596087 0.157312
H78   H     H_    0.849762 0.701563 0.608051 0.211484
H79   H     H_    0.943944 0.808953 0.568059 0.185912
H80   H     H_    0.940192 0.886859 0.648427 0.176796
H81   H     H_    0.068743 0.900644 0.636535 0.230929
H82   H     H_    0.950643 0.692533 0.686548 0.221017
H83   H     H_    0.903550 0.776521 0.713720 0.191270
C124  C     C_3   0.400618 0.402296 0.705689 -0.253231
C125  C     C_3   0.422132 0.357653 0.658004 -0.318795
C126  C     C_3   0.529794 0.440304 0.634783 -0.422018
H84   H     H_    0.531170 0.518393 0.626951 0.195264
H85   H     H_    0.597490 0.456240 0.659528 0.173818
H86   H     H_    0.541127 0.406915 0.599856 0.167075
H87   H     H_    0.423962 0.281193 0.666025 0.200834
H88   H     H_    0.357386 0.337458 0.630993 0.215667
H89   H     H_    0.410713 0.484057 0.698565 0.196674
H90   H     H_    0.465377 0.413307 0.731234 0.178127
C127  C     C_2   0.805280 0.063826 0.801746 0.198130
H91   H     H_    0.852533 0.087867 0.835068 0.156016
O39   O     O_2   0.775371 0.124805 0.785303 -0.444128
C128  C     C_2   0.948423 0.721426 0.801052 0.204859
H92   H     H_    0.923077 0.719828 0.838680 0.153587
O40   O     O_2   0.894122 0.642037 0.775265 -0.440651
C129  C     C_2   0.378984 0.395131 0.814089 0.228272
H93   H     H_    0.415055 0.365957 0.840702 0.148790
O41   O     O_2   0.418046 0.493379 0.808249 -0.466701
C130  C     C_2   0.674151 0.677654 0.709261 0.164873
H94   H     H_    0.665223 0.600958 0.722551 0.162544
O42   O     O_2   0.726524 0.717631 0.672031 -0.561557
C131  C     C_2   0.319455 0.022386 0.709869 0.202944
H95   H     H_    0.396558 0.089672 0.721688 0.173289
O43   O     O_2   0.272468 0.038338 0.676486 -0.507791
C132  C     C_2   0.062193 0.130121 0.689923 0.164791
H96   H     H_    0.990437 0.051956 0.696850 0.083280
O44   O     O_2   0.123275 0.135711 0.657206 -0.480322

loop_
_geom_bond_atom_site_label_1
_geom_bond_atom_site_label_2
_geom_bond_distance
_ccdc_geom_bond_type
O15   Cr5   2.080204 S    
C76   C88   1.400741 A    
C87   C90   1.424557 A    
Cr5   O25   2.086443 S    
C14   C26   1.567274 S    
C49   C52   1.419638 A    
O8    C6    1.288687 A    
C97   H37   1.081196 S    
C79   C82   1.398964 A    
O1    C2    1.328319 A    
C70   C94   1.401563 A    
C30   C102  1.512823 S    
C61   H25   1.080236 S    
O12   C6    1.301319 A    
C108  H47   1.109914 S    
O11   C5    1.307788 A    
C84   C87   1.416953 A    
C109  H59   1.110656 S    
C99   H39   1.084580 S    
C75   C78   1.401528 A    
C31   C130  1.526525 S    
C29   C32   1.567694 S    
O18   C44   1.198592 A    
O6    C3    1.308792 A    
C117  O38   1.212968 D    
C113  H64   1.112198 S    
C125  H88   1.106826 S    
C124  C125  1.541649 S    
O5    Cr2   1.966836 S    
C51   C96   1.412197 A    
C70   H34   1.084622 S    
C53   C77   1.423554 A    
C44   C67   1.448442 S    
C52   C61   1.410151 A    
C68   C92   1.391059 A    
C12   C21   1.586229 S    
C18   C46   1.435622 S    
C55   C88   1.411277 A    
C81   H33   1.085698 S    
C55   C58   1.398506 A    
C8    C20   1.582799 S    
C60   C63   1.388256 A    
C43   C69   1.443907 S    
C65   C68   1.397857 A    
O3    C1    1.316350 A    
C27   C36   1.487681 S    
C103  O33   1.221267 D    
O16   C44   1.201992 A    
C22   C97   1.511204 S    
C83   C86   1.416095 A    
C114  H61   1.110890 S    
C28   C31   1.558120 S    
C108  H48   1.108479 S    
C66   C69   1.397499 A    
C107  H50   1.110763 S    
O7    C5    1.295449 A    
C107  H49   1.111912 S    
Cr5   O22   1.967175 S    
C20   C32   1.565786 S    
C15   H9    1.108841 S    
C45   C68   1.447215 S    
C118  H75   1.100857 S    
C121  C122  1.549159 S    
C31   H10   1.103035 S    
C105  O35   1.221209 D    
C100  H40   1.072266 S    
C117  H69   1.085475 S    
O17   Cr4   1.964023 S    
C123  H77   1.109882 S    
C71   C95   1.400142 A    
C73   C79   1.397203 A    
O4    Cr1   1.960593 S    
O15   C43   1.210785 A    
C72   C96   1.399830 A    
C23   C26   1.564421 S    
O9    C4    1.291190 A    
C4    C95   1.459083 S    
C128  H92   1.085380 S    
C123  H78   1.108934 S    
C131  O43   1.220708 D    
C13   H7    1.107778 S    
C28   C100  1.497707 S    
C13   C127  1.527013 S    
C106  H52   1.112395 S    
C111  H55   1.109486 S    
C48   O24   1.226306 A    
Cr4   O24   2.084505 S    
C66   H21   1.085498 S    
C56   C59   1.397439 A    
C120  H70   1.110934 S    
C15   C27   1.572084 S    
C127  O39   1.220592 D    
C37   C40   1.206258 T    
C27   C30   1.568998 S    
C112  H66   1.110331 S    
C73   C76   1.399587 A    
C124  H89   1.103960 S    
C9    C24   1.568022 S    
C11   C20   1.571870 S    
C98   O28   1.221220 D    
C108  H46   1.110759 S    
Cr6   O23   1.965392 S    
O14   C45   1.210831 A    
C53   C62   1.410196 A    
C97   O27   1.220049 D    
Cr3   O13   2.062491 S    
C21   C33   1.559723 S    
C11   C14   1.580005 S    
C119  H74   1.104392 S    
C86   C89   1.422610 A    
C58   H22   1.084069 S    
C55   C64   1.390138 A    
C10   C19   1.576525 S    
C92   H29   1.081100 S    
C109  H58   1.109802 S    
O4    C1    1.321775 A    
C11   C121  1.555475 S    
C60   H24   1.084325 S    
O16   Cr6   2.081143 S    
C58   C61   1.391164 A    
C102  O32   1.221197 D    
C125  H87   1.111934 S    
C47   O22   1.212795 A    
C22   C25   1.558184 S    
C100  O30   1.221567 D    
C13   C25   1.571725 S    
O10   C4    1.300208 A    
C50   C104  1.489013 S    
C78   C90   1.401433 A    
C81   C84   1.394156 A    
C33   C132  1.529509 S    
O8    Cr2   2.083702 S    
O1    Cr1   2.077526 S    
C25   C28   1.563635 S    
C7    C22   1.583773 S    
C109  C110  1.533724 S    
O10   Cr1   1.958679 S    
O2    Cr2   2.096388 S    
C8    C23   1.585207 S    
C39   C42   1.205053 T    
C57   C90   1.409187 A    
Cr1   O13   2.091311 S    
C121  H82   1.107860 S    
C16   C34   1.204400 T    
C85   C88   1.422156 A    
C17   C35   1.207085 T    
C24   C99   1.521834 S    
C114  H60   1.110287 S    
C33   H12   1.108742 S    
C106  H51   1.112413 S    
C112  H65   1.110573 S    
C70   C73   1.375175 A    
C101  O31   1.221142 D    
C54   C63   1.408822 A    
C54   C78   1.424863 A    
O6    Cr3   1.979225 S    
C64   C67   1.397152 A    
O9    Cr3   2.093197 S    
C20   C38   1.484761 S    
C122  H81   1.108915 S    
C79   H31   1.081074 S    
C47   O26   1.222221 A    
C118  H76   1.095406 S    
C80   C83   1.395086 A    
C103  H43   1.084181 S    
C75   C81   1.397675 A    
Cr4   O21   1.957292 S    
C86   C92   1.399079 A    
C124  H90   1.109051 S    
O5    C2    1.323013 A    
C99   O29   1.221007 D    
C19   C31   1.569942 S    
C6    C94   1.470674 S    
C23   C98   1.500600 S    
C7    C115  1.514879 S    
C113  C114  1.525759 S    
O7    Cr1   2.076346 S    
C129  H93   1.085583 S    
C123  H79   1.110381 S    
C15   C129  1.514370 S    
C116  H68   1.085068 S    
C50   C95   1.414551 A    
Cr6   O20   1.894601 S    
C112  C113  1.534747 S    
C115  O36   1.221416 D    
C120  H71   1.106782 S    
C82   C85   1.418692 A    
C57   C60   1.397221 A    
O18   Cr5   1.968240 S    
C69   C93   1.391332 A    
C10   C13   1.590955 S    
C80   H32   1.085502 S    
C52   C76   1.421916 A    
C74   C80   1.398554 A    
C98   H38   1.070763 S    
C67   C91   1.391776 A    
O14   Cr4   2.074344 S    
C107  C108  1.524367 S    
C119  H73   1.110361 S    
C11   H5    1.109518 S    
H1    C22   1.104685 S    
C130  O42   1.218893 D    
O3    Cr3   2.086185 S    
C5    C96   1.453717 S    
C77   C89   1.403246 A    
C25   C34   1.486402 S    
C7    H16   1.104020 S    
C104  O34   1.221265 D    
C8    C116  1.519666 S    
C28   H13   1.103088 S    
C72   C75   1.374474 A    
C50   C53   1.418707 A    
C102  H42   1.076084 S    
C18   C36   1.207097 T    
C126  H85   1.110065 S    
C56   C89   1.410144 A    
O11   Cr2   1.973977 S    
C105  H45   1.083965 S    
C110  H57   1.111872 S    
H3    C24   1.107343 S    
C84   C112  1.516259 S    
C122  C123  1.528412 S    
C74   C77   1.402813 A    
C12   C15   1.587412 S    
C82   C106  1.528902 S    
C121  H83   1.107389 S    
C24   C27   1.557744 S    
Cr2   O13   2.073209 S    
C83   C109  1.515320 S    
C126  H86   1.110303 S    
C113  H63   1.111104 S    
C29   C101  1.512696 S    
C8    H17   1.108370 S    
C32   C131  1.528214 S    
C10   C118  1.568212 S    
O19   C45   1.201434 A    
C12   C124  1.563500 S    
C110  H56   1.111013 S    
C9    C117  1.506678 S    
C122  H80   1.110392 S    
C51   C54   1.417327 A    
C9    H18   1.111864 S    
C19   C37   1.480813 S    
C106  C107  1.535813 S    
C26   C29   1.572498 S    
C93   H30   1.081154 S    
C71   C74   1.377825 A    
Cr6   O26   2.106439 S    
C63   H27   1.080036 S    
C1    C41   1.432708 S    
C111  H54   1.110809 S    
C132  H96   1.082074 S    
C129  O41   1.216738 D    
C62   H26   1.079859 S    
C126  H84   1.110894 S    
O12   Cr3   1.967807 S    
C12   H6    1.111721 S    
O19   Cr6   1.984947 S    
C49   C94   1.417669 A    
C9    C21   1.571311 S    
C72   H36   1.086340 S    
C116  O37   1.219175 D    
C51   C105  1.489011 S    
C14   H8    1.106423 S    
C16   C47   1.431321 S    
C64   H19   1.084468 S    
C14   C128  1.521918 S    
C114  H62   1.110046 S    
C46   O21   1.223924 A    
C115  H67   1.085389 S    
C91   H28   1.081545 S    
C120  H72   1.110513 S    
C3    C40   1.430070 S    
C38   C41   1.205948 T    
O17   C43   1.201109 A    
C85   C91   1.395443 A    
C48   O23   1.226393 A    
C57   C66   1.383921 A    
C30   H15   1.098235 S    
C10   H4    1.111560 S    
C87   C93   1.398624 A    
C29   H14   1.107724 S    
C111  H53   1.107812 S    
C2    C42   1.430996 S    
C128  O40   1.219725 D    
C101  H41   1.070631 S    
C30   C33   1.578079 S    
C21   C39   1.483655 S    
C118  C119  1.541847 S    
C127  H91   1.085163 S    
H2    C23   1.107652 S    
C130  H94   1.085086 S    
C56   C65   1.387520 A    
Cr4   O20   1.921038 S    
C26   C35   1.488361 S    
C49   C103  1.486838 S    
C110  C111  1.524977 S    
C32   H11   1.103326 S    
C104  H44   1.083775 S    
Cr5   O20   1.904426 S    
O2    C3    1.315511 A    
C132  O44   1.221073 D    
C71   H35   1.085979 S    
C46   O25   1.230270 A    
C65   H20   1.085273 S    
C59   H23   1.084582 S    
C17   C48   1.436604 S    
C119  C120  1.528693 S    
C125  C126  1.525816 S    
C7    C19   1.585504 S    
C59   C62   1.389841 A    
C131  H95   1.084877 S    
