data_mof_unit_65763.cif
_audit_creation_date              2012-12-10T19:34:08-0500
_audit_creation_method            fapswitch 2.2
_symmetry_space_group_name_H-M    P1
_symmetry_Int_Tables_number       1
_space_group_crystal_system       triclinic
_cell_length_a                    18.57205
_cell_length_b                    18.58869
_cell_length_c                    18.89571
_cell_angle_alpha                 109.506586
_cell_angle_beta                  110.027709
_cell_angle_gamma                 108.78883
_cell_volume                      5026.84954951

loop_
_atom_site_label
_atom_site_type_symbol
_atom_type_description
_atom_site_fract_x
_atom_site_fract_y
_atom_site_fract_z
_atom_type_partial_charge
C1    C     C_R   0.620628 0.620409 0.500823 0.900899
C2    C     C_3   0.173056 0.455781 0.243468 -0.136636
C3    C     C_3   0.253103 0.539040 0.327844 -0.233051
C4    C     C_3   0.311631 0.500352 0.313185 -0.049484
C5    C     C_R   0.670103 0.689330 0.424668 0.158595
C6    C     C_R   0.685264 0.688026 0.501468 -0.094031
C7    C     C_R   0.758959 0.758561 0.580862 -0.223548
C8    C     C_R   0.823350 0.822880 0.580898 -0.218850
C9    C     C_R   0.812013 0.817458 0.501670 -0.095544
C10   C     C_R   0.732506 0.754136 0.424919 0.139796
C11   C     C_3   0.716522 0.691976 0.339553 -0.524661
C12   C     C_R   0.378977 0.500033 0.379568 0.917689
C13   C     C_3   0.647891 0.620321 0.339573 -0.460698
C14   C     C_R   0.684563 0.424295 0.682071 0.128867
C15   C     C_R   0.688512 0.501356 0.686659 -0.094113
C16   C     C_R   0.759685 0.581600 0.759711 -0.218292
C17   C     C_R   0.824837 0.581621 0.825002 -0.218031
C18   C     C_R   0.816965 0.501387 0.818277 -0.095199
C19   C     C_R   0.745163 0.424302 0.746110 0.127657
C20   C     C_3   0.701988 0.326885 0.702279 -0.487370
C21   C     C_3   0.631680 0.326867 0.629185 -0.487426
C22   C     C_R   0.243551 0.242745 0.425419 0.132774
C23   C     C_R   0.380254 0.379899 0.500030 0.877293
C24   C     C_R   0.316647 0.314352 0.501764 -0.095821
C25   C     C_R   0.325782 0.321795 0.581368 -0.221156
C26   C     C_R   0.261322 0.256792 0.581443 -0.218161
C27   C     C_R   0.186773 0.186232 0.501969 -0.099994
C28   C     C_R   0.180367 0.182255 0.425547 0.135270
C29   C     C_3   0.124622 0.130742 0.329013 -0.491155
C30   C     C_3   0.196864 0.200901 0.328932 -0.499019
C31   C     C_R   0.002698 0.620443 0.122486 0.878109
C32   C     C_R   0.124802 0.500388 0.124765 0.892031
C33   C     C_R   0.004186 0.379893 0.884341 0.882143
C34   C     C_R   0.621028 0.499903 0.620648 0.876465
C35   C     C_R   0.882828 0.499969 0.883042 0.880897
C36   C     C_R   0.998438 0.119753 0.618763 0.882705
C37   C     C_R   0.879487 0.879876 0.499737 0.877812
C38   C     C_R   0.001427 0.879939 0.381198 0.875029
C39   C     C_R   0.120238 0.120032 0.500349 0.883017
C40   C     C_R   0.020727 0.688663 0.266686 0.105580
C41   C     C_R   0.005237 0.688090 0.189035 -0.082933
C42   C     C_R   0.002599 0.759337 0.180239 -0.216624
C43   C     C_R   0.002122 0.823697 0.244100 -0.220741
C44   C     C_R   0.007088 0.817577 0.317419 -0.092801
C45   C     C_3   0.328667 0.544552 0.261419 0.615907
C46   C     C_R   0.022656 0.753454 0.330792 0.147448
C47   C     C_3   0.975885 0.690988 0.353643 -0.501191
C48   C     C_3   0.973567 0.619375 0.282590 -0.475785
C49   C     C_R   0.999804 0.240645 0.817857 0.130664
C50   C     C_R   0.000224 0.314169 0.815390 -0.098754
C51   C     C_R   0.996370 0.322331 0.742880 -0.220927
C52   C     C_R   0.993265 0.256739 0.675866 -0.220091
C53   C     C_R   0.996684 0.184804 0.683127 -0.099043
C54   C     C_R   0.999825 0.179483 0.755279 0.136652
C55   C     C_3   0.006748 0.127613 0.800194 -0.491228
C56   C     C_3   0.270830 0.584621 0.275732 -0.252024
C57   C     C_3   0.007430 0.198410 0.872519 -0.495997
C58   C     C_3   0.192017 0.500942 0.192160 -0.044963
C59   C     C_3   0.250311 0.461794 0.177008 -0.250584
C60   C     C_3   0.232690 0.417157 0.229949 -0.233027
H1    H     H_    0.284688 0.652589 0.292213 0.143534
H2    H     H_    0.774382 0.683408 0.344984 0.195303
H3    H     H_    0.579591 0.593534 0.287593 0.230383
H4    H     H_    0.666081 0.570259 0.345323 0.210716
H5    H     H_    0.765293 0.643453 0.765659 0.154648
H6    H     H_    0.880095 0.643483 0.880619 0.154527
H7    H     H_    0.742640 0.301764 0.682258 0.202352
H8    H     H_    0.631197 0.301034 0.566717 0.212090
H9    H     H_    0.566062 0.301331 0.624075 0.201942
H10   H     H_    0.382431 0.376761 0.642606 0.159195
H11   H     H_    0.268769 0.262352 0.642773 0.160660
H12   H     H_    0.119429 0.065065 0.301490 0.196752
H13   H     H_    0.061161 0.131140 0.305687 0.210228
H14   H     H_    0.233054 0.175683 0.300798 0.211614
H15   H     H_    0.175285 0.242215 0.306171 0.194864
H16   H     H_    0.996227 0.762575 0.122342 0.150968
H17   H     H_    0.995554 0.876403 0.235307 0.155609
H18   H     H_    0.018528 0.705062 0.420013 0.209055
H19   H     H_    0.909626 0.682948 0.339324 0.191872
H20   H     H_    0.014814 0.592060 0.307938 0.199007
H21   H     H_    0.247483 0.430814 0.113976 0.130904
H22   H     H_    0.905889 0.569773 0.226900 0.216994
H23   H     H_    0.995401 0.378506 0.738038 0.159485
H24   H     H_    0.990721 0.263307 0.620331 0.160267
H25   H     H_    0.946659 0.062337 0.763930 0.197048
H26   H     H_    0.070198 0.127110 0.820888 0.211308
H27   H     H_    0.947939 0.174081 0.878482 0.212458
H28   H     H_    0.071442 0.238972 0.934681 0.197261
H29   H     H_    0.218749 0.349208 0.213727 0.152049
H30   H     H_    0.107169 0.419186 0.234447 0.151189
H31   H     H_    0.255440 0.569719 0.390654 0.163839
H32   H     H_    0.768738 0.761241 0.641810 0.151718
H33   H     H_    0.687758 0.706766 0.287739 0.210613
O1    O     O_R   0.592030 0.539910 0.448670 -0.622388
O2    O     O_R   0.054880 0.643340 0.094730 -0.625634
O3    O     O_R   0.044460 0.448310 0.096120 -0.628189
O4    O     O_R   0.147900 0.551710 0.096100 -0.632573
O5    O     O_R   0.952840 0.356700 0.912890 -0.622204
O6    O     O_R   0.056280 0.460110 0.912860 -0.624461
O7    O     O_R   0.859820 0.448330 0.911520 -0.621104
O8    O     O_R   0.963270 0.551730 0.911500 -0.626873
O9    O     O_R   0.947110 0.091620 0.538800 -0.623106
O10   O     O_R   0.051340 0.091660 0.643070 -0.625944
O11   O     O_R   0.856270 0.908420 0.447910 -0.617963
O12   O     O_R   0.591210 0.643320 0.551340 -0.621912
O13   O     O_R   0.960500 0.908460 0.552180 -0.626032
O14   O     O_R   0.948660 0.908440 0.357030 -0.625332
O15   O     O_R   0.052890 0.908480 0.461300 -0.618629
O16   O     O_R   0.039500 0.091640 0.447920 -0.625561
O17   O     O_R   0.143730 0.091680 0.552190 -0.622998
O18   O     O_R   0.408090 0.448300 0.356360 -0.619918
O19   O     O_R   0.407280 0.551720 0.459030 -0.628344
O20   O     O_R   0.408790 0.356680 0.448660 -0.626547
O21   O     O_R   0.407970 0.460090 0.551330 -0.625077
O22   O     O_R   0.592720 0.448280 0.540970 -0.623329
O23   O     O_R   0.591910 0.551700 0.643640 -0.628567
O24   O     O_R   0.951440 0.539930 0.094760 -0.624480
Zn1   Zn    Zn3+2 0.500550 0.430950 0.431450 0.950963
Zn2   Zn    Zn3+2 0.499450 0.569050 0.568550 0.952633
Zn3   Zn    Zn3+2 0.934790 0.430980 0.003830 0.940340
Zn4   Zn    Zn3+2 0.072930 0.569070 0.003790 0.939839
Zn5   Zn    Zn3+2 0.930400 0.000020 0.430430 0.945834
Zn6   Zn    Zn3+2 0.069600 0.000080 0.569670 0.945855
H34   H     H_    0.676801 0.300670 0.738906 0.212455
O25   O     O_3   0.414517 0.590203 0.276958 -0.627470
C61   C     C_3   0.411449 0.623933 0.220090 -0.341016
H35   H     H_    0.385940 0.670781 0.230593 0.170174
H36   H     H_    0.371454 0.570374 0.151074 0.165152
H37   H     H_    0.479429 0.660491 0.233669 0.191089
H38   H     H_    0.882448 0.875012 0.641865 0.156515

loop_
_geom_bond_atom_site_label_1
_geom_bond_atom_site_label_2
_ccdc_geom_bond_type
C8    C9    A    
C61   H35   S    
C37   O11   A    
O1    Zn1   S    
C41   C42   A    
C20   H7    S    
C19   C20   S    
C32   C58   S    
C11   H2    S    
O10   Zn6   S    
C7    C8    A    
C60   H29   S    
C40   C46   A    
C17   H6    S    
C36   O10   A    
C14   C21   S    
C3    H31   S    
C28   C29   S    
C18   C19   A    
C5    C6    A    
C30   H14   S    
C2    C60   S    
O16   Zn5   S    
C29   H13   S    
C34   O23   A    
C49   C54   A    
C49   C57   S    
C32   O4    A    
C36   O9    A    
C33   O5    A    
C38   O14   A    
C52   H24   S    
C31   O24   A    
O4    Zn4   S    
C36   C53   S    
C33   C50   S    
C54   C55   S    
C39   O17   A    
C45   C56   S    
C45   O25   S    
C1    O1    A    
O13   Zn6   S    
C23   C24   S    
O7    Zn3   S    
C47   H19   S    
C4    C12   S    
C31   C41   S    
C18   C35   S    
C15   C34   S    
C5    C13   S    
O21   Zn2   S    
O6    Zn4   S    
C29   H12   S    
O2    Zn4   S    
C59   C60   S    
C22   C28   A    
C26   H11   S    
C44   C46   A    
C17   C18   A    
C4    C45   S    
C15   C16   A    
C1    C6    S    
C24   C25   A    
O24   Zn3   S    
C27   C39   S    
C16   C17   A    
C61   H37   S    
C25   C26   A    
C53   C54   A    
O8    Zn4   S    
C51   C52   A    
C21   H9    S    
C33   O6    A    
C55   H25   S    
C43   C44   A    
C38   C44   S    
C29   C30   S    
O17   Zn6   S    
C23   O20   A    
C3    C56   S    
C47   C48   S    
C13   H3    S    
C39   O16   A    
O22   Zn1   S    
C4    C60   S    
C9    C37   S    
C50   C51   A    
C26   C27   A    
C40   C41   A    
C32   O3    A    
O18   Zn1   S    
C21   H8    S    
C8    H38   S    
O25   C61   S    
C22   C24   A    
C58   C59   S    
C42   C43   A    
O15   Zn6   S    
C3    C4    S    
C51   H23   S    
C12   O19   A    
C52   C53   A    
C57   H28   S    
C48   H22   S    
C9    C10   A    
C40   C48   S    
C46   C47   S    
C45   C59   S    
C61   H36   S    
C22   C30   S    
C14   C15   A    
C14   C19   A    
O3    Zn3   S    
C59   H21   S    
C35   O8    A    
O19   Zn2   S    
C2    C58   S    
O5    Zn3   S    
C6    C7    A    
C16   H5    S    
C43   H17   S    
C42   H16   S    
C47   H18   S    
O23   Zn2   S    
C48   H20   S    
C55   H26   S    
C55   C57   S    
C2    C3    S    
C34   O22   A    
C37   O13   A    
C23   O21   A    
C30   H15   S    
C11   C13   S    
C11   H33   S    
C13   H4    S    
C31   O2    A    
C7    H32   S    
C56   C58   S    
C38   O15   A    
C20   H34   S    
C10   C11   S    
O20   Zn1   S    
C57   H27   S    
C5    C10   A    
O11   Zn5   S    
C20   C21   S    
C2    H30   S    
C49   C50   A    
C27   C28   A    
C56   H1    S    
O12   Zn2   S    
C25   H10   S    
O14   Zn5   S    
O9    Zn5   S    
C12   O18   A    
C35   O7    A    
C1    O12   A    
