data_mof_unit_37501.cif
_audit_creation_date              2012-12-10T18:10:53-0500
_audit_creation_method            fapswitch 2.2
_symmetry_space_group_name_H-M    P1
_symmetry_Int_Tables_number       1
_space_group_crystal_system       triclinic
_cell_length_a                    21.668213
_cell_length_b                    21.632185
_cell_length_c                    35.539167
_cell_angle_alpha                 90.000544
_cell_angle_beta                  89.999255
_cell_angle_gamma                 89.999071
_cell_volume                      16658.3018989

loop_
_atom_site_label
_atom_site_type_symbol
_atom_type_description
_atom_site_fract_x
_atom_site_fract_y
_atom_site_fract_z
_atom_type_partial_charge
C1    C     C_R   0.500001 0.879445 0.000000 0.990089
C2    C     C_1   0.999998 0.499998 0.733244 0.098621
C3    C     C_R   0.944218 0.504945 0.634426 -0.312197
C4    C     C_R   0.512877 0.054563 0.365680 -0.320345
C5    C     C_R   0.055811 0.504601 0.365574 -0.312265
C6    C     C_R   0.487138 0.945409 0.365685 -0.320343
C7    C     C_R   0.944192 0.495404 0.365574 -0.312262
C8    C     C_R   0.015561 0.446126 0.134335 -0.312337
C9    C     C_R   0.555947 0.002195 0.134427 -0.318482
C10   C     C_R   0.984441 0.553877 0.134335 -0.312346
C11   C     C_R   0.444068 0.997782 0.134434 -0.318491
C12   C     C_R   0.015889 0.553778 0.865668 -0.312341
C13   C     C_1   0.500029 0.999970 0.266861 0.099160
C14   C     C_R   0.555945 0.997930 0.865570 -0.318585
C15   C     C_R   0.984110 0.446220 0.865668 -0.312344
C16   C     C_R   0.444058 0.002053 0.865572 -0.318547
C17   C     C_R   0.500011 0.000008 0.614585 -0.145862
C18   C     C_R   0.999999 0.500000 0.614648 -0.140396
C19   C     C_R   0.500002 0.999991 0.385414 -0.145648
C20   C     C_R   0.000001 0.500001 0.385352 -0.140390
C21   C     C_R   0.000000 0.500001 0.114593 -0.144757
C22   C     C_R   0.500004 0.999993 0.114659 -0.145054
C23   C     C_R   1.000000 0.499999 0.885409 -0.144616
C24   C     C_1   0.000003 0.500004 0.266758 0.098582
C25   C     C_R   0.500001 0.999991 0.885342 -0.144998
C26   C     C_R   0.500006 0.000017 0.693061 -0.077531
C27   C     C_R   0.999998 0.499999 0.693165 -0.077459
C28   C     C_R   0.500026 0.999973 0.306940 -0.077132
C29   C     C_R   0.000002 0.500004 0.306836 -0.077499
C30   C     C_R   0.000002 0.500003 0.193082 -0.079857
C31   C     C_R   0.500018 0.999976 0.193177 -0.075050
C32   C     C_R   0.999999 0.499999 0.806921 -0.079922
C33   C     C_R   0.499999 0.999999 0.806825 -0.074916
C34   C     C_3   0.633364 0.697082 0.045464 0.171483
C35   C     C_1   0.000003 0.500004 0.233159 0.098150
C36   C     C_3   0.669228 0.641992 0.060588 -0.876367
C37   C     C_3   0.312812 0.579639 0.078434 0.166052
C38   C     C_3   0.354578 0.625512 0.098501 -0.837339
C39   C     C_3   0.366583 0.302896 0.045430 0.171493
C40   C     C_3   0.330722 0.357986 0.060557 -0.876402
C41   C     C_3   0.687184 0.420344 0.078425 0.166051
C42   C     C_3   0.645418 0.374468 0.098490 -0.837328
C43   C     C_3   0.633405 0.302893 0.954561 0.171487
C44   C     C_3   0.669260 0.357983 0.939431 -0.876390
C45   C     C_3   0.312821 0.420370 0.921564 0.166021
C46   C     C_1   0.500025 0.999972 0.233260 0.101219
C47   C     C_3   0.354595 0.374505 0.901496 -0.837303
C48   C     C_3   0.366585 0.697111 0.954567 0.171484
C49   C     C_3   0.330728 0.642022 0.939438 -0.876394
C50   C     C_3   0.687191 0.579649 0.921576 0.166034
C51   C     C_3   0.645418 0.625512 0.901506 -0.837300
C52   C     C_3   0.047357 0.187827 0.587823 0.165433
C53   C     C_3   0.081763 0.142617 0.612991 -0.835329
C54   C     C_3   0.810738 0.132787 0.542668 0.158544
C55   C     C_3   0.844308 0.194124 0.546613 -0.847843
C56   C     C_3   0.952680 0.812167 0.587833 0.165459
C57   C     C_1   0.999999 0.499999 0.766843 0.098132
C58   C     C_3   0.918295 0.857386 0.613007 -0.835304
C59   C     C_3   0.189265 0.867210 0.542660 0.158531
C60   C     C_3   0.155717 0.805860 0.546601 -0.847839
C61   C     C_3   0.047322 0.812156 0.412165 0.165502
C62   C     C_3   0.081687 0.857392 0.386994 -0.835328
C63   C     C_3   0.810729 0.867199 0.457327 0.158558
C64   C     C_3   0.844353 0.805891 0.453378 -0.847920
C65   C     C_3   0.952633 0.187841 0.412173 0.165510
C66   C     C_3   0.918274 0.142581 0.387015 -0.835332
C67   C     C_3   0.189276 0.132792 0.457304 0.158563
C68   C     C_1   0.499998 0.000011 0.766741 0.101278
C69   C     C_3   0.155596 0.194066 0.453341 -0.847950
C70   C     C_3   0.588895 0.872942 0.686694 0.075608
C71   C     C_3   0.605851 0.821806 0.714476 -0.313050
C72   C     C_3   0.671064 0.797748 0.707463 -0.979659
C73   C     C_3   0.147966 0.543828 0.687528 0.080796
C74   C     C_3   0.200706 0.544076 0.716043 -0.313271
C75   C     C_3   0.244015 0.598694 0.709600 -0.983758
C76   C     C_3   0.411097 0.127066 0.686687 0.075636
C77   C     C_3   0.394133 0.178229 0.714450 -0.313039
C78   C     C_3   0.328918 0.202276 0.707427 -0.979609
C79   C     C_R   0.556027 0.716024 0.003347 0.288070
C80   C     C_3   0.852031 0.456169 0.687528 0.080797
C81   C     C_3   0.799291 0.455919 0.716045 -0.313273
C82   C     C_3   0.755982 0.401301 0.709601 -0.983758
C83   C     C_3   0.588409 0.127548 0.313455 0.075666
C84   C     C_3   0.605339 0.178540 0.285572 -0.313299
C85   C     C_3   0.670391 0.202941 0.292693 -0.979296
C86   C     C_3   0.147655 0.455191 0.312462 0.080782
C87   C     C_3   0.200406 0.454600 0.283955 -0.313277
C88   C     C_3   0.243338 0.399682 0.290394 -0.983765
C89   C     C_3   0.411674 0.872354 0.313456 0.075677
C90   C     C_R   0.282939 0.545337 0.020602 0.310358
C91   C     C_3   0.394774 0.821368 0.285558 -0.313282
C92   C     C_3   0.329732 0.796923 0.292669 -0.979226
C93   C     C_3   0.852349 0.544816 0.312464 0.080779
C94   C     C_3   0.799601 0.545411 0.283956 -0.313279
C95   C     C_3   0.756669 0.600328 0.290397 -0.983760
C96   C     C_3   0.095815 0.379162 0.187333 0.078777
C97   C     C_3   0.116068 0.330117 0.215676 -0.310209
C98   C     C_3   0.182862 0.310561 0.209030 -0.985963
C99   C     C_3   0.642906 0.061002 0.186353 0.075246
C100  C     C_3   0.695580 0.068080 0.214577 -0.316433
C101  C     C_R   0.443970 0.283975 0.003339 0.288062
C102  C     C_3   0.732275 0.127126 0.207343 -0.975176
C103  C     C_3   0.904190 0.620846 0.187332 0.078771
C104  C     C_3   0.883937 0.669890 0.215678 -0.310209
C105  C     C_3   0.817144 0.689448 0.209032 -0.985959
C106  C     C_3   0.357143 0.938935 0.186366 0.075243
C107  C     C_3   0.304467 0.931844 0.214588 -0.316424
C108  C     C_3   0.267789 0.872790 0.207349 -0.975206
C109  C     C_3   0.096589 0.620205 0.812669 0.078753
C110  C     C_3   0.117168 0.669116 0.784326 -0.310156
C111  C     C_3   0.184094 0.688218 0.790968 -0.986015
C112  C     C_R   0.120341 0.499999 1.000000 1.017863
C113  C     C_R   0.717059 0.454655 0.020596 0.310350
C114  C     C_3   0.643147 0.939418 0.813702 0.075404
C115  C     C_3   0.695857 0.932484 0.785489 -0.316480
C116  C     C_3   0.732821 0.873630 0.792798 -0.975084
C117  C     C_3   0.903409 0.379793 0.812669 0.078744
C118  C     C_3   0.882832 0.330881 0.784326 -0.310149
C119  C     C_3   0.815906 0.311780 0.790968 -0.986020
C120  C     C_3   0.356931 0.060662 0.813690 0.075395
C121  C     C_3   0.304181 0.067606 0.785507 -0.316468
C122  C     C_3   0.267307 0.126521 0.792799 -0.975124
C123  C     C_3   0.631539 0.801728 0.955809 0.134213
C124  C     C_R   0.556023 0.283975 0.996654 0.288019
C125  C     C_3   0.670003 0.857332 0.943369 -0.319958
C126  C     C_3   0.698319 0.846769 0.904580 -1.021826
C127  C     C_3   0.178828 0.646406 0.009491 0.181989
C128  C     C_3   0.220146 0.701481 0.019048 -0.364326
C129  C     C_3   0.206815 0.755933 0.992987 -0.993578
C130  C     C_3   0.368449 0.198282 0.955805 0.134197
C131  C     C_3   0.330086 0.142624 0.943340 -0.319888
C132  C     C_3   0.301638 0.153237 0.904592 -1.021924
C133  C     C_3   0.821167 0.353588 0.009468 0.181978
C134  C     C_3   0.779853 0.298507 0.019020 -0.364295
C135  C     C_R   0.282942 0.454663 0.979397 0.310376
C136  C     C_3   0.793175 0.244068 0.992946 -0.993584
C137  C     C_3   0.631564 0.198326 0.044186 0.134197
C138  C     C_3   0.669928 0.142681 0.056671 -0.319901
C139  C     C_3   0.698390 0.153344 0.095410 -1.022029
C140  C     C_3   0.178833 0.353592 0.990506 0.181976
C141  C     C_3   0.220152 0.298515 0.980950 -0.364278
C142  C     C_3   0.206827 0.244070 0.007017 -0.993584
C143  C     C_3   0.368437 0.801672 0.044189 0.134190
C144  C     C_3   0.330088 0.857323 0.056681 -0.319891
C145  C     C_3   0.301617 0.846653 0.095417 -1.022058
C146  C     C_R   0.443976 0.716025 0.996655 0.288019
C147  C     C_3   0.821156 0.646412 0.990572 0.181891
C148  C     C_3   0.779832 0.701502 0.981049 -0.364152
C149  C     C_3   0.793110 0.755882 0.007176 -0.993583
C150  C     C_3   0.136500 0.313327 0.540468 0.139106
C151  C     C_3   0.172360 0.359208 0.564756 -0.327552
C152  C     C_3   0.240837 0.359583 0.554768 -0.997856
C153  C     C_3   0.680882 0.125079 0.454674 0.148775
C154  C     C_3   0.735067 0.161495 0.437980 -0.314337
C155  C     C_3   0.720123 0.185163 0.398573 -1.042774
C156  C     C_3   0.863510 0.686681 0.540489 0.139098
C157  C     C_R   0.717058 0.545347 0.979407 0.310369
C158  C     C_3   0.827651 0.640814 0.564788 -0.327565
C159  C     C_3   0.759164 0.640469 0.554823 -0.997823
C160  C     C_3   0.319113 0.874932 0.454654 0.148746
C161  C     C_3   0.264928 0.838512 0.437963 -0.314339
C162  C     C_3   0.279868 0.814847 0.398553 -1.042718
C163  C     C_3   0.136502 0.686691 0.459541 0.139045
C164  C     C_3   0.172391 0.640841 0.435246 -0.327437
C165  C     C_3   0.240862 0.640471 0.445253 -0.997806
C166  C     C_3   0.680929 0.874925 0.545322 0.148745
C167  C     C_3   0.735114 0.838471 0.561986 -0.314179
C168  C     C_R   0.035996 0.218248 0.526705 0.312055
C169  C     C_3   0.720205 0.814800 0.601398 -1.043211
C170  C     C_3   0.863489 0.313309 0.459559 0.139027
C171  C     C_3   0.827594 0.359167 0.435274 -0.327419
C172  C     C_3   0.759126 0.359535 0.445289 -0.997812
C173  C     C_3   0.319054 0.125103 0.545288 0.148760
C174  C     C_3   0.264875 0.161593 0.561929 -0.314204
C175  C     C_3   0.279760 0.185270 0.601342 -1.043155
C176  C     C_R   0.783963 0.056283 0.502135 0.290393
C177  C     C_R   0.964016 0.781751 0.526711 0.312023
C178  C     C_R   0.216038 0.943715 0.502129 0.290359
C179  C     C_R   0.035978 0.781751 0.473288 0.311963
C180  C     C_R   0.499999 0.120555 0.999999 0.990088
C181  C     C_R   0.783969 0.943724 0.497852 0.290400
C182  C     C_R   0.964012 0.218246 0.473294 0.311971
C183  C     C_R   0.216029 0.056273 0.497835 0.290394
C184  C     C_R   0.379878 0.500000 0.000000 1.113476
C185  C     C_R   0.499997 0.380163 1.000000 1.125089
C186  C     C_R   0.620121 0.499998 1.000000 1.113487
C187  C     C_R   0.500002 0.619837 0.000000 1.125090
C188  C     C_R   0.880167 0.000005 0.500000 1.098466
C189  C     C_R   0.999997 0.879601 0.500000 1.093075
C190  C     C_R   0.119833 0.999992 0.499999 1.098480
C191  C     C_R   0.879659 0.500001 0.000001 1.017810
C192  C     C_R   0.000003 0.120399 0.500000 1.093105
C193  C     C_R   0.556558 0.779909 0.998766 0.304454
C194  C     C_R   0.219041 0.548796 0.017821 0.306098
C195  C     C_R   0.443443 0.220090 0.998759 0.304472
C196  C     C_R   0.780957 0.451197 0.017814 0.306116
C197  C     C_R   0.556552 0.220090 0.001235 0.304473
C198  C     C_R   0.219044 0.451203 0.982178 0.306070
C199  C     C_R   0.443448 0.779911 0.001236 0.304491
C200  C     C_R   0.780954 0.548811 0.982193 0.306102
C201  C     C_R   0.038734 0.282551 0.525199 0.283551
C202  C     C_R   0.000000 0.379999 0.500000 1.056754
C203  C     C_R   0.720301 0.056649 0.497637 0.338661
C204  C     C_R   0.961274 0.717448 0.525205 0.283551
C205  C     C_R   0.279699 0.943351 0.497626 0.338686
C206  C     C_R   0.038724 0.717450 0.474797 0.283531
C207  C     C_R   0.720306 0.943356 0.502348 0.338607
C208  C     C_R   0.961270 0.282549 0.474801 0.283539
C209  C     C_R   0.279693 0.056645 0.502325 0.338558
C210  C     C_R   0.500000 0.999997 0.926541 0.909343
C211  C     C_R   1.000000 0.500000 0.926551 0.935793
C212  C     C_R   0.500000 0.999999 0.073459 0.909305
C213  C     C_R   0.620600 0.000000 0.499998 0.962006
C214  C     C_R   0.000000 0.500000 0.073450 0.935883
C215  C     C_R   0.000000 0.500000 0.426544 0.949526
C216  C     C_R   0.499999 0.999999 0.426553 0.903598
C217  C     C_R   1.000000 0.500000 0.573457 0.949556
C218  C     C_R   0.500004 0.000001 0.573447 0.903614
C219  C     C_R   0.500002 0.685080 0.000001 -0.352439
C220  C     C_R   0.314120 0.500000 0.000000 -0.380983
C221  C     C_R   0.499996 0.314920 0.999998 -0.352418
C222  C     C_R   0.685879 0.499999 0.000000 -0.381009
C223  C     C_R   0.000005 0.186684 0.500000 -0.393252
C224  C     C_R   1.000000 0.620001 0.500000 1.056778
C225  C     C_R   0.814961 0.000004 0.499998 -0.374509
C226  C     C_R   0.999996 0.813315 0.500000 -0.393271
C227  C     C_R   0.185039 0.999994 0.499994 -0.374466
C228  C     C_R   0.500003 0.812399 1.000000 -0.377715
C229  C     C_R   0.186909 0.499999 1.000000 -0.400469
C230  C     C_R   0.499998 0.187600 0.999997 -0.377669
C231  C     C_R   0.813090 0.500003 0.000003 -0.400525
C232  C     C_R   0.000002 0.313914 0.499999 -0.346737
C233  C     C_R   0.687658 0.000001 0.499994 -0.419977
C234  C     C_R   0.999999 0.686085 0.500000 -0.346740
C235  C     C_R   0.379400 0.000000 0.499994 0.962025
C236  C     C_R   0.312342 0.999999 0.499980 -0.419961
C237  C     C_R   0.515180 0.945615 0.673670 0.442831
C238  C     C_R   0.056251 0.496791 0.673779 0.439599
C239  C     C_R   0.484836 0.054416 0.673666 0.442807
C240  C     C_R   0.943746 0.503206 0.673780 0.439598
C241  C     C_R   0.515032 0.054425 0.326328 0.442820
C242  C     C_R   0.056272 0.502855 0.326221 0.439625
C243  C     C_R   0.485009 0.945527 0.326332 0.442802
C244  C     C_R   0.943732 0.497152 0.326221 0.439624
C245  C     C_R   0.017665 0.446409 0.173685 0.442247
C246  C     C_1   0.500001 0.000018 0.733140 0.098852
C247  C     C_R   0.556246 0.004069 0.173801 0.440479
C248  C     C_R   0.982338 0.553596 0.173685 0.442253
C249  C     C_R   0.443784 0.995890 0.173808 0.440485
C250  C     C_R   0.017998 0.553480 0.826319 0.442311
C251  C     C_R   0.556243 0.996040 0.826195 0.440452
C252  C     C_R   0.982000 0.446518 0.826319 0.442313
C253  C     C_R   0.443758 0.003951 0.826199 0.440439
C254  C     C_R   0.513047 0.945472 0.634319 -0.320072
C255  C     C_R   0.055779 0.495054 0.634425 -0.312194
C256  C     C_R   0.486977 0.054550 0.634316 -0.320039
H1    H     H_    0.522031 0.902931 0.619232 0.172067
H2    H     H_    0.599362 0.002459 0.119358 0.176833
H3    H     H_    0.572670 0.782901 0.711601 0.230973
H4    H     H_    0.674178 0.776414 0.679107 0.275439
H5    H     H_    0.682685 0.762158 0.728826 0.269564
H6    H     H_    0.705091 0.835994 0.709530 0.271214
H7    H     H_    0.120830 0.587300 0.691169 0.128131
H8    H     H_    0.168033 0.542570 0.658714 0.141271
H9    H     H_    0.181365 0.546805 0.744964 0.220813
H10   H     H_    0.227415 0.500391 0.713551 0.231038
H11   H     H_    0.265712 0.595435 0.681351 0.267102
H12   H     H_    0.280993 0.598362 0.731226 0.267477
H13   H     H_    0.973247 0.595921 0.119276 0.172208
H14   H     H_    0.218286 0.642960 0.711720 0.271952
H15   H     H_    0.378137 0.087915 0.690554 0.127730
H16   H     H_    0.406562 0.145713 0.657635 0.141299
H17   H     H_    0.397308 0.160081 0.743642 0.222669
H18   H     H_    0.427311 0.217136 0.711559 0.230974
H19   H     H_    0.325807 0.223590 0.679065 0.275421
H20   H     H_    0.317286 0.237880 0.728780 0.269558
H21   H     H_    0.294895 0.164025 0.709502 0.271196
H22   H     H_    0.879167 0.412697 0.691168 0.128131
H23   H     H_    0.831964 0.457428 0.658715 0.141271
H24   H     H_    0.400648 0.997520 0.119370 0.176825
H25   H     H_    0.818631 0.453190 0.744965 0.220813
H26   H     H_    0.772581 0.499604 0.713554 0.231038
H27   H     H_    0.734286 0.404561 0.681352 0.267101
H28   H     H_    0.719005 0.401632 0.731228 0.267477
H29   H     H_    0.781712 0.357035 0.711719 0.271952
H30   H     H_    0.621663 0.088575 0.309867 0.127762
H31   H     H_    0.592513 0.146528 0.342451 0.141376
H32   H     H_    0.602461 0.160120 0.256432 0.222799
H33   H     H_    0.571960 0.217316 0.288244 0.230876
H34   H     H_    0.673220 0.224446 0.321015 0.275284
H35   H     H_    0.027347 0.595749 0.880731 0.172086
H36   H     H_    0.681985 0.238467 0.271285 0.269507
H37   H     H_    0.704608 0.164839 0.290784 0.271208
H38   H     H_    0.120221 0.411912 0.308802 0.128108
H39   H     H_    0.167716 0.456283 0.341279 0.141264
H40   H     H_    0.181061 0.452021 0.255031 0.220807
H41   H     H_    0.227409 0.498099 0.286462 0.231041
H42   H     H_    0.265046 0.402780 0.318647 0.267099
H43   H     H_    0.280324 0.399769 0.268773 0.267514
H44   H     H_    0.217307 0.355595 0.288266 0.271937
H45   H     H_    0.378402 0.911312 0.309874 0.127754
H46   H     H_    0.599359 0.997800 0.880640 0.176798
H47   H     H_    0.407579 0.853358 0.342446 0.141391
H48   H     H_    0.397647 0.839807 0.256424 0.222782
H49   H     H_    0.428172 0.782608 0.288222 0.230862
H50   H     H_    0.326906 0.775388 0.320981 0.275256
H51   H     H_    0.318159 0.761413 0.271246 0.269471
H52   H     H_    0.295493 0.835006 0.290770 0.271208
H53   H     H_    0.879783 0.588096 0.308807 0.128108
H54   H     H_    0.832285 0.543721 0.341281 0.141266
H55   H     H_    0.818949 0.547992 0.255032 0.220809
H56   H     H_    0.772597 0.501911 0.286461 0.231041
H57   H     H_    0.972652 0.404250 0.880731 0.172083
H58   H     H_    0.734958 0.597228 0.318649 0.267100
H59   H     H_    0.719685 0.600244 0.268775 0.267514
H60   H     H_    0.782700 0.644415 0.288271 0.271935
H61   H     H_    0.125739 0.420732 0.191080 0.126904
H62   H     H_    0.102209 0.360327 0.158455 0.139145
H63   H     H_    0.111468 0.348884 0.244657 0.220467
H64   H     H_    0.085722 0.288894 0.213137 0.231401
H65   H     H_    0.187858 0.289400 0.180713 0.265909
H66   H     H_    0.196625 0.275979 0.230536 0.269758
H67   H     H_    0.214114 0.351100 0.211178 0.270618
H68   H     H_    0.400643 0.002188 0.880642 0.176819
H69   H     H_    0.611636 0.101774 0.189110 0.129552
H70   H     H_    0.663019 0.059949 0.157584 0.148247
H71   H     H_    0.676448 0.069325 0.243578 0.223504
H72   H     H_    0.727059 0.027670 0.212354 0.230122
H73   H     H_    0.753682 0.125685 0.178957 0.272030
H74   H     H_    0.769440 0.131544 0.228679 0.268718
H75   H     H_    0.701723 0.168226 0.209308 0.271076
H76   H     H_    0.874264 0.579277 0.191077 0.126903
H77   H     H_    0.897799 0.639685 0.158456 0.139144
H78   H     H_    0.888535 0.651121 0.244657 0.220470
H79   H     H_    0.596383 0.707765 0.066412 0.114426
H80   H     H_    0.914285 0.711112 0.213140 0.231400
H81   H     H_    0.812150 0.710612 0.180716 0.265910
H82   H     H_    0.803381 0.724029 0.230539 0.269760
H83   H     H_    0.785891 0.648910 0.211178 0.270615
H84   H     H_    0.388421 0.898171 0.189122 0.129546
H85   H     H_    0.337032 0.939984 0.157596 0.148251
H86   H     H_    0.323595 0.930601 0.243589 0.223501
H87   H     H_    0.272979 0.972247 0.212366 0.230122
H88   H     H_    0.246383 0.874233 0.178963 0.272044
H89   H     H_    0.230624 0.868356 0.228685 0.268724
H90   H     H_    0.665032 0.737351 0.043567 0.183168
H91   H     H_    0.298355 0.831699 0.209308 0.271074
H92   H     H_    0.126236 0.578436 0.808919 0.126914
H93   H     H_    0.103110 0.638995 0.841548 0.139120
H94   H     H_    0.112436 0.650386 0.755345 0.220479
H95   H     H_    0.087100 0.710544 0.786871 0.231398
H96   H     H_    0.189238 0.709342 0.819285 0.265878
H97   H     H_    0.198086 0.722708 0.769462 0.269788
H98   H     H_    0.215071 0.647468 0.788815 0.270597
H99   H     H_    0.612056 0.898503 0.810992 0.129581
H100  H     H_    0.663260 0.940646 0.842469 0.148173
H101  H     H_    0.707041 0.629426 0.041101 0.256213
H102  H     H_    0.676735 0.931055 0.756491 0.223420
H103  H     H_    0.727151 0.973044 0.787663 0.230104
H104  H     H_    0.754184 0.875245 0.821192 0.271939
H105  H     H_    0.770037 0.869334 0.771484 0.268634
H106  H     H_    0.702465 0.832383 0.790857 0.271189
H107  H     H_    0.873764 0.421563 0.808919 0.126911
H108  H     H_    0.896886 0.361006 0.841548 0.139119
H109  H     H_    0.887565 0.349611 0.755345 0.220478
H110  H     H_    0.912900 0.289454 0.786871 0.231397
H111  H     H_    0.810760 0.290657 0.819285 0.265876
H112  H     H_    0.098946 0.489716 0.619422 0.170448
H113  H     H_    0.689470 0.653668 0.088394 0.200249
H114  H     H_    0.801915 0.277290 0.769462 0.269788
H115  H     H_    0.784929 0.352530 0.788815 0.270597
H116  H     H_    0.388068 0.101532 0.810928 0.129593
H117  H     H_    0.336867 0.059523 0.842472 0.148171
H118  H     H_    0.323256 0.068952 0.756495 0.223411
H119  H     H_    0.272839 0.027089 0.787732 0.230103
H120  H     H_    0.245977 0.124981 0.821205 0.271972
H121  H     H_    0.230070 0.130836 0.771501 0.268662
H122  H     H_    0.297719 0.167725 0.790820 0.271153
H123  H     H_    0.592264 0.797101 0.935569 0.106707
H124  H     H_    0.637942 0.601787 0.064006 0.267127
H125  H     H_    0.660143 0.759235 0.954203 0.174323
H126  H     H_    0.640119 0.899047 0.942333 0.238570
H127  H     H_    0.707494 0.866062 0.963967 0.221650
H128  H     H_    0.729415 0.805947 0.905115 0.273435
H129  H     H_    0.725663 0.887976 0.896286 0.267632
H130  H     H_    0.661507 0.839202 0.883315 0.262266
H131  H     H_    0.130121 0.661775 0.012368 0.166794
H132  H     H_    0.185148 0.633143 0.979331 0.101540
H133  H     H_    0.212359 0.715770 0.048712 0.225908
H134  H     H_    0.269161 0.688300 0.015805 0.287767
H135  H     H_    0.328765 0.532021 0.085454 0.128429
H136  H     H_    0.213367 0.742165 0.963137 0.263889
H137  H     H_    0.238977 0.794352 0.999293 0.281272
H138  H     H_    0.158759 0.772503 0.997056 0.264909
H139  H     H_    0.407708 0.203014 0.935562 0.106617
H140  H     H_    0.339769 0.240725 0.954225 0.174392
H141  H     H_    0.360071 0.100986 0.942224 0.238487
H142  H     H_    0.292673 0.133734 0.963967 0.221711
H143  H     H_    0.270411 0.193958 0.905214 0.273473
H144  H     H_    0.274404 0.111973 0.896268 0.267639
H145  H     H_    0.338372 0.161005 0.883301 0.262297
H146  H     H_    0.265030 0.586077 0.089178 0.168984
H147  H     H_    0.869875 0.338219 0.012339 0.166789
H148  H     H_    0.814842 0.366862 0.979310 0.101524
H149  H     H_    0.787651 0.284202 0.048680 0.225899
H150  H     H_    0.730836 0.311689 0.015787 0.287778
H151  H     H_    0.786616 0.257854 0.963100 0.263886
H152  H     H_    0.761014 0.205648 0.999247 0.281268
H153  H     H_    0.841231 0.227495 0.997007 0.264906
H154  H     H_    0.592313 0.203087 0.064433 0.106620
H155  H     H_    0.660246 0.240767 0.045744 0.174450
H156  H     H_    0.639942 0.101046 0.057810 0.238422
H157  H     H_    0.338397 0.673426 0.093179 0.241697
H158  H     H_    0.707336 0.133763 0.036043 0.221738
H159  H     H_    0.729630 0.194052 0.094762 0.273476
H160  H     H_    0.725611 0.112083 0.103756 0.267693
H161  H     H_    0.661663 0.161163 0.116699 0.262281
H162  H     H_    0.130126 0.338224 0.987629 0.166794
H163  H     H_    0.185149 0.366855 0.020666 0.101561
H164  H     H_    0.212360 0.284220 0.951288 0.225895
H165  H     H_    0.269169 0.311697 0.984187 0.287800
H166  H     H_    0.213380 0.257847 0.036866 0.263880
H167  H     H_    0.238992 0.205652 0.000715 0.281279
H168  H     H_    0.353706 0.616644 0.129269 0.197065
H169  H     H_    0.158773 0.227497 0.002951 0.264899
H170  H     H_    0.407687 0.796895 0.064435 0.106609
H171  H     H_    0.339744 0.759237 0.045744 0.174463
H172  H     H_    0.360088 0.898949 0.057828 0.238416
H173  H     H_    0.292687 0.866262 0.036052 0.221745
H174  H     H_    0.270364 0.805955 0.094761 0.273483
H175  H     H_    0.274409 0.887919 0.103770 0.267699
H176  H     H_    0.338338 0.838811 0.116706 0.262281
H177  H     H_    0.869861 0.661791 0.987702 0.166769
H178  H     H_    0.814844 0.633104 0.020725 0.101574
H179  H     H_    0.402714 0.620684 0.088155 0.271627
H180  H     H_    0.787659 0.715878 0.951405 0.225869
H181  H     H_    0.730814 0.688301 0.984248 0.287880
H182  H     H_    0.786554 0.742016 0.037010 0.263863
H183  H     H_    0.760921 0.794296 0.000914 0.281270
H184  H     H_    0.841155 0.772497 0.003136 0.264887
H185  H     H_    0.142731 0.326259 0.510317 0.136312
H186  H     H_    0.155748 0.266327 0.545190 0.182041
H187  H     H_    0.153234 0.406405 0.560575 0.240945
H188  H     H_    0.166991 0.346624 0.594911 0.228286
H189  H     H_    0.261434 0.313365 0.559898 0.275274
H190  H     H_    0.403537 0.292181 0.066389 0.114448
H191  H     H_    0.265229 0.393952 0.572578 0.271251
H192  H     H_    0.247344 0.372379 0.524758 0.264805
H193  H     H_    0.638485 0.153736 0.452433 0.162707
H194  H     H_    0.671991 0.082523 0.437705 0.096564
H195  H     H_    0.745962 0.201369 0.456524 0.240236
H196  H     H_    0.776432 0.131332 0.436228 0.254112
H197  H     H_    0.710189 0.145831 0.379402 0.267730
H198  H     H_    0.760197 0.211316 0.387351 0.281228
H199  H     H_    0.679541 0.216509 0.399394 0.268412
H200  H     H_    0.857264 0.673741 0.510340 0.136320
H201  H     H_    0.334902 0.262641 0.043507 0.183173
H202  H     H_    0.844273 0.733686 0.545211 0.182065
H203  H     H_    0.846753 0.593609 0.560600 0.240908
H204  H     H_    0.833050 0.653396 0.594942 0.228310
H205  H     H_    0.738591 0.686696 0.559960 0.275271
H206  H     H_    0.734772 0.606113 0.572643 0.271249
H207  H     H_    0.752625 0.627671 0.524816 0.264805
H208  H     H_    0.361514 0.846280 0.452407 0.162694
H209  H     H_    0.327996 0.917492 0.437688 0.096556
H210  H     H_    0.254041 0.798637 0.456506 0.240241
H211  H     H_    0.223560 0.868672 0.436214 0.254113
H212  H     H_    0.292924 0.370567 0.041064 0.256193
H213  H     H_    0.289759 0.854182 0.379377 0.267746
H214  H     H_    0.239808 0.788660 0.387343 0.281223
H215  H     H_    0.320475 0.783533 0.399366 0.268389
H216  H     H_    0.142723 0.673739 0.489690 0.136383
H217  H     H_    0.155734 0.733701 0.454834 0.182055
H218  H     H_    0.153273 0.593636 0.439403 0.240983
H219  H     H_    0.167045 0.653456 0.405094 0.228276
H220  H     H_    0.261452 0.686697 0.440146 0.275199
H221  H     H_    0.265276 0.606124 0.427437 0.271269
H222  H     H_    0.247346 0.627644 0.475260 0.264796
H223  H     H_    0.477998 0.097088 0.619225 0.172092
H224  H     H_    0.310460 0.346300 0.088357 0.200259
H225  H     H_    0.638517 0.846293 0.547581 0.162740
H226  H     H_    0.672083 0.917482 0.562300 0.096510
H227  H     H_    0.745963 0.798597 0.543434 0.240205
H228  H     H_    0.776498 0.868608 0.563726 0.254251
H229  H     H_    0.710366 0.854137 0.620582 0.267757
H230  H     H_    0.760258 0.788580 0.612587 0.281240
H231  H     H_    0.679574 0.783518 0.600599 0.268525
H232  H     H_    0.857278 0.326255 0.489710 0.136375
H233  H     H_    0.844252 0.266302 0.454851 0.182052
H234  H     H_    0.846714 0.406370 0.439435 0.240983
H235  H     H_    0.362014 0.398184 0.063989 0.267125
H236  H     H_    0.832932 0.346561 0.405120 0.228273
H237  H     H_    0.738534 0.313310 0.440178 0.275198
H238  H     H_    0.734708 0.393888 0.427481 0.271267
H239  H     H_    0.752650 0.372351 0.475298 0.264796
H240  H     H_    0.361476 0.153719 0.547547 0.162737
H241  H     H_    0.327871 0.082556 0.562280 0.096513
H242  H     H_    0.254063 0.201464 0.543366 0.240150
H243  H     H_    0.223473 0.131478 0.563661 0.254368
H244  H     H_    0.289571 0.145934 0.620534 0.267746
H245  H     H_    0.239705 0.211509 0.612517 0.281231
H246  H     H_    0.671230 0.467961 0.085449 0.128428
H247  H     H_    0.320403 0.216539 0.600550 0.268526
H248  H     H_    0.734966 0.413905 0.089169 0.168974
H249  H     H_    0.661604 0.326556 0.093169 0.241683
H250  H     H_    0.646285 0.383336 0.129258 0.197065
H251  H     H_    0.597283 0.379292 0.088142 0.271635
H252  H     H_    0.596450 0.292174 0.933603 0.114463
H253  H     H_    0.665090 0.262640 0.956484 0.183154
H254  H     H_    0.707058 0.370569 0.958922 0.256191
H255  H     H_    0.901052 0.510283 0.619423 0.170445
H256  H     H_    0.689523 0.346294 0.911631 0.200250
H257  H     H_    0.637965 0.398178 0.935997 0.267134
H258  H     H_    0.328768 0.467991 0.914547 0.128419
H259  H     H_    0.265041 0.413929 0.910819 0.168949
H260  H     H_    0.338422 0.326589 0.906816 0.241690
H261  H     H_    0.353724 0.383377 0.870728 0.197037
H262  H     H_    0.402730 0.379338 0.911842 0.271636
H263  H     H_    0.403535 0.707833 0.933607 0.114468
H264  H     H_    0.334900 0.737363 0.956495 0.183158
H265  H     H_    0.292932 0.629435 0.958932 0.256185
H266  H     H_    0.521706 0.097130 0.380772 0.171980
H267  H     H_    0.310462 0.653712 0.911640 0.200255
H268  H     H_    0.362023 0.601827 0.936002 0.267130
H269  H     H_    0.671248 0.532028 0.914554 0.128406
H270  H     H_    0.734974 0.586094 0.910835 0.168929
H271  H     H_    0.661596 0.673429 0.906821 0.241656
H272  H     H_    0.646289 0.616635 0.870738 0.197042
H273  H     H_    0.597283 0.620686 0.911854 0.271639
H274  H     H_    0.997640 0.174466 0.587577 0.127220
H275  H     H_    0.051992 0.234790 0.600192 0.171925
H276  H     H_    0.131314 0.155484 0.614525 0.254789
H277  H     H_    0.099013 0.509656 0.380575 0.170521
H278  H     H_    0.061887 0.143639 0.641782 0.196596
H279  H     H_    0.077694 0.095009 0.601538 0.266019
H280  H     H_    0.831534 0.099279 0.562830 0.126739
H281  H     H_    0.761520 0.140607 0.550354 0.168881
H282  H     H_    0.826637 0.227636 0.525557 0.248903
H283  H     H_    0.836805 0.213186 0.575258 0.199239
H284  H     H_    0.894464 0.187299 0.542388 0.244041
H285  H     H_    0.002401 0.825515 0.587579 0.127203
H286  H     H_    0.948037 0.765205 0.600202 0.171921
H287  H     H_    0.868740 0.844534 0.614547 0.254784
H288  H     H_    0.478306 0.902848 0.380782 0.171970
H289  H     H_    0.938180 0.856357 0.641795 0.196588
H290  H     H_    0.922375 0.904993 0.601555 0.266006
H291  H     H_    0.168451 0.900709 0.562822 0.126750
H292  H     H_    0.238484 0.859408 0.550350 0.168861
H293  H     H_    0.173411 0.772354 0.525547 0.248904
H294  H     H_    0.163215 0.786802 0.575247 0.199242
H295  H     H_    0.105560 0.812664 0.542367 0.244039
H296  H     H_    0.997594 0.825479 0.412414 0.127135
H297  H     H_    0.051994 0.765196 0.399797 0.171892
H298  H     H_    0.131253 0.844579 0.385467 0.254774
H299  H     H_    0.900989 0.490347 0.380575 0.170527
H300  H     H_    0.061822 0.856335 0.358201 0.196550
H301  H     H_    0.077560 0.905001 0.398439 0.265992
H302  H     H_    0.831468 0.900715 0.437148 0.126727
H303  H     H_    0.761509 0.859330 0.449667 0.168952
H304  H     H_    0.826756 0.772380 0.474458 0.248918
H305  H     H_    0.836818 0.786797 0.424745 0.199232
H306  H     H_    0.894511 0.812769 0.457566 0.244039
H307  H     H_    0.002368 0.174541 0.412411 0.127111
H308  H     H_    0.947930 0.234794 0.399802 0.171910
H309  H     H_    0.868700 0.155366 0.385502 0.254773
H310  H     H_    0.026755 0.404080 0.119276 0.172211
H311  H     H_    0.938117 0.143643 0.358216 0.196548
H312  H     H_    0.922436 0.094977 0.398461 0.266006
H313  H     H_    0.168586 0.099252 0.437120 0.126715
H314  H     H_    0.238495 0.140706 0.449659 0.169012
H315  H     H_    0.173140 0.227598 0.474425 0.248910
H316  H     H_    0.163139 0.213162 0.424709 0.199236
H317  H     H_    0.105441 0.187138 0.457513 0.244063
H318  H     H_    0.621869 0.912084 0.690534 0.127732
H319  H     H_    0.593410 0.854260 0.657651 0.141326
H320  H     H_    0.602676 0.839984 0.743660 0.222704
O1    O     O_R   0.448380 0.908480 0.999900 -0.585826
O2    O     O_R   0.591520 0.948380 0.499900 -0.591152
O3    O     O_R   0.051620 0.591520 0.499900 -0.623440
O4    O     O_R   0.408480 0.051620 0.499900 -0.591155
O5    O     O_R   0.948380 0.591520 0.500100 -0.623481
O6    O     O_R   0.591520 0.051620 0.500100 -0.591180
O7    O     O_R   0.051620 0.408480 0.500100 -0.623482
O8    O     O_R   0.408480 0.948380 0.500100 -0.591166
O9    O     O_R   0.448380 0.000100 0.944450 -0.641324
O10   O     O_R   0.999900 0.448380 0.944450 -0.630601
O11   O     O_R   0.551620 0.999900 0.944450 -0.641277
O12   O     O_R   0.091520 0.448380 0.999900 -0.624756
O13   O     O_R   0.000100 0.551620 0.944450 -0.630592
O14   O     O_R   0.448380 0.999900 0.055550 -0.641267
O15   O     O_R   0.999900 0.551620 0.055550 -0.630675
O16   O     O_R   0.551620 0.000100 0.055550 -0.641270
O17   O     O_R   0.000100 0.448380 0.055550 -0.630665
O18   O     O_R   0.948380 0.500100 0.444450 -0.639305
O19   O     O_R   0.499900 0.948380 0.444450 -0.634432
O20   O     O_R   0.051620 0.499900 0.444450 -0.639304
O21   O     O_R   0.500100 0.051620 0.444450 -0.634425
O22   O     O_R   0.948380 0.499900 0.555550 -0.639307
O23   O     O_R   0.551620 0.091520 0.999900 -0.585840
O24   O     O_R   0.499900 0.051620 0.555550 -0.634369
O25   O     O_R   0.051620 0.500100 0.555550 -0.639315
O26   O     O_R   0.500100 0.948380 0.555550 -0.634358
O27   O     O_R   0.408370 0.500100 0.031180 -0.639086
O28   O     O_R   0.499900 0.408370 0.031180 -0.641688
O29   O     O_R   0.591630 0.499900 0.031180 -0.639103
O30   O     O_R   0.500100 0.591630 0.031180 -0.641682
O31   O     O_R   0.408370 0.499900 0.968820 -0.639079
O32   O     O_R   0.499900 0.591630 0.968820 -0.641678
O33   O     O_R   0.591630 0.500100 0.968820 -0.639087
O34   O     O_R   0.908480 0.551620 0.999900 -0.624722
O35   O     O_R   0.500100 0.408370 0.968820 -0.641671
O36   O     O_R   0.908370 0.000100 0.531180 -0.642451
O37   O     O_R   0.999900 0.908370 0.531180 -0.620890
O38   O     O_R   0.091630 0.999900 0.531180 -0.642482
O39   O     O_R   0.000100 0.091630 0.531180 -0.620920
O40   O     O_R   0.908370 0.999900 0.468820 -0.642409
O41   O     O_R   0.999900 0.091630 0.468820 -0.620873
O42   O     O_R   0.091630 0.000100 0.468820 -0.642371
O43   O     O_R   0.000100 0.908370 0.468820 -0.620873
O44   O     O_3   0.609963 0.682968 0.009245 -0.580839
O45   O     O_R   0.448380 0.091520 0.000100 -0.585864
O46   O     O_3   0.315838 0.590734 0.039336 -0.567100
O47   O     O_3   0.390031 0.317033 0.009225 -0.580857
O48   O     O_3   0.684160 0.409255 0.039327 -0.567087
O49   O     O_3   0.609961 0.317033 0.990766 -0.580867
O50   O     O_3   0.315844 0.409269 0.960661 -0.567074
O51   O     O_3   0.390038 0.682967 0.990769 -0.580882
O52   O     O_3   0.684157 0.590743 0.960673 -0.567063
O53   O     O_3   0.073314 0.185679 0.551383 -0.573127
O54   O     O_3   0.816539 0.111133 0.505315 -0.583145
O55   O     O_3   0.926709 0.814322 0.551397 -0.573108
O56   O     O_R   0.091520 0.551620 0.000100 -0.624768
O57   O     O_3   0.183464 0.888864 0.505308 -0.583159
O58   O     O_3   0.073283 0.814323 0.448603 -0.573064
O59   O     O_3   0.816554 0.888878 0.494674 -0.583218
O60   O     O_3   0.926694 0.185673 0.448617 -0.573070
O61   O     O_3   0.183440 0.111117 0.494650 -0.583258
O62   O     O_3   0.527518 0.891937 0.693608 -0.635003
O63   O     O_3   0.110903 0.491059 0.693722 -0.636727
O64   O     O_3   0.472485 0.108096 0.693599 -0.635003
O65   O     O_3   0.889093 0.508938 0.693724 -0.636727
O66   O     O_3   0.527212 0.108131 0.306378 -0.635069
O67   O     O_R   0.551620 0.908480 0.000100 -0.585888
O68   O     O_3   0.110962 0.508221 0.306279 -0.636717
O69   O     O_3   0.472863 0.891809 0.306384 -0.635072
O70   O     O_3   0.889042 0.491787 0.306279 -0.636715
O71   O     O_3   0.033035 0.393543 0.193605 -0.634901
O72   O     O_3   0.611160 0.005277 0.193826 -0.635919
O73   O     O_3   0.966970 0.606463 0.193605 -0.634901
O74   O     O_3   0.388876 0.994667 0.193840 -0.635914
O75   O     O_3   0.033713 0.606245 0.806400 -0.634891
O76   O     O_3   0.611156 0.994980 0.806162 -0.635986
O77   O     O_3   0.966286 0.393752 0.806400 -0.634889
O78   O     O_R   0.908480 0.448380 0.000100 -0.624748
O79   O     O_3   0.388841 0.005046 0.806172 -0.635970
O80   O     O_3   0.612059 0.810385 0.993486 -0.613857
O81   O     O_3   0.188305 0.597211 0.035304 -0.625507
O82   O     O_3   0.387946 0.189609 0.993477 -0.613892
O83   O     O_3   0.811692 0.402773 0.035289 -0.625488
O84   O     O_3   0.612050 0.189609 0.006521 -0.613893
O85   O     O_3   0.188311 0.402788 0.964694 -0.625517
O86   O     O_3   0.387951 0.810392 0.006524 -0.613896
O87   O     O_3   0.811681 0.597253 0.964733 -0.625456
O88   O     O_3   0.073674 0.315435 0.551009 -0.639835
O89   O     O_R   0.948380 0.408480 0.499900 -0.623434
O90   O     O_3   0.690653 0.112956 0.493430 -0.607717
O91   O     O_3   0.926341 0.684564 0.551018 -0.639839
O92   O     O_3   0.309347 0.887046 0.493413 -0.607695
O93   O     O_3   0.073679 0.684568 0.448992 -0.639823
O94   O     O_3   0.690661 0.887051 0.506563 -0.607773
O95   O     O_3   0.926307 0.315430 0.449001 -0.639830
O96   O     O_3   0.309340 0.112951 0.506530 -0.607814
Zn1   Zn    Zn3+2 0.431030 0.000000 0.000000 0.945801
Zn2   Zn    Zn3+2 0.500000 0.500000 0.958310 0.939335
Zn3   Zn    Zn3+2 0.000000 0.000000 0.541690 0.942952
Zn4   Zn    Zn3+2 0.000000 0.000000 0.458310 0.943002
Zn5   Zn    Zn3+2 1.000000 0.431030 0.000000 0.922286
Zn6   Zn    Zn3+2 0.568970 0.000000 0.000000 0.945783
Zn7   Zn    Zn3+2 0.000000 0.568970 0.000000 0.922298
Zn8   Zn    Zn3+2 0.931030 0.500000 0.500000 0.929474
Zn9   Zn    Zn3+2 0.500000 0.931030 0.500000 0.956452
Zn10  Zn    Zn3+2 0.068970 0.500000 0.500000 0.929474
Zn11  Zn    Zn3+2 0.500000 0.068970 0.500000 0.956432
Zn12  Zn    Zn3+2 0.500000 0.500000 0.041690 0.939318

loop_
_geom_bond_atom_site_label_1
_geom_bond_atom_site_label_2
_ccdc_geom_bond_type
C71   H320  S    
C142  H166  S    
C11   H24   S    
O2    Zn9   S    
C247  O72   S    
C50   H269  S    
C238  O63   S    
C218  O24   A    
C114  C115  S    
O18   Zn8   S    
C197  C230  A    
C12   H35   S    
C205  C236  A    
C12   C23   A    
C182  C223  A    
C11   C249  A    
C186  O33   A    
C30   C248  A    
C154  H195  S    
C78   H19   S    
C256  H223  S    
C181  C207  A    
C139  H160  S    
C41   H248  S    
C125  H126  S    
C62   H298  S    
C106  O74   S    
C160  H208  S    
C106  C107  S    
C143  C144  S    
C239  O64   S    
C181  O59   S    
C49   H268  S    
C164  H218  S    
C110  C111  S    
C204  C234  A    
C248  O73   S    
O30   Zn12  S    
C177  C226  A    
C26   C239  A    
C201  C232  A    
C143  H170  S    
C22   C212  S    
C150  H186  S    
C189  O37   A    
C66   H311  S    
C133  O83   S    
C114  O76   S    
C73   H8    S    
C149  H182  S    
C52   O53   S    
C84   H32   S    
C59   C60   S    
C185  C221  S    
C9    H2    S    
C176  C203  A    
C108  H88   S    
C32   C57   S    
C213  C233  S    
C251  O76   S    
C104  C105  S    
C27   C240  A    
C45   C47   S    
C10   C21   A    
C89   O69   S    
C120  H117  S    
C112  O12   A    
C87   H41   S    
C20   C215  S    
C77   H17   S    
C237  C254  A    
O37   Zn3   S    
C81   H25   S    
C145  H174  S    
C42   H250  S    
C83   O66   S    
C145  H175  S    
C96   H62   S    
C149  H183  S    
C194  O81   S    
C75   H11   S    
C14   C251  A    
C181  C225  A    
C124  C197  A    
C86   H39   S    
C96   H61   S    
C147  O87   S    
C43   C44   S    
C37   C38   S    
C192  O39   A    
O35   Zn2   S    
C158  H204  S    
C16   C253  A    
C79   C219  A    
C203  O90   S    
C175  H245  S    
C156  H202  S    
C118  H110  S    
C72   H5    S    
C177  C204  A    
O22   Zn8   S    
C14   H46   S    
C88   H43   S    
C76   C77   S    
C151  H187  S    
C154  C155  S    
C83   H30   S    
C208  C232  A    
C70   H319  S    
C54   O54   S    
O89   Zn8   S    
C158  C159  S    
C123  H125  S    
C90   O46   S    
C4    H266  S    
C237  O62   S    
C91   C92   S    
C169  H230  S    
C16   C25   A    
C127  H132  S    
C80   O65   S    
C58   H289  S    
C119  H115  S    
C43   H252  S    
C192  C223  S    
C144  C145  S    
C131  H141  S    
O40   Zn4   S    
C210  O9    A    
C56   H286  S    
C16   H68   S    
C92   H51   S    
C37   H146  S    
C122  H122  S    
C64   H306  S    
C93   H54   S    
C200  O87   S    
C172  H237  S    
C54   H281  S    
C156  C158  S    
C130  C131  S    
O5    Zn8   S    
C34   O44   S    
C51   H272  S    
C55   H283  S    
C26   C237  A    
C156  H200  S    
O28   Zn12  S    
C36   H113  S    
O19   Zn9   S    
C135  O50   S    
C175  H247  S    
C74   H9    S    
C66   H309  S    
C45   H259  S    
O11   Zn6   S    
C182  C208  A    
C47   H262  S    
C224  O5    A    
C252  O77   S    
C216  O21   A    
C110  H94   S    
C163  H216  S    
C213  O6    A    
C184  C220  S    
C191  C231  S    
C29   C242  A    
O1    Zn1   S    
O15   Zn7   S    
C153  O90   S    
C140  O85   S    
O10   Zn5   S    
C26   C246  S    
C27   C238  A    
C202  O89   A    
C6    H288  S    
C34   H90   S    
C152  H189  S    
C65   H308  S    
C130  O82   S    
C212  O16   A    
C167  H227  S    
C147  C148  S    
C67   H314  S    
C78   H20   S    
C166  H226  S    
C82   H28   S    
C128  C129  S    
C168  O53   S    
C2    C57   T    
C167  C169  S    
C5    C20   A    
C85   H34   S    
O21   Zn11  S    
C131  H142  S    
O27   Zn12  S    
C142  H169  S    
C191  O78   A    
O25   Zn10  S    
O33   Zn2   S    
C67   O61   S    
C162  H214  S    
O23   Zn6   S    
C170  C171  S    
C71   H3    S    
C115  C116  S    
C111  H97   S    
C76   H15   S    
C97   H63   S    
C136  H151  S    
C31   C249  A    
C138  H156  S    
C82   H29   S    
C174  C175  S    
C179  C226  A    
C62   H301  S    
C186  O29   A    
C10   H13   S    
C123  O80   S    
C80   H23   S    
C54   H280  S    
C102  H75   S    
C123  H123  S    
C49   H265  S    
C89   C91   S    
C199  C228  A    
C144  H172  S    
C90   C220  A    
O34   Zn7   S    
C89   H45   S    
C3    C240  A    
C99   H69   S    
C207  O94   S    
C85   H37   S    
C14   C25   A    
O24   Zn11  S    
C128  H133  S    
C147  H178  S    
C44   H254  S    
C94   C95   S    
C120  O79   S    
C53   H278  S    
C211  O10   A    
C45   O50   S    
C117  O77   S    
C137  H154  S    
C205  O92   S    
C3    H255  S    
C17   C254  A    
C94   H55   S    
C217  O25   A    
C172  H239  S    
C173  H241  S    
C105  H81   S    
C98   H65   S    
O31   Zn2   S    
C39   C40   S    
C182  O60   S    
C254  H1    S    
C73   O63   S    
C193  O80   S    
C188  O36   A    
C132  H144  S    
C156  O91   S    
C63   H303  S    
C190  O42   A    
C104  H78   S    
C215  O20   A    
C69   H315  S    
C83   C84   S    
C235  C236  S    
C130  H140  S    
C37   O46   S    
C173  H240  S    
C165  H221  S    
C209  O96   S    
C202  O7    A    
C140  H163  S    
C161  H211  S    
C178  C227  A    
C2    C27   S    
C107  H86   S    
C180  O45   A    
C40   H224  S    
C91   H49   S    
C1    C228  S    
C36   H124  S    
C98   H67   S    
C152  H191  S    
C7    H299  S    
C111  H96   S    
C113  C196  A    
C60   H295  S    
C88   H42   S    
C241  O66   S    
C168  C223  A    
C134  H150  S    
C73   C74   S    
C239  C256  A    
C83   H31   S    
C120  C121  S    
C207  C233  A    
C85   H36   S    
C54   C55   S    
C243  O69   S    
C165  H220  S    
C142  H167  S    
C53   H276  S    
C129  H138  S    
C50   H270  S    
C95   H58   S    
C1    O67   A    
C249  O74   S    
C18   C217  S    
C184  O31   A    
C56   H285  S    
C75   H14   S    
C72   H6    S    
C87   H40   S    
C79   C193  A    
C238  C255  A    
C206  C234  A    
C157  C200  A    
C154  H196  S    
O8    Zn9   S    
C43   H253  S    
C195  O82   S    
C199  O86   S    
C139  H159  S    
C71   C72   S    
C211  O13   A    
O45   Zn1   S    
C117  C118  S    
C15   H57   S    
C101  O47   S    
C166  C167  S    
C92   H50   S    
C76   O64   S    
C135  C220  A    
O26   Zn9   S    
C102  H73   S    
C56   C58   S    
C79   O44   S    
C52   H275  S    
C34   C36   S    
C171  H236  S    
C49   H267  S    
C61   C62   S    
C218  O26   A    
C89   H47   S    
C63   C64   S    
C183  O61   S    
C59   H291  S    
O43   Zn4   S    
O56   Zn7   S    
O14   Zn1   S    
C64   H305  S    
C39   H190  S    
C66   H312  S    
C150  C151  S    
C44   H256  S    
C126  H129  S    
C242  O68   S    
C17   C218  S    
C73   H7    S    
C33   C68   S    
C116  H105  S    
C59   O57   S    
C87   C88   S    
C17   C256  A    
C129  H136  S    
C41   C42   S    
C137  O84   S    
C189  C226  S    
C105  H83   S    
C161  C162  S    
C198  C229  A    
O29   Zn12  S    
C77   C78   S    
C52   C53   S    
C155  H198  S    
C253  O79   S    
C164  C165  S    
C187  O30   A    
C42   H251  S    
C104  H80   S    
C235  O8    A    
C215  O18   A    
C213  O2    A    
C123  C125  S    
C15   C252  A    
C116  H106  S    
C100  H71   S    
C121  H119  S    
C12   C250  A    
C159  H206  S    
C65   O60   S    
C53   H279  S    
C197  O84   S    
C224  C234  S    
C24   C29   S    
C176  O54   S    
C124  O49   S    
C115  H103  S    
C143  O86   S    
C210  O11   A    
C60   H293  S    
O67   Zn6   S    
O38   Zn3   S    
C7    C244  A    
C250  O75   S    
C1    O1    A    
C151  C152  S    
C145  H176  S    
C13   C28   S    
C70   C71   S    
C88   H44   S    
O42   Zn4   S    
C5    C242  A    
C48   H263  S    
C170  O95   S    
C186  C222  S    
C80   H22   S    
C194  C229  A    
C108  H89   S    
O16   Zn6   S    
C157  O52   S    
C169  H229  S    
C97   C98   S    
C75   H12   S    
O3    Zn10  S    
C127  H131  S    
C58   H290  S    
C84   C85   S    
C93   O70   S    
C187  O32   A    
C125  H127  S    
C117  H107  S    
C86   C87   S    
C92   H52   S    
C160  O92   S    
C93   H53   S    
C180  O23   A    
C103  H77   S    
C195  C230  A    
C61   O58   S    
C162  H213  S    
C172  H238  S    
C144  H173  S    
O6    Zn11  S    
C6    C19   A    
C212  O14   A    
C240  O65   S    
C90   C194  A    
C150  H185  S    
C50   C51   S    
O41   Zn4   S    
C153  H193  S    
O12   Zn5   S    
C140  C141  S    
C119  H111  S    
C121  C122  S    
C177  O55   S    
C63   H302  S    
C48   O51   S    
C110  H95   S    
C174  H243  S    
C48   C49   S    
C133  C134  S    
C56   O55   S    
C150  O88   S    
O13   Zn7   S    
C28   C241  A    
C8    H310  S    
C131  C132  S    
C107  H87   S    
C166  O94   S    
C202  C232  S    
C101  C221  A    
C208  O95   S    
C65   H307  S    
C117  H108  S    
C44   H257  S    
C188  O40   A    
C77   H18   S    
C224  O3    A    
C60   H294  S    
C153  H194  S    
C67   H313  S    
C78   H21   S    
C148  H181  S    
C190  O38   A    
C216  O19   A    
C214  O15   A    
C95   H60   S    
C149  H184  S    
C37   H135  S    
C133  H147  S    
C18   C255  A    
C206  O93   S    
C86   H38   S    
C109  O75   S    
C106  H84   S    
C39   H201  S    
C209  C236  A    
C95   H59   S    
C255  H112  S    
C109  C110  S    
C43   O49   S    
C158  H203  S    
C13   C46   T    
C23   C211  S    
C51   H271  S    
C76   H16   S    
C118  H109  S    
C136  H152  S    
C29   C244  A    
O32   Zn2   S    
C191  O34   A    
C50   O52   S    
C58   H287  S    
C201  O88   S    
C151  H188  S    
C9    C247  A    
C113  C222  A    
C61   H297  S    
C138  C139  S    
C112  C229  S    
C245  O71   S    
C192  O41   A    
C109  H93   S    
C124  C221  A    
C70   H318  S    
C122  H120  S    
C7    C20   A    
C103  C104  S    
C106  H85   S    
C103  H76   S    
C217  O22   A    
C52   H274  S    
O36   Zn3   S    
C108  H91   S    
C114  H100  S    
C171  H234  S    
C184  O27   A    
C169  H231  S    
C36   H101  S    
C126  H130  S    
C132  H145  S    
C171  C172  S    
C68   C246  T    
C93   C94   S    
C30   C245  A    
C128  H134  S    
C34   H79   S    
C138  H158  S    
C204  O91   S    
C163  C164  S    
C214  O17   A    
C47   H260  S    
C61   H296  S    
C135  C198  A    
C81   C82   S    
C109  H92   S    
C187  C219  S    
C173  C174  S    
C116  H104  S    
C122  H121  S    
C176  C225  A    
C180  C230  S    
C178  O57   S    
C94   H56   S    
C30   C35   S    
C163  H217  S    
C164  H219  S    
C173  O96   S    
C42   H249  S    
C203  C233  A    
O20   Zn10  S    
C55   H284  S    
O4    Zn11  S    
C9    C22   A    
C178  C205  A    
C32   C250  A    
C155  H199  S    
C168  C201  A    
C3    C18   A    
C19   C216  S    
C146  C199  A    
C33   C251  A    
C118  C119  S    
C126  H128  S    
C38   H179  S    
C4    C19   A    
C84   H33   S    
C38   H157  S    
C41   O48   S    
C99   O72   S    
C159  H207  S    
C28   C243  A    
C161  H210  S    
C141  H165  S    
C162  H215  S    
C70   O62   S    
C39   O47   S    
C179  C206  A    
C152  H192  S    
C136  H153  S    
C31   C247  A    
C167  H228  S    
C25   C210  S    
C147  H177  S    
C166  H225  S    
C82   H27   S    
C235  O4    A    
C96   O71   S    
O7    Zn10  S    
C24   C35   T    
C244  O70   S    
C74   C75   S    
C174  H242  S    
C190  C227  S    
C45   H258  S    
C129  H137  S    
C148  C149  S    
C141  H164  S    
C188  C225  S    
C112  O56   A    
C51   H273  S    
C134  C136  S    
C114  H99   S    
C111  H98   S    
C31   C46   S    
C97   H64   S    
C47   H261  S    
C67   C69   S    
C146  O51   S    
C38   H168  S    
C41   H246  S    
C64   H304  S    
C62   H300  S    
C99   C100  S    
C196  C231  A    
C81   H26   S    
C107  C108  S    
C96   C97   S    
C100  C102  S    
C8    C21   A    
C102  H74   S    
C160  H209  S    
C198  O85   S    
C127  O81   S    
C99   H70   S    
C200  C231  A    
C91   H48   S    
C72   H4    S    
C157  C222  A    
C189  O43   A    
C119  H114  S    
C6    C243  A    
C10   C248  A    
C146  C219  A    
C4    C241  A    
C137  H155  S    
C69   H317  S    
C179  O58   S    
C40   H212  S    
O9    Zn1   S    
C105  H82   S    
C193  C228  A    
C80   C81   S    
C170  H232  S    
C8    C245  A    
C55   H282  S    
C63   O59   S    
C163  O93   S    
C183  C227  A    
C185  O28   A    
C183  C209  A    
C137  C138  S    
C32   C252  A    
C11   C22   A    
O39   Zn3   S    
C155  H197  S    
C160  C161  S    
C132  H143  S    
C33   C253  A    
C101  C195  A    
C148  H180  S    
C141  C142  S    
O78   Zn5   S    
C74   H10   S    
C69   H316  S    
C86   O68   S    
C125  C126  S    
C196  O83   S    
C40   H235  S    
C130  H139  S    
C100  H72   S    
C15   C23   A    
C121  H118  S    
C165  H222  S    
C159  H205  S    
C103  O73   S    
C175  H244  S    
C170  H233  S    
C133  H148  S    
C143  H171  S    
C185  O35   A    
C139  H161  S    
C5    H277  S    
C98   H66   S    
C65   C66   S    
C120  H116  S    
O17   Zn5   S    
C21   C214  S    
C115  H102  S    
C59   H292  S    
C153  C154  S    
C134  H149  S    
C140  H162  S    
C48   H264  S    
C113  O48   S    
C127  C128  S    
