data_mof_unit_14409.cif
_audit_creation_date              2012-12-11T14:15:25-0500
_audit_creation_method            fapswitch 2.2
_symmetry_space_group_name_H-M    P1
_symmetry_Int_Tables_number       1
_space_group_crystal_system       triclinic
_cell_length_a                    11.161788
_cell_length_b                    12.720228
_cell_length_c                    23.543829
_cell_angle_alpha                 90.31932
_cell_angle_beta                  96.796126
_cell_angle_gamma                 68.589508
_cell_volume                      3087.64924015

loop_
_atom_site_label
_atom_site_type_symbol
_atom_type_description
_atom_site_fract_x
_atom_site_fract_y
_atom_site_fract_z
_atom_type_partial_charge
C1    C     C_R   0.149363 0.616912 0.428872 0.542705
C2    C     C_R   0.634612 0.571629 0.314723 -0.111051
C3    C     C_R   0.707555 0.729867 0.318958 -0.133486
C4    C     C_R   0.693225 0.738073 0.259585 0.030189
C5    C     C_R   0.660251 0.655568 0.227837 0.040227
C6    C     C_R   0.661503 0.657852 0.169127 -0.123144
C7    C     C_R   0.694137 0.835944 0.171613 -0.132216
C8    C     C_R   0.714294 0.825726 0.231317 -0.136764
C9    C     C_1   0.235897 0.162352 0.122915 -0.005051
C10   C     C_2   0.181182 0.233469 0.226283 -0.128575
C11   C     C_2   0.155612 0.166171 0.262904 -0.119732
C12   C     C_R   0.747626 0.605227 0.404602 0.541387
C13   C     C_1   0.132436 0.200140 0.320538 -0.046766
C14   C     C_1   0.210606 0.197445 0.169543 -0.052962
C15   C     C_1   0.115925 0.233063 0.368273 -0.001730
C16   C     C_1   0.168344 0.749099 0.123726 -0.010664
C17   C     C_2   0.145431 0.685608 0.227830 -0.126475
C18   C     C_2   0.235022 0.681207 0.272089 -0.135352
C19   C     C_1   0.217208 0.655339 0.329521 -0.056345
C20   C     C_1   0.156949 0.719014 0.170738 -0.054316
C21   C     C_1   0.193720 0.636154 0.376336 -0.004695
C22   C     C_1   0.619749 0.762708 0.863315 -0.009311
C23   C     C_R   0.101038 0.282696 0.423277 0.545620
C24   C     C_2   0.674038 0.745734 0.756443 0.024301
C25   C     C_2   0.624102 0.683714 0.721157 -0.093513
C26   C     C_1   0.655539 0.660105 0.663546 0.019682
C27   C     C_1   0.647310 0.754005 0.815106 -0.095330
C28   C     C_1   0.691409 0.636500 0.617213 0.037446
C29   C     C_R   0.194600 0.181192 0.854930 0.015306
C30   C     C_R   0.105239 0.239719 0.643074 0.022177
C31   C     C_R   0.034980 0.145727 0.713532 -0.130496
C32   C     C_R   0.035537 0.173329 0.656428 -0.132229
C33   C     C_R   0.168259 0.283467 0.686293 -0.111046
C34   C     C_R   0.151595 0.616907 0.590218 0.545285
C35   C     C_R   0.167506 0.257366 0.742899 0.044883
C36   C     C_R   0.102773 0.185878 0.756835 0.044310
C37   C     C_R   0.114126 0.150362 0.813448 -0.124613
C38   C     C_R   0.250053 0.258999 0.841619 -0.128154
C39   C     C_R   0.235281 0.298106 0.785577 -0.130688
C40   C     C_R   0.137875 0.760996 0.847159 0.012529
C41   C     C_R   0.200748 0.639532 0.647153 0.007023
C42   C     C_R   0.311379 0.564902 0.741273 -0.151767
C43   C     C_R   0.297538 0.553863 0.682144 -0.146593
C44   C     C_R   0.128018 0.740270 0.670755 -0.096665
C45   C     C_R   0.749169 0.602211 0.565667 0.545453
C46   C     C_R   0.133069 0.747376 0.729337 0.060773
C47   C     C_R   0.224454 0.658808 0.765274 0.045021
C48   C     C_R   0.226512 0.666219 0.824322 -0.123327
C49   C     C_R   0.042270 0.844574 0.810636 -0.145676
C50   C     C_R   0.042026 0.839047 0.752112 -0.126491
C51   C     C_R   0.265905 0.109826 0.069460 0.542599
C52   C     C_R   0.599964 0.774512 0.081386 0.543220
C53   C     C_R   0.189829 0.787665 0.069831 0.545885
C54   C     C_R   0.240577 0.115329 0.908039 0.544034
C55   C     C_R   0.572944 0.777142 0.918003 0.551588
C56   C     C_R   0.099630 0.280071 0.585431 0.541772
C57   C     C_R   0.165688 0.788760 0.905934 0.543690
C58   C     C_R   0.663854 0.753063 0.140369 0.006244
C59   C     C_R   0.687030 0.641707 0.346305 -0.007746
C60   C     C_R   0.622579 0.575276 0.255062 -0.012995
Cr1   Cr    Cr6+3 0.189770 0.415650 0.511620 1.027761
Cr2   Cr    Cr6+3 0.930400 0.667320 0.496770 1.041568
Cr3   Cr    Cr6+3 0.879870 0.417010 0.491650 1.026011
Cr4   Cr    Cr6+3 0.149500 0.973980 0.985330 1.023282
Cr5   Cr    Cr6+3 0.457000 0.976510 0.994660 1.026493
Cr6   Cr    Cr6+3 0.411170 0.724270 0.995270 1.016259
H1    H     H_    0.646192 0.590723 0.144741 0.130383
H2    H     H_    0.060148 0.667463 0.234568 0.142177
H3    H     H_    0.564547 0.642298 0.737323 0.111153
H4    H     H_    0.071516 0.089908 0.824058 0.121890
H5    H     H_    0.311204 0.283808 0.873883 0.123436
H6    H     H_    0.983393 0.092347 0.723812 0.101389
H7    H     H_    0.283473 0.354166 0.775140 0.105860
H8    H     H_    0.982610 0.142978 0.622918 0.118743
H9    H     H_    0.217122 0.339309 0.675863 0.127945
H10   H     H_    0.300564 0.601367 0.852271 0.119836
H11   H     H_    0.696713 0.910099 0.150223 0.131957
H12   H     H_    0.972986 0.918742 0.827138 0.127313
H13   H     H_    0.384087 0.497427 0.768228 0.100891
H14   H     H_    0.970029 0.906081 0.724642 0.123747
H15   H     H_    0.356164 0.475908 0.664381 0.128242
H16   H     H_    0.055703 0.808519 0.643934 0.145504
H17   H     H_    0.738806 0.889556 0.255334 0.112471
H18   H     H_    0.613397 0.508171 0.337359 0.136933
H19   H     H_    0.743531 0.786879 0.343581 0.129858
H20   H     H_    0.154877 0.084153 0.250180 0.139034
H21   H     H_    0.182699 0.315183 0.239160 0.132457
H22   H     H_    0.319806 0.700351 0.265648 0.143082
O1    O     O_R   0.196340 0.303200 0.448500 -0.505410
O2    O     O_R   0.811960 0.658090 0.547150 -0.473102
O3    O     O_R   0.757930 0.506140 0.547110 -0.517360
O4    O     O_R   0.988670 0.321620 0.556040 -0.497266
O5    O     O_3   0.000020 0.499990 0.500010 -0.250306
O6    O     O_R   0.113660 0.883270 0.047820 -0.504957
O7    O     O_R   0.186930 0.068530 0.043990 -0.494529
O8    O     O_R   0.377770 0.089040 0.054220 -0.513343
O9    O     O_R   0.562800 0.872960 0.056970 -0.498052
O10   O     O_R   0.555390 0.700940 0.062700 -0.526243
O11   O     O_R   0.295020 0.731920 0.049950 -0.498519
O12   O     O_R   0.199310 0.519670 0.454880 -0.495433
O13   O     O_R   0.094290 0.884230 0.921550 -0.522866
O14   O     O_R   0.168980 0.069410 0.926940 -0.507044
O15   O     O_R   0.358400 0.089990 0.927950 -0.513423
O16   O     O_R   0.544850 0.873850 0.939920 -0.492200
O17   O     O_R   0.536020 0.701900 0.936430 -0.510722
O18   O     O_R   0.277070 0.732810 0.932890 -0.503912
O19   O     O_3   0.339220 0.891590 0.991750 -0.245842
O20   O     O_R   0.045660 0.691380 0.441680 -0.511655
O21   O     O_R   0.811930 0.659460 0.430950 -0.504930
O22   O     O_R   0.757900 0.507620 0.421760 -0.520793
O23   O     O_R   0.988630 0.322990 0.439840 -0.495538
O24   O     O_R   0.196380 0.301720 0.573850 -0.518563
O25   O     O_R   0.199350 0.518300 0.571080 -0.507049
O26   O     O_R   0.045700 0.689900 0.567030 -0.507845
C61   C     C_2   0.752189 0.809731 0.738760 0.245002
H23   H     H_    0.783081 0.861000 0.769751 0.096535
O27   O     O_2   0.781430 0.807913 0.690316 -0.512994
C62   C     C_3   0.570388 0.495701 0.220184 -0.264886
C63   C     C_3   0.522839 0.418701 0.254146 -0.307208
C64   C     C_3   0.462871 0.351278 0.214148 -0.440659
H24   H     H_    0.376350 0.409215 0.186572 0.160434
H25   H     H_    0.534641 0.298540 0.186723 0.158630
H26   H     H_    0.432220 0.294811 0.239863 0.151772
H27   H     H_    0.605838 0.358145 0.282516 0.165465
H28   H     H_    0.448284 0.470205 0.280696 0.171729
H29   H     H_    0.487623 0.548408 0.188886 0.156169
H30   H     H_    0.648193 0.440340 0.196142 0.143853

loop_
_geom_bond_atom_site_label_1
_geom_bond_atom_site_label_2
_ccdc_geom_bond_type
C1    C21   S    
C3    H19   S    
C8    H17   S    
C6    C58   A    
C2    H18   S    
C35   C36   A    
C9    C51   S    
C24   C27   S    
Cr6   O19   S    
C4    C8    A    
C12   O22   A    
C7    C8    A    
C63   H27   S    
C53   O11   A    
C34   O25   A    
Cr4   O14   S    
C55   O17   A    
C36   C37   A    
C19   C21   T    
Cr2   O26   S    
C44   H16   S    
C32   H8    S    
C5    C6    A    
Cr1   O5    S    
Cr2   O20   S    
C29   C54   S    
C11   H20   S    
C40   C49   A    
C52   O9    A    
C17   C20   S    
C49   H12   S    
C18   C19   S    
C48   H10   S    
C62   C63   S    
C46   C47   A    
C12   C59   S    
C33   H9    S    
Cr5   O8    S    
C31   C32   A    
C44   C46   A    
C61   O27   D    
C29   C38   A    
C23   O1    A    
C60   C62   S    
C7    C58   A    
C30   C33   A    
C64   H26   S    
C51   O8    A    
C7    H11   S    
C15   C23   S    
C57   O18   A    
C42   H13   S    
C37   H4    S    
C41   C43   A    
C34   C41   S    
Cr6   O18   S    
C1    O12   A    
C12   O21   A    
Cr1   O1    S    
Cr4   O13   S    
C10   H21   S    
C28   C45   S    
C54   O15   A    
C24   C25   D    
C10   C14   S    
C2    C59   A    
C25   C26   S    
C30   C56   S    
C55   O16   A    
C18   H22   S    
Cr6   O11   S    
Cr3   O4    S    
C35   C39   A    
C9    C14   T    
C47   C48   A    
C16   C20   T    
C17   C18   D    
C45   O2    A    
C52   C58   S    
C63   H28   S    
C31   H6    S    
C22   C27   T    
C13   C15   T    
Cr1   O25   S    
C43   H15   S    
C41   C44   A    
Cr1   O12   S    
C25   H3    S    
C62   H30   S    
Cr5   O15   S    
Cr6   O17   S    
C29   C37   A    
C3    C4    A    
C23   O23   A    
C64   H24   S    
C64   H25   S    
Cr4   O19   S    
C40   C48   A    
C46   C50   A    
C38   H5    S    
C6    H1    S    
C17   H2    S    
C40   C57   S    
C5    C60   A    
C53   O6    A    
C54   O14   A    
Cr4   O7    S    
C4    C5    A    
C50   H14   S    
C63   C64   S    
C22   C55   S    
C34   O26   A    
C57   O13   A    
Cr3   O5    S    
C26   C28   T    
Cr6   O10   S    
Cr3   O22   S    
Cr4   O6    S    
C30   C32   A    
C11   C13   S    
C38   C39   A    
Cr2   O21   S    
Cr2   O2    S    
C52   O10   A    
C33   C35   A    
Cr5   O19   S    
C2    C60   A    
C42   C47   A    
C39   H7    S    
Cr3   O23   S    
C45   O3    A    
C10   C11   D    
C1    O20   A    
Cr5   O9    S    
C56   O4    A    
C24   C61   S    
C49   C50   A    
C42   C43   A    
Cr2   O5    S    
Cr3   O3    S    
C31   C36   A    
C62   H29   S    
Cr5   O16   S    
Cr1   O24   S    
C56   O24   A    
C61   H23   S    
C51   O7    A    
C16   C53   S    
C3    C59   A    
