data_mof_unit_17992.cif
_audit_creation_date              2012-12-11T17:16:59-0500
_audit_creation_method            fapswitch 2.2
_symmetry_space_group_name_H-M    P1
_symmetry_Int_Tables_number       1
_space_group_crystal_system       triclinic
_cell_length_a                    6.947635
_cell_length_b                    13.37622
_cell_length_c                    14.704643
_cell_angle_alpha                 99.081531
_cell_angle_beta                  90.100488
_cell_angle_gamma                 90.035822
_cell_volume                      1349.41529687

loop_
_atom_site_label
_atom_site_type_symbol
_atom_type_description
_atom_site_fract_x
_atom_site_fract_y
_atom_site_fract_z
_atom_type_partial_charge
O1    O     O_R   0.354890 0.151580 0.148210 -0.545604
O2    O     O_R   0.645110 0.848420 0.851790 -0.539335
O3    O     O_R   0.682370 0.152980 0.336770 -0.550339
O4    O     O_R   0.317630 0.847020 0.663230 -0.550827
O5    O     O_R   0.854980 0.348430 0.351800 -0.539907
O6    O     O_R   0.145020 0.651570 0.648200 -0.540592
C1    C     C_R   0.513900 0.130327 0.365179 0.733172
C2    C     C_R   0.485898 0.868567 0.633931 0.719255
O7    O     O_R   0.684450 0.139580 0.148000 -0.535325
O8    O     O_R   0.315550 0.860420 0.852000 -0.536635
O9    O     O_R   0.857080 0.334940 0.161680 -0.517172
O10   O     O_R   0.142920 0.665060 0.838320 -0.516644
C3    C     C_R   0.515491 0.112768 0.113989 0.735298
C4    C     C_R   0.484523 0.887284 0.885972 0.742857
O11   O     O_R   0.352790 0.165070 0.338330 -0.529931
O12   O     O_R   0.647210 0.834930 0.661670 -0.532357
O13   O     O_3   0.522170 0.314120 0.254710 -0.363695
O14   O     O_3   0.477830 0.685880 0.745290 -0.363370
V1    V     V_3+5 0.796120 0.238110 0.249130 1.467678
V2    V     V_3+5 0.203880 0.761890 0.750870 1.458489
O15   O     O_R   0.186930 0.347040 0.163240 -0.537884
O16   O     O_R   0.813070 0.652960 0.836760 -0.537231
C5    C     C_R   0.017927 0.368055 0.133459 0.756904
C6    C     C_R   0.982064 0.631984 0.866574 0.759949
O17   O     O_R   0.184850 0.360440 0.352010 -0.538131
O18   O     O_R   0.815150 0.639560 0.647990 -0.539663
C7    C     C_R   0.015929 0.387263 0.385992 0.736440
C8    C     C_R   0.984074 0.612713 0.614025 0.733352
V3    V     V_3+5 0.296410 0.261900 0.250880 1.467717
V4    V     V_3+5 0.703590 0.738100 0.749120 1.464905
O19   O     O_3   0.020490 0.185890 0.245290 -0.378234
O20   O     O_3   0.979510 0.814110 0.754710 -0.378279
C9    C     C_1   0.005262 0.466868 0.466355 -0.184760
C10   C     C_1   0.994741 0.533093 0.533672 -0.186994
C11   C     C_3   0.117837 0.577254 0.024244 0.388794
C12   C     C_3   0.882115 0.422835 0.975832 0.389063
C13   C     C_3   0.946428 0.551749 0.083970 -0.408514
C14   C     C_3   0.053526 0.448339 0.916110 -0.406416
H1    H     H_    0.902536 0.594885 0.151506 0.145193
H2    H     H_    0.097402 0.405218 0.848569 0.147300
C15   C     C_3   0.007153 0.438303 0.063628 -0.203252
C16   C     C_3   0.992808 0.561781 0.936446 -0.203919
C17   C     C_3   0.177035 0.465564 0.005065 0.380034
C18   C     C_3   0.822921 0.534525 0.995011 0.380804
C19   C     C_3   0.405861 0.954372 0.424136 0.273078
C20   C     C_3   0.592635 0.042019 0.573451 0.255911
C21   C     C_3   0.581929 0.910627 0.467186 0.265421
C22   C     C_3   0.416919 0.086226 0.530463 0.300717
C23   C     C_3   0.492752 0.938039 0.563480 -0.182833
C24   C     C_3   0.506159 0.058798 0.433971 -0.148760
C25   C     C_3   0.312172 0.982219 0.520367 -0.265814
C26   C     C_3   0.686595 0.014297 0.477303 -0.279674
H3    H     H_    0.159626 0.968612 0.537225 0.144425
H4    H     H_    0.839425 0.026735 0.460264 0.145294
C27   C     C_1   0.504876 0.033147 0.033651 -0.180811
C28   C     C_1   0.495129 0.966896 0.966322 -0.182881
O21   O     O_3   0.244613 0.658304 0.048357 -0.633769
H5    H     H_    0.299171 0.649038 0.108798 0.293845
O22   O     O_3   0.755335 0.341785 0.951716 -0.633238
H6    H     H_    0.700822 0.351027 0.891260 0.296763
O23   O     O_3   0.364588 0.430180 0.012082 -0.583206
H7    H     H_    0.357929 0.356339 0.989861 0.297794
O24   O     O_3   0.635375 0.569916 0.987992 -0.583140
H8    H     H_    0.642045 0.643756 0.010222 0.297417
N1    N     N_2   0.670808 0.813107 0.436905 -0.510999
H9    H     H_    0.582839 0.752573 0.443462 0.242204
C29   C     C_3   0.774145 0.801501 0.350691 -0.535335
H10   H     H_    0.871389 0.735110 0.346387 0.189950
H11   H     H_    0.863357 0.869311 0.345656 0.218503
H12   H     H_    0.671865 0.787624 0.292099 0.194266
N2    N     N_2   0.333169 0.184835 0.561563 -0.520446
H13   H     H_    0.431756 0.240145 0.586266 0.257222
C30   C     C_3   0.156762 0.186465 0.613595 -0.535864
H14   H     H_    0.112632 0.266045 0.637466 0.194147
H15   H     H_    0.176304 0.147626 0.674372 0.189569
H16   H     H_    0.040609 0.148690 0.568980 0.215403
N3    N     N_2   0.299346 0.901350 0.346261 -0.522701
H17   H     H_    0.272810 0.826530 0.351111 0.253159
C31   C     C_3   0.355740 0.919070 0.255539 -0.541527
H18   H     H_    0.305764 0.855535 0.202839 0.197708
H19   H     H_    0.514350 0.926129 0.250117 0.175821
H20   H     H_    0.286311 0.989154 0.240470 0.217953
N4    N     N_2   0.701704 0.087570 0.653491 -0.528666
H21   H     H_    0.823442 0.046502 0.663300 0.256957
C32   C     C_3   0.593659 0.116791 0.737415 -0.532677
H22   H     H_    0.694506 0.142112 0.795168 0.202976
H23   H     H_    0.508216 0.052147 0.754531 0.172748
H24   H     H_    0.497443 0.181154 0.730696 0.210897

loop_
_geom_bond_atom_site_label_1
_geom_bond_atom_site_label_2
_ccdc_geom_bond_type
C4    C28   S    
C27   C28   T    
C6    C16   S    
C30   H14   S    
O4    C2    A    
C12   O22   S    
V1    O19   S    
C21   C23   S    
N3    H17   S    
C7    C9    S    
C20   C23   S    
O9    V1    S    
C11   C13   S    
C14   C16   S    
O3    C1    A    
C19   C25   S    
O12   V4    S    
C20   C26   S    
O13   V3    S    
C11   C16   S    
O7    C3    A    
O5    C7    A    
O7    V1    S    
C22   C25   S    
O6    C8    A    
O8    V2    S    
N1    C29   S    
C24   C26   S    
O3    V1    S    
O14   V4    S    
V4    O20   S    
C11   C17   S    
C15   C17   S    
C19   C21   S    
C8    C10   S    
O22   H6    S    
C2    O12   A    
C30   H15   S    
C12   C15   S    
C16   C18   S    
C26   H4    S    
O11   V3    S    
N3    C31   S    
C18   O24   S    
O17   V3    S    
C20   C22   S    
C32   H23   S    
C29   H10   S    
O8    C4    A    
C31   H19   S    
C1    O11   A    
C23   C25   S    
C32   H22   S    
O15   V3    S    
C31   H18   S    
C29   H11   S    
N4    H21   S    
O10   V2    S    
O1    V3    S    
C9    C10   T    
C22   C24   S    
N4    C32   S    
O18   V4    S    
O15   C5    A    
C30   H16   S    
O16   C6    A    
C12   C18   S    
O1    C3    A    
C22   N2    S    
C17   O23   S    
N2    C30   S    
V2    O20   S    
C32   H24   S    
O16   V4    S    
C1    C24   S    
O24   H8    S    
C31   H20   S    
C21   C26   S    
O5    V1    S    
O17   C7    A    
O6    V2    S    
O10   C6    A    
O18   C8    A    
C5    C15   S    
C11   O21   S    
O2    V4    S    
C29   H12   S    
C13   C18   S    
C12   C14   S    
N2    H13   S    
V3    O19   S    
C14   H2    S    
O21   H5    S    
C19   C24   S    
O9    C5    A    
O13   V1    S    
O14   V2    S    
C13   C15   S    
O23   H7    S    
O2    C4    A    
C20   N4    S    
O4    V2    S    
C14   C17   S    
C13   H1    S    
N1    H9    S    
C19   N3    S    
C25   H3    S    
C2    C23   S    
C21   N1    S    
C3    C27   S    
