data_mof_unit_30908.cif
_audit_creation_date              2013-03-05T15:48:14-0500
_audit_creation_method            fapswitch 2.2
_symmetry_space_group_name_H-M    P1
_symmetry_Int_Tables_number       1
_space_group_crystal_system       triclinic
_cell_length_a                    15.708598
_cell_length_b                    15.698736
_cell_length_c                    34.448357
_cell_angle_alpha                 90.148089
_cell_angle_beta                  90.193762
_cell_angle_gamma                 120.109156
_cell_volume                      7348.77094121

loop_
_atom_site_label
_atom_site_type_symbol
_atom_site_description
_atom_site_fract_x
_atom_site_fract_y
_atom_site_fract_z
_atom_type_partial_charge
O1    O     O_R   0.498680 0.159540 0.541860 -0.471529
O2    O     O_R   0.840460 0.339140 0.541860 -0.437571
O3    O     O_R   0.660860 0.501320 0.541860 -0.461016
O4    O     O_R   0.159540 0.498680 0.041860 -0.466028
O5    O     O_R   0.339140 0.840460 0.041860 -0.443443
O6    O     O_R   0.501320 0.660860 0.041860 -0.451681
O7    O     O_R   0.532760 0.358060 0.540030 -0.494248
O8    O     O_R   0.641940 0.174700 0.540030 -0.465919
O9    O     O_R   0.825300 0.467240 0.540030 -0.502785
O10   O     O_R   0.358060 0.532760 0.040030 -0.501911
O11   O     O_R   0.174700 0.641940 0.040030 -0.463498
O12   O     O_R   0.467240 0.825300 0.040030 -0.494813
C1    C     C_R   0.577676 0.442572 0.554636 0.594557
C2    C     C_R   0.557840 0.134745 0.554428 0.598759
C3    C     C_R   0.863076 0.421740 0.555239 0.601943
C4    C     C_R   0.441777 0.578214 0.055077 0.601730
C5    C     C_R   0.134747 0.557642 0.054384 0.601781
C6    C     C_R   0.422088 0.863940 0.054847 0.608908
O13   O     O_R   0.498590 0.161190 0.456930 -0.515284
O14   O     O_R   0.838810 0.337400 0.456930 -0.489263
O15   O     O_R   0.662600 0.501410 0.456930 -0.483628
O16   O     O_R   0.161190 0.498590 0.956930 -0.519234
O17   O     O_R   0.337400 0.838810 0.956930 -0.489863
O18   O     O_R   0.501410 0.662600 0.956930 -0.486919
O19   O     O_R   0.532680 0.359580 0.461300 -0.529359
O20   O     O_R   0.640420 0.173100 0.461300 -0.473143
O21   O     O_R   0.826900 0.467320 0.461300 -0.517421
O22   O     O_R   0.359580 0.532680 0.961300 -0.532371
O23   O     O_R   0.173100 0.640420 0.961300 -0.472941
O24   O     O_R   0.467320 0.826900 0.961300 -0.519201
C7    C     C_R   0.577642 0.442161 0.445347 0.548827
C8    C     C_R   0.581601 0.188539 0.440512 0.571491
C9    C     C_R   0.864348 0.422229 0.445542 0.552934
C10   C     C_R   0.442499 0.577076 0.945765 0.548875
C11   C     C_R   0.189248 0.581971 0.940629 0.571107
C12   C     C_R   0.422010 0.864099 0.945386 0.550933
Cr1   Cr    Cr6+3 0.522350 0.263930 0.500020 1.024009
Cr2   Cr    Cr6+3 0.736070 0.258420 0.500020 1.073502
Cr3   Cr    Cr6+3 0.741580 0.477650 0.500020 1.028624
Cr4   Cr    Cr6+3 0.263930 0.522350 0.000020 1.019089
Cr5   Cr    Cr6+3 0.258420 0.736070 0.000020 1.075106
Cr6   Cr    Cr6+3 0.477650 0.741580 0.000020 1.033452
O25   O     O_3   0.666667 0.333333 0.499990 -0.296640
O26   O     O_3   0.333333 0.666667 0.999990 -0.295601
N1    N     N_R   0.061474 0.610729 0.761403 -0.124130
N2    N     N_R   0.569033 0.512790 0.771396 -0.118304
N3    N     N_R   0.454063 0.021835 0.767103 -0.122396
N4    N     N_R   0.538289 0.006793 0.266331 -0.118695
N5    N     N_R   0.421470 0.416271 0.266200 -0.229260
N6    N     N_R   0.044867 0.474744 0.270015 -0.118295
N7    N     N_R   0.037873 0.597898 0.723916 -0.229364
N8    N     N_R   0.574437 0.512271 0.732932 -0.206654
N9    N     N_R   0.456414 0.027970 0.728614 -0.221569
N10   N     N_R   0.525054 0.984093 0.228842 -0.200193
N11   N     N_R   0.417970 0.420476 0.227693 -0.234150
N12   N     N_R   0.053089 0.477399 0.231606 -0.205694
C13   C     C_R   0.925819 0.460010 0.590437 -0.003509
C14   C     C_R   0.542552 0.466855 0.590641 0.000044
C15   C     C_R   0.534035 0.070232 0.588928 -0.002427
C16   C     C_R   0.459499 0.926002 0.090062 0.001953
C17   C     C_R   0.465355 0.542248 0.091058 -0.000615
C18   C     C_R   0.072867 0.533891 0.089539 -0.005477
C19   C     C_R   0.930477 0.392260 0.615780 0.326508
C20   C     C_R   0.605490 0.555085 0.610513 0.321136
C21   C     C_R   0.439700 0.027884 0.605298 0.315294
C22   C     C_R   0.390954 0.921777 0.117273 0.331907
C23   C     C_R   0.542015 0.610886 0.115020 0.321619
C24   C     C_R   0.039427 0.442449 0.107677 0.319189
C25   C     C_R   0.981572 0.423148 0.650959 0.122218
C26   C     C_R   0.588073 0.567749 0.649266 0.118039
C27   C     C_R   0.423082 0.990567 0.643071 0.109181
C28   C     C_R   0.422143 0.972356 0.152499 0.128907
C29   C     C_R   0.556712 0.585373 0.152127 0.118853
C30   C     C_R   0.009801 0.429260 0.146441 0.117601
C31   C     C_R   0.031682 0.523778 0.660902 -0.010161
C32   C     C_R   0.504072 0.493695 0.668059 -0.009959
C33   C     C_R   0.501439 0.995107 0.664713 0.004835
C34   C     C_R   0.523159 0.026002 0.161407 -0.013656
C35   C     C_R   0.497550 0.488021 0.165323 -0.013714
C36   C     C_R   0.009570 0.506820 0.166908 -0.008155
C37   C     C_R   0.032468 0.593599 0.634939 0.105684
C38   C     C_R   0.432779 0.411583 0.646557 0.098360
C39   C     C_R   0.592222 0.023408 0.646545 0.094147
C40   C     C_R   0.593369 0.035852 0.133652 0.097860
C41   C     C_R   0.427402 0.415377 0.140080 0.108368
C42   C     C_R   0.028103 0.593266 0.147160 0.102231
C43   C     C_R   0.978441 0.561783 0.599816 0.083830
C44   C     C_R   0.451612 0.399137 0.607579 0.087298
C45   C     C_R   0.607487 0.057754 0.607815 0.084624
C46   C     C_R   0.561403 0.986777 0.097549 0.087566
C47   C     C_R   0.409646 0.442743 0.103132 0.085811
C48   C     C_R   0.057713 0.605986 0.107989 0.111401
N13   N     N_R   0.133402 0.523575 0.715203 -0.183084
N14   N     N_R   0.413893 0.483888 0.727935 -0.223028
N15   N     N_R   0.525014 0.926308 0.725405 -0.193452
N16   N     N_R   0.592041 0.150533 0.213464 -0.236650
N17   N     N_R   0.589762 0.506258 0.225437 -0.177453
N18   N     N_R   0.929802 0.518626 0.226309 -0.217577
N19   N     N_R   0.157269 0.536709 0.752722 -0.225696
N20   N     N_R   0.408199 0.483789 0.766471 -0.240755
N21   N     N_R   0.522826 0.920275 0.763935 -0.239466
N22   N     N_R   0.605018 0.173197 0.251150 -0.232909
N23   N     N_R   0.593367 0.502929 0.263912 -0.144061
N24   N     N_R   0.921788 0.516275 0.264755 -0.233938
C49   C     C_R   0.120330 0.579000 0.776672 0.363182
C50   C     C_R   0.485668 0.498119 0.788889 0.365802
C51   C     C_R   0.487809 0.968389 0.785595 0.363736
C52   C     C_R   0.577729 0.101510 0.278334 0.367214
C53   C     C_R   0.509366 0.459617 0.284984 0.368326
C54   C     C_R   0.979394 0.494606 0.287354 0.366391
C55   C     C_R   0.072680 0.553385 0.700244 0.344432
C56   C     C_R   0.497317 0.498285 0.710508 0.362916
C57   C     C_R   0.491604 0.980179 0.707036 0.388696
C58   C     C_R   0.551392 0.055352 0.201843 0.348807
C59   C     C_R   0.501984 0.466310 0.206628 0.345962
C60   C     C_R   0.995670 0.499183 0.209111 0.364366
C61   C     C_R   0.068978 0.582898 0.845203 0.388652
C62   C     C_R   0.564814 0.566951 0.853275 0.391684
C63   C     C_R   0.425939 0.986613 0.850723 0.389745
C64   C     C_R   0.574359 0.054790 0.348113 0.386679
C65   C     C_R   0.586352 0.547564 0.346608 0.390701
C66   C     C_R   0.995168 0.432334 0.352528 0.391440
C67   C     C_R   0.082636 0.579799 0.885367 0.160086
C68   C     C_R   0.555904 0.584548 0.892642 0.150058
C69   C     C_R   0.412599 0.965185 0.890598 0.154635
C70   C     C_R   0.570423 0.072892 0.387744 0.162075
C71   C     C_R   0.599815 0.546977 0.386844 0.149193
C72   C     C_R   0.970438 0.416836 0.392060 0.153268
C73   C     C_R   0.235501 0.581003 0.872923 -0.203210
C74   C     C_R   0.380560 0.465824 0.888787 -0.197855
C75   C     C_R   0.521357 0.897088 0.886130 -0.186745
C76   C     C_R   0.587599 0.231645 0.371839 -0.203419
C77   C     C_R   0.464267 0.377562 0.388761 -0.192594
C78   C     C_R   0.898375 0.522120 0.386495 -0.185966
C79   C     C_R   0.220823 0.582237 0.833145 -0.179420
C80   C     C_R   0.389805 0.449694 0.849768 -0.192208
C81   C     C_R   0.534439 0.918748 0.846820 -0.190331
C82   C     C_R   0.590508 0.213005 0.332481 -0.179897
C83   C     C_R   0.449925 0.379821 0.348962 -0.190571
C84   C     C_R   0.923068 0.537095 0.347524 -0.188932
C85   C     C_R   0.137632 0.583161 0.818867 0.020265
C86   C     C_R   0.480773 0.503289 0.831318 0.022807
C87   C     C_R   0.483688 0.959551 0.828305 0.019587
C88   C     C_R   0.583002 0.124176 0.320157 0.020387
C89   C     C_R   0.514385 0.462622 0.327450 0.024074
C90   C     C_R   0.967781 0.489286 0.329786 0.021007
C91   C     C_R   0.166688 0.578527 0.899189 0.003196
C92   C     C_R   0.461426 0.538570 0.909714 -0.014991
C93   C     C_R   0.456410 0.914816 0.907895 -0.008355
C94   C     C_R   0.576873 0.162031 0.399545 0.005243
C95   C     C_R   0.543131 0.458349 0.407620 -0.018566
C96   C     C_R   0.916747 0.457953 0.408555 -0.007837
H1    H     H_    0.301974 0.584149 0.883337 0.126676
H2    H     H_    0.307835 0.427681 0.901492 0.154892
H3    H     H_    0.556688 0.859475 0.898744 0.163454
H4    H     H_    0.595195 0.301318 0.380771 0.124339
H5    H     H_    0.418588 0.309408 0.404077 0.155730
H6    H     H_    0.858089 0.555266 0.398530 0.164945
H7    H     H_    0.275159 0.583388 0.813532 0.171507
H8    H     H_    0.324703 0.398463 0.833539 0.158775
H9    H     H_    0.581286 0.899392 0.830583 0.167001
H10   H     H_    0.597194 0.267668 0.311698 0.164933
H11   H     H_    0.392807 0.314435 0.334606 0.154394
H12   H     H_    0.903263 0.583076 0.330860 0.169382
F1    F     F_    0.879878 0.294231 0.607706 -0.645131
F2    F     F_    0.686065 0.628323 0.592787 -0.660659
F3    F     F_    0.363764 0.024120 0.584870 -0.655113
F4    F     F_    0.292775 0.865684 0.110257 -0.637255
F5    F     F_    0.599320 0.705859 0.103726 -0.666835
F6    F     F_    0.039454 0.366899 0.088350 -0.652397
N25   N     N_2   0.981739 0.632506 0.573047 -0.509590
H13   H     H_    0.050601 0.693091 0.568972 0.277767
C97   C     C_3   0.904731 0.657221 0.576906 -0.213708
H14   H     H_    0.934816 0.731781 0.589784 0.124489
H15   H     H_    0.843308 0.603213 0.595305 0.191055
H16   H     H_    0.874967 0.657755 0.547708 0.188979
N26   N     N_2   0.376701 0.322394 0.584610 -0.503896
H17   H     H_    0.311340 0.322986 0.584094 0.262477
C98   C     C_3   0.362820 0.224929 0.590148 -0.198974
H18   H     H_    0.301644 0.182972 0.610688 0.138326
H19   H     H_    0.430913 0.228096 0.601270 0.177275
H20   H     H_    0.342730 0.185261 0.561922 0.200572
N27   N     N_2   0.695802 0.079953 0.587867 -0.445769
H21   H     H_    0.757293 0.100931 0.604805 0.296534
C99   C     C_3   0.683543 0.008884 0.558261 -0.271435
H22   H     H_    0.660121 0.936055 0.571506 0.128152
H23   H     H_    0.754450 0.034421 0.543051 0.148528
H24   H     H_    0.627616 0.000355 0.536417 0.161240
N28   N     N_2   0.631218 0.003647 0.067935 -0.510789
H25   H     H_    0.683386 0.076707 0.063982 0.274944
C100  C     C_3   0.672314 0.939163 0.067942 -0.226511
H26   H     H_    0.749236 0.979197 0.079007 0.134881
H27   H     H_    0.672946 0.914535 0.037776 0.160546
H28   H     H_    0.628477 0.873121 0.086154 0.225936
N29   N     N_2   0.340443 0.369278 0.077298 -0.512330
H29   H     H_    0.345373 0.306308 0.075415 0.268992
C101  C     C_3   0.239985 0.349634 0.079596 -0.211746
H30   H     H_    0.191738 0.276279 0.092602 0.120749
H31   H     H_    0.212154 0.348698 0.049866 0.194151
H32   H     H_    0.234631 0.406451 0.097084 0.184570
N30   N     N_2   0.077559 0.693490 0.087923 -0.432557
H33   H     H_    0.098623 0.754806 0.105092 0.320255
C102  C     C_3   0.004102 0.679899 0.059275 -0.282757
H34   H     H_    0.933244 0.659452 0.073635 0.124765
H35   H     H_    0.992418 0.621560 0.038052 0.154518
H36   H     H_    0.029290 0.749625 0.043167 0.147578
N31   N     N_2   0.012238 0.578530 0.911653 -0.479467
H37   H     H_    0.981129 0.619460 0.902587 0.295833
C103  C     C_3   0.938946 0.481179 0.924258 -0.271503
H38   H     H_    0.893085 0.437098 0.899199 0.173630
H39   H     H_    0.890536 0.487329 0.946142 0.133002
H40   H     H_    0.974393 0.442678 0.937855 0.180620
N32   N     N_2   0.640912 0.652179 0.914275 -0.478736
H41   H     H_    0.698044 0.704303 0.897864 0.300879
C104  C     C_3   0.673541 0.606612 0.942576 -0.276831
H42   H     H_    0.697586 0.559318 0.927743 0.158357
H43   H     H_    0.613624 0.561439 0.963261 0.152275
H44   H     H_    0.736596 0.664597 0.959364 0.145308
N33   N     N_2   0.351472 0.990021 0.912697 -0.474350
H45   H     H_    0.299181 0.996347 0.896798 0.303346
C105  C     C_3   0.404295 0.071265 0.939471 -0.281139
H46   H     H_    0.452535 0.139950 0.923245 0.157199
H47   H     H_    0.449678 0.055775 0.959896 0.150572
H48   H     H_    0.350967 0.082276 0.956723 0.147428
N34   N     N_2   0.561398 0.002101 0.415655 -0.480648
H49   H     H_    0.600012 0.967012 0.408702 0.290451
C106  C     C_3   0.461141 0.933302 0.426694 -0.270392
H50   H     H_    0.419162 0.886915 0.401396 0.173973
H51   H     H_    0.424244 0.972940 0.437815 0.183001
H52   H     H_    0.461135 0.884755 0.450085 0.137372
N35   N     N_2   0.673692 0.633713 0.405809 -0.480127
H53   H     H_    0.730372 0.682000 0.388210 0.297565
C107  C     C_3   0.635703 0.682667 0.429849 -0.267810
H54   H     H_    0.596254 0.710337 0.411626 0.166580
H55   H     H_    0.697603 0.746029 0.445058 0.148189
H56   H     H_    0.584793 0.631598 0.452105 0.156264
N36   N     N_2   0.995322 0.356253 0.414551 -0.475489
H57   H     H_    0.004430 0.305469 0.398788 0.303137
C108  C     C_3   0.073989 0.409460 0.442332 -0.278858
H58   H     H_    0.143546 0.459495 0.426980 0.158039
H59   H     H_    0.085108 0.356413 0.459776 0.149669
H60   H     H_    0.055505 0.453079 0.462490 0.151626
N37   N     N_2   0.978544 0.351682 0.677207 -0.477910
H61   H     H_    0.983228 0.295372 0.663775 0.289132
C109  C     C_3   0.898330 0.315063 0.704618 -0.263781
H62   H     H_    0.826503 0.275423 0.689103 0.165015
H63   H     H_    0.901636 0.376553 0.721853 0.181260
H64   H     H_    0.903878 0.263282 0.724954 0.151913
N38   N     N_2   0.654409 0.656062 0.669400 -0.476423
H65   H     H_    0.661065 0.718191 0.656370 0.266830
C110  C     C_3   0.749346 0.666780 0.678605 -0.248678
H66   H     H_    0.794395 0.682668 0.652002 0.162561
H67   H     H_    0.740676 0.598957 0.692339 0.181558
H68   H     H_    0.789119 0.729091 0.699226 0.156688
N39   N     N_2   0.326413 0.943727 0.658803 -0.483295
H69   H     H_    0.276466 0.886259 0.641660 0.280295
C111  C     C_3   0.290078 0.008794 0.669596 -0.264263
H70   H     H_    0.272821 0.038137 0.643356 0.171107
H71   H     H_    0.344806 0.070795 0.687694 0.169601
H72   H     H_    0.221578 0.967110 0.686678 0.146513
N40   N     N_2   0.351300 0.965294 0.180036 -0.475936
H73   H     H_    0.285355 0.899668 0.179185 0.302402
C112  C     C_3   0.337622 0.049813 0.180845 -0.284500
H74   H     H_    0.306871 0.056680 0.152682 0.160198
H75   H     H_    0.408487 0.118356 0.186667 0.168627
H76   H     H_    0.285542 0.040771 0.204335 0.147705
N41   N     N_2   0.628103 0.660001 0.176941 -0.477184
H77   H     H_    0.693146 0.707355 0.163176 0.283487
C113  C     C_3   0.590940 0.712191 0.199478 -0.236596
H78   H     H_    0.569041 0.754422 0.180032 0.163812
H79   H     H_    0.649281 0.764461 0.219616 0.172912
H80   H     H_    0.526618 0.659876 0.217013 0.184710
N42   N     N_2   0.978242 0.337097 0.164844 -0.475518
H81   H     H_    0.920123 0.279243 0.150547 0.277403
C114  C     C_3   0.055880 0.315998 0.173799 -0.259121
H82   H     H_    0.083596 0.299600 0.146851 0.164864
H83   H     H_    0.026520 0.250604 0.192947 0.150161
H84   H     H_    0.117849 0.379143 0.189095 0.178762
N43   N     N_2   0.091008 0.696269 0.643230 -0.509020
H85   H     H_    0.157663 0.717204 0.656488 0.259091
C115  C     C_3   0.040072 0.743532 0.659460 -0.277660
H86   H     H_    0.065624 0.768156 0.689684 0.171859
H87   H     H_    0.959031 0.693308 0.659887 0.148961
H88   H     H_    0.057180 0.809381 0.641945 0.143915
N44   N     N_2   0.343837 0.338252 0.663880 -0.507792
H89   H     H_    0.302228 0.364626 0.676535 0.283977
C116  C     C_3   0.352722 0.266687 0.687354 -0.288322
H90   H     H_    0.384764 0.298064 0.716223 0.177993
H91   H     H_    0.400029 0.242391 0.672855 0.142457
H92   H     H_    0.278626 0.201468 0.691691 0.144268
N45   N     N_2   0.669616 0.024016 0.668502 -0.498859
H93   H     H_    0.735747 0.089310 0.668062 0.257165
C117  C     C_3   0.679106 0.937469 0.664071 -0.273865
H94   H     H_    0.726974 0.936293 0.687591 0.162599
H95   H     H_    0.713310 0.938807 0.635821 0.130563
H96   H     H_    0.606119 0.869232 0.666070 0.178433
N46   N     N_2   0.696013 0.093130 0.141883 -0.509577
H97   H     H_    0.716696 0.160724 0.154233 0.269805
C118  C     C_3   0.736752 0.041293 0.162450 -0.285932
H98   H     H_    0.712229 0.029132 0.193138 0.168139
H99   H     H_    0.818311 0.085959 0.162031 0.146461
H100  H     H_    0.713894 0.968993 0.148612 0.161503
N47   N     N_2   0.378137 0.314079 0.150900 -0.510016
H101  H     H_    0.420258 0.292373 0.166418 0.253425
C119  C     C_3   0.278485 0.272829 0.165125 -0.281998
H102  H     H_    0.274584 0.250095 0.195878 0.163433
H103  H     H_    0.228909 0.206402 0.147776 0.136721
H104  H     H_    0.252092 0.326470 0.163386 0.152648
N48   N     N_2   0.023817 0.670872 0.166967 -0.510838
H105  H     H_    0.054469 0.688336 0.194397 0.272409
C120  C     C_3   0.933210 0.673172 0.162531 -0.274321
H106  H     H_    0.895503 0.659866 0.190951 0.182196
H107  H     H_    0.881721 0.616517 0.141580 0.154628
H108  H     H_    0.950651 0.746853 0.151941 0.147032
F7    F     F_    0.986373 0.581052 0.832108 -0.607636
F8    F     F_    0.654402 0.616452 0.836069 -0.608988
F9    F     F_    0.379506 0.030466 0.833879 -0.619761
F10   F     F_    0.569194 0.969073 0.337179 -0.614229
F11   F     F_    0.643635 0.630935 0.326127 -0.618274
F12   F     F_    0.041734 0.388090 0.336159 -0.615774

loop_
_geom_bond_atom_site_label_1
_geom_bond_atom_site_label_2
_geom_bond_distance
_ccdc_geom_bond_type
N21   C51   1.358885 A    
N39   C111  1.446326 S    
N16   N22   1.332888 A    
C76   C94   1.398357 A    
N45   H93   1.030504 S    
C77   C95   1.406840 A    
C52   C88   1.475183 S    
C44   N26   1.424323 S    
N47   C119  1.449035 S    
C23   F5    1.357731 S    
C115  H88   1.109285 S    
C2    C15   1.485694 S    
N25   C97   1.450266 S    
C28   N40   1.426346 S    
C118  H99   1.110026 S    
O22   Cr4   1.957860 S    
N6    C54   1.355247 A    
C63   C87   1.410514 A    
O10   Cr4   1.963510 S    
N46   C118  1.447833 S    
C101  H31   1.109361 S    
O12   Cr6   1.965087 S    
O13   Cr1   2.079422 S    
C10   C92   1.474816 S    
C22   C28   1.394192 A    
C114  H82   1.109752 S    
C64   C88   1.410781 A    
C116  H91   1.110428 S    
N17   C59   1.355964 A    
O3    C1    1.244440 A    
O1    Cr1   2.075039 S    
N3    N9    1.328923 A    
N48   C120  1.449345 S    
O3    Cr3   2.075002 S    
C109  H62   1.111628 S    
N16   C58   1.355944 A    
O8    Cr2   1.971494 S    
C33   C57   1.473539 S    
O13   C8    1.284184 A    
N9    C57   1.355368 A    
C50   C86   1.468075 S    
N32   C104  1.446717 S    
C79   H7    1.083443 S    
C100  H26   1.110880 S    
C110  H66   1.109630 S    
C39   N45   1.425601 S    
O20   Cr2   1.946486 S    
O5    C6    1.243846 A    
C72   N36   1.425624 S    
O18   C10   1.247103 A    
C63   F9    1.358559 S    
C104  H42   1.111610 S    
C102  H35   1.110852 S    
N47   H101  1.031707 S    
C43   N25   1.426047 S    
N12   C60   1.355417 A    
C82   H10   1.083176 S    
C62   C68   1.404673 A    
C26   N38   1.424677 S    
N17   N23   1.328690 A    
C69   C93   1.414070 A    
O14   C9    1.247413 A    
C41   N47   1.427240 S    
C77   C83   1.392066 A    
C113  H79   1.110278 S    
C75   C93   1.403367 A    
C51   C87   1.476740 S    
C35   C41   1.413714 A    
C112  H75   1.110354 S    
C37   N43   1.426126 S    
C53   C89   1.464088 S    
C14   C44   1.412985 A    
C16   C46   1.415236 A    
C117  H96   1.111506 S    
O23   C11   1.282475 A    
N20   C50   1.358672 A    
O17   Cr5   2.088351 S    
O24   C12   1.250679 A    
O9    C3    1.249780 A    
C100  H28   1.110261 S    
Cr2   O25   1.964196 S    
N44   C116  1.448059 S    
O10   C4    1.248708 A    
N24   C54   1.358699 A    
N10   C58   1.353246 A    
N43   C115  1.449091 S    
C73   C91   1.397603 A    
O6    C4    1.246549 A    
N29   H29   1.031477 S    
O7    C1    1.251465 A    
C8    C94   1.461352 S    
O17   C12   1.247901 A    
O6    Cr6   2.073646 S    
C109  H64   1.110294 S    
C65   F11   1.359400 S    
C81   H9    1.083060 S    
O20   C8    1.283103 A    
C35   C59   1.473528 S    
O9    Cr3   1.964802 S    
O21   C9    1.248897 A    
O15   C7    1.246796 A    
N38   H65   1.031491 S    
C105  H46   1.111535 S    
C45   N27   1.428591 S    
N45   C117  1.447002 S    
N40   H73   1.031619 S    
C99   H23   1.110378 S    
N8    C56   1.355894 A    
C24   C30   1.397005 A    
C111  H70   1.108399 S    
C15   C45   1.419624 A    
N28   C100  1.448170 S    
C38   N44   1.424394 S    
C17   C23   1.406920 A    
C28   C34   1.405707 A    
C71   C95   1.416838 A    
C73   C79   1.390596 A    
C72   C96   1.413651 A    
C19   C25   1.395654 A    
N26   C98   1.446433 S    
C80   C86   1.398734 A    
C107  H54   1.111588 S    
C66   C90   1.409083 A    
N36   H57   1.031333 S    
N30   C102  1.447446 S    
C40   C46   1.412481 A    
N1    C49   1.356339 A    
C13   C19   1.407551 A    
C68   N32   1.425667 S    
C97   H15   1.112526 S    
C14   C20   1.407548 A    
C39   C45   1.415787 A    
C36   C60   1.467123 S    
C114  H84   1.110664 S    
C108  H59   1.110389 S    
C104  H44   1.110389 S    
C32   C38   1.416196 A    
C110  H68   1.110002 S    
N5    N11   1.330605 A    
N6    N12   1.328587 A    
C13   C43   1.418040 A    
C117  H94   1.110000 S    
C7    C95   1.477390 S    
O2    Cr2   2.064451 S    
N14   N20   1.330766 A    
C103  H38   1.111589 S    
C29   C35   1.409791 A    
C74   H2    1.083332 S    
C27   N39   1.423956 S    
C78   H6    1.083611 S    
N26   H17   1.031508 S    
C120  H107  1.112266 S    
C4    C17   1.484128 S    
C27   C33   1.407651 A    
C40   N46   1.424682 S    
C61   F7    1.358820 S    
C62   F8    1.358861 S    
O23   Cr5   1.946427 S    
N41   H77   1.031727 S    
C84   H12   1.083337 S    
N3    C51   1.355554 A    
C111  H72   1.110022 S    
C83   H11   1.083334 S    
C82   C88   1.403715 A    
C15   C21   1.405371 A    
C73   H1    1.080331 S    
C70   C94   1.410083 A    
C38   C44   1.409925 A    
N2    C50   1.354453 A    
N14   C56   1.355610 A    
N42   C114  1.447606 S    
C77   H5    1.083145 S    
C18   C24   1.406180 A    
C101  H30   1.109326 S    
C76   H4    1.082739 S    
C107  H56   1.110937 S    
C19   F1    1.358845 S    
C16   C22   1.406386 A    
C80   H8    1.083428 S    
Cr4   O26   1.960448 S    
N31   C103  1.446100 S    
O1    C2    1.250473 A    
C54   C90   1.471057 S    
N15   N21   1.330247 A    
N29   C101  1.450633 S    
C42   N48   1.425722 S    
O19   C7    1.252684 A    
O18   Cr6   2.082913 S    
C108  H58   1.111531 S    
N25   H13   1.031469 S    
C112  H74   1.111658 S    
N32   H41   1.031326 S    
C66   F12   1.358662 S    
C68   C92   1.415203 A    
Cr6   O26   1.961504 S    
C65   C71   1.402149 A    
C105  H48   1.110385 S    
C64   C70   1.401642 A    
C76   C82   1.392025 A    
N37   H61   1.031679 S    
C103  H40   1.109992 S    
N30   H33   1.030534 S    
C20   F2    1.358536 S    
C24   F6    1.358830 S    
N7    C55   1.354856 A    
N43   H85   1.031336 S    
C23   C29   1.393258 A    
N13   N19   1.330902 A    
C98   H20   1.109269 S    
O22   C10   1.250830 A    
C30   C36   1.407000 A    
C113  H78   1.111835 S    
C34   C58   1.461755 S    
C102  H36   1.110291 S    
N31   H37   1.031626 S    
C84   C90   1.399807 A    
N33   H45   1.031331 S    
C25   N37   1.424996 S    
C97   H14   1.109567 S    
O7    Cr1   1.963557 S    
Cr1   O25   1.961715 S    
C101  H32   1.112849 S    
C61   C85   1.410088 A    
C118  H98   1.110141 S    
C100  H27   1.109651 S    
N44   H89   1.030159 S    
C75   C81   1.387716 A    
C5    C18   1.482272 S    
C116  H90   1.109199 S    
C78   C96   1.403464 A    
C116  H92   1.109813 S    
N35   C107  1.446617 S    
O2    C3    1.246472 A    
C37   C43   1.413625 A    
N13   C55   1.356541 A    
O4    C5    1.247148 A    
C63   C69   1.406224 A    
C109  H63   1.110664 S    
Cr5   O26   1.964260 S    
C70   N34   1.424068 S    
C115  H87   1.111597 S    
O11   C5    1.249761 A    
C21   F3    1.358304 S    
C30   N42   1.424142 S    
C31   C55   1.469038 S    
C22   F4    1.358746 S    
N23   C53   1.356218 A    
C75   H3    1.083499 S    
C78   C84   1.386219 A    
N41   C113  1.447232 S    
C99   H22   1.110192 S    
N4    C52   1.355226 A    
N11   C59   1.357374 A    
C25   C31   1.407246 A    
C66   C72   1.405388 A    
N28   H25   1.031581 S    
C104  H43   1.110861 S    
C98   H18   1.109015 S    
C105  H47   1.110791 S    
C119  H102  1.110784 S    
C113  H80   1.111059 S    
C33   C39   1.412296 A    
O24   Cr6   1.955844 S    
C112  H76   1.110300 S    
C102  H34   1.110308 S    
N46   H97   1.031207 S    
N27   H21   1.028569 S    
C41   C47   1.415274 A    
N48   H105  1.031046 S    
N4    N10   1.326461 A    
O16   C11   1.284390 A    
C114  H83   1.110038 S    
N27   C99   1.448877 S    
C49   C85   1.473085 S    
C12   C93   1.473855 S    
C110  H67   1.110682 S    
N1    N7    1.328965 A    
N2    N8    1.328287 A    
C47   N29   1.426235 S    
C29   N41   1.425139 S    
N34   C106  1.446043 S    
C106  H50   1.111590 S    
O21   Cr3   1.957229 S    
N37   C109  1.447041 S    
C18   C48   1.417479 A    
N22   C52   1.360637 A    
C20   C26   1.397224 A    
O19   Cr1   1.956413 S    
C81   C87   1.401337 A    
C3    C13   1.482088 S    
C118  H100  1.109789 S    
N19   C49   1.358351 A    
N38   C110  1.448339 S    
C74   C92   1.404150 A    
O4    Cr4   2.076514 S    
N40   C112  1.446846 S    
C31   C37   1.411767 A    
C99   H24   1.110410 S    
Cr3   O25   1.960305 S    
C1    C14   1.483683 S    
C120  H106  1.110778 S    
C119  H103  1.109057 S    
C115  H86   1.110856 S    
C21   C27   1.399061 A    
C111  H71   1.108538 S    
N33   C105  1.446673 S    
O14   Cr2   2.088882 S    
N18   C60   1.354556 A    
O15   Cr3   2.082416 S    
C79   C85   1.401632 A    
C32   C56   1.470688 S    
C119  H104  1.111311 S    
O16   Cr4   2.079457 S    
C71   N35   1.425666 S    
N34   H49   1.031630 S    
C67   N31   1.424073 S    
C11   C91   1.463994 S    
C107  H55   1.110365 S    
C69   N33   1.425698 S    
C6    C16   1.476751 S    
C67   C91   1.411620 A    
C64   F10   1.358996 S    
N36   C108  1.446678 S    
C26   C32   1.407982 A    
C65   C89   1.403457 A    
N39   H69   1.030640 S    
N5    C53   1.355431 A    
C97   H16   1.109552 S    
O5    Cr5   2.064330 S    
C83   C89   1.397743 A    
O8    C2    1.248750 A    
C74   C80   1.388671 A    
C62   C86   1.406896 A    
C9    C96   1.470756 S    
C61   C67   1.404115 A    
C117  H95   1.108389 S    
C106  H51   1.109979 S    
C42   C48   1.410478 A    
N15   C57   1.355331 A    
N18   N24   1.329642 A    
C103  H39   1.110442 S    
O11   Cr5   1.971259 S    
C108  H60   1.110766 S    
C34   C40   1.411117 A    
C36   C42   1.413845 A    
C106  H52   1.110486 S    
C120  H108  1.109509 S    
O12   C6    1.250640 A    
N35   H53   1.031398 S    
C48   N30   1.427854 S    
C17   C47   1.418911 A    
C98   H19   1.112276 S    
C46   N28   1.425179 S    
N42   H81   1.031348 S    
