data_mof_unit_60851.cif
_audit_creation_date              2012-12-10T17:23:35-0500
_audit_creation_method            fapswitch 2.2
_symmetry_space_group_name_H-M    P1
_symmetry_Int_Tables_number       1
_space_group_crystal_system       triclinic
_cell_length_a                    38.453438
_cell_length_b                    21.773929
_cell_length_c                    21.72047
_cell_angle_alpha                 90.0
_cell_angle_beta                  124.028116
_cell_angle_gamma                 89.999911
_cell_volume                      15072.0242739

loop_
_atom_site_label
_atom_site_type_symbol
_atom_type_description
_atom_site_fract_x
_atom_site_fract_y
_atom_site_fract_z
_atom_type_partial_charge
C1    C     C_R   0.999843 0.000064 0.119689 0.938152
C2    C     C_3   0.773798 0.001257 0.840468 0.140256
C3    C     C_R   0.999896 0.999251 0.620156 0.914338
C4    C     C_R   0.500104 0.499252 0.379844 0.914346
C5    C     C_R   0.499896 0.499251 0.620156 0.914340
C6    C     C_R   1.000000 0.120259 0.500000 0.818646
C7    C     C_R   0.500000 0.620259 0.500000 0.818648
C8    C     C_R   0.440330 0.812794 0.367090 -0.118520
C9    C     C_R   0.559669 0.812794 0.632911 -0.118478
C10   C     C_R   0.940330 0.312794 0.367090 -0.118520
C11   C     C_R   0.059669 0.312794 0.632911 -0.118469
C12   C     C_R   0.416315 0.781147 0.300122 -0.075708
C13   C     C_3   0.726204 0.501678 0.159554 0.140157
C14   C     C_R   0.583685 0.781146 0.699878 -0.075790
C15   C     C_R   0.916315 0.281147 0.300122 -0.075709
C16   C     C_R   0.083685 0.281146 0.699878 -0.075806
C17   C     C_R   0.922766 0.218768 0.297409 -0.113286
C18   C     C_R   0.077233 0.218767 0.702592 -0.113231
C19   C     C_R   0.422766 0.718768 0.297409 -0.113290
C20   C     C_R   0.577233 0.718767 0.702592 -0.113238
C21   C     C_R   0.951486 0.187253 0.362420 -0.144159
C22   C     C_R   0.048514 0.187252 0.637579 -0.144144
C23   C     C_R   0.451486 0.687253 0.362420 -0.144162
C24   C     C_3   0.273799 0.501162 0.840473 0.140278
C25   C     C_R   0.548514 0.687252 0.637579 -0.144147
C26   C     C_R   0.974485 0.218027 0.431923 0.074875
C27   C     C_R   0.025515 0.218026 0.568077 0.074857
C28   C     C_R   0.474485 0.718027 0.431923 0.074875
C29   C     C_R   0.525515 0.718026 0.568077 0.074858
C30   C     C_3   0.226288 0.056046 0.261034 0.842432
C31   C     C_3   0.773709 0.056260 0.739327 0.842322
C32   C     C_3   0.726288 0.556046 0.261034 0.842433
C33   C     C_3   0.273708 0.556308 0.739409 0.842297
C34   C     C_R   0.471580 0.782212 0.433140 0.068181
C35   C     C_1   0.337024 0.995750 0.337539 0.177403
C36   C     C_R   0.528419 0.782212 0.566860 0.068220
C37   C     C_R   0.971580 0.282212 0.433140 0.068181
C38   C     C_R   0.028419 0.282212 0.566860 0.068229
C39   C     C_R   1.000000 0.186364 0.500000 -0.181184
C40   C     C_R   0.500000 0.686364 0.500000 -0.181186
C41   C     C_R   0.500000 0.813975 0.500000 -0.173310
C42   C     C_R   1.000000 0.313975 0.500000 -0.173309
C43   C     C_R   0.558946 0.192620 0.480394 0.321032
C44   C     C_R   0.441054 0.192620 0.519607 0.321030
C45   C     C_R   0.058946 0.692620 0.480394 0.321033
C46   C     C_1   0.662976 0.995750 0.662457 0.177406
C47   C     C_R   0.941054 0.692620 0.519607 0.321030
C48   C     C_R   0.575838 0.223946 0.446742 -0.216754
C49   C     C_R   0.424163 0.223947 0.553259 -0.216772
C50   C     C_R   0.075837 0.723946 0.446742 -0.216753
C51   C     C_R   0.924163 0.723947 0.553260 -0.216775
C52   C     C_R   0.064268 0.784171 0.423564 0.651237
C53   C     C_R   0.935732 0.784172 0.576438 0.651231
C54   C     C_R   0.564268 0.284171 0.423564 0.651238
C55   C     C_R   0.435732 0.284172 0.576438 0.651233
C56   C     C_R   0.038594 0.814722 0.439706 -0.204352
C57   C     C_1   0.837024 0.495750 0.337539 0.177402
C58   C     C_R   0.961407 0.814722 0.560295 -0.204366
C59   C     C_R   0.538594 0.314722 0.439707 -0.204352
C60   C     C_R   0.461407 0.314722 0.560295 -0.204367
C61   C     C_R   0.021128 0.783445 0.473622 -0.037713
C62   C     C_R   0.978873 0.783445 0.526379 -0.037720
C63   C     C_R   0.521128 0.283445 0.473622 -0.037714
C64   C     C_R   0.478873 0.283445 0.526379 -0.037720
C65   C     C_R   0.526638 0.219825 0.484674 -0.012139
C66   C     C_R   0.473362 0.219825 0.515326 -0.012136
C67   C     C_R   0.026638 0.719825 0.484674 -0.012140
C68   C     C_1   0.162976 0.495750 0.662456 0.177405
C69   C     C_R   0.973362 0.719825 0.515327 -0.012136
C70   C     C_R   0.000000 0.814682 0.500000 -0.006980
C71   C     C_R   0.500000 0.314682 0.500000 -0.006981
C72   C     C_3   0.275067 0.054792 0.308077 -0.671244
C73   C     C_3   0.724929 0.054997 0.692287 -0.671225
C74   C     C_3   0.775067 0.554792 0.308077 -0.671244
C75   C     C_3   0.224928 0.555043 0.692370 -0.671217
C76   C     C_R   0.500000 0.187295 0.500000 -0.113138
C77   C     C_R   1.000000 0.687295 0.500000 -0.113140
C78   C     C_1   0.374544 0.996313 0.374886 -0.070267
C79   C     C_1   0.162897 0.998960 0.163770 0.253064
C80   C     C_1   0.625456 0.996313 0.625113 -0.070276
C81   C     C_1   0.874544 0.496312 0.374886 -0.070268
C82   C     C_1   0.125456 0.496312 0.625112 -0.070280
C83   C     C_3   0.208704 0.997302 0.209809 -0.310891
C84   C     C_3   0.791296 0.997306 0.790183 -0.310864
C85   C     C_3   0.708704 0.497302 0.209809 -0.310891
C86   C     C_3   0.291296 0.497307 0.790180 -0.310861
C87   C     C_3   0.274292 0.939542 0.311453 0.479753
C88   C     C_3   0.725708 0.939777 0.688179 0.479908
C89   C     C_3   0.774292 0.439542 0.311453 0.479752
C90   C     C_1   0.837102 0.998963 0.836226 0.253067
C91   C     C_3   0.225708 0.439830 0.688095 0.479942
C92   C     C_3   0.291251 0.995704 0.291976 -0.236491
C93   C     C_3   0.708749 0.995706 0.708015 -0.236495
C94   C     C_3   0.791251 0.495704 0.291976 -0.236490
C95   C     C_3   0.208749 0.495706 0.708013 -0.236494
C96   C     C_1   0.662897 0.498960 0.163770 0.253065
C97   C     C_R   0.000157 0.000064 0.880310 0.938152
C98   C     C_1   0.337102 0.498963 0.836225 0.253064
C99   C     C_1   0.125399 0.999795 0.126095 -0.013369
C100  C     C_1   0.874601 0.999796 0.873904 -0.013368
C101  C     C_1   0.625399 0.499796 0.126095 -0.013368
C102  C     C_1   0.374601 0.499796 0.873904 -0.013367
C103  C     C_R   0.061785 0.068616 0.248000 -0.243625
C104  C     C_R   0.938216 0.068619 0.752001 -0.243607
C105  C     C_R   0.561785 0.568617 0.247999 -0.243621
C106  C     C_R   0.438217 0.568620 0.752001 -0.243605
C107  C     C_R   0.087297 0.109885 0.304883 0.754725
C108  C     C_R   0.499843 0.500064 0.119689 0.938149
C109  C     C_R   0.912704 0.109889 0.695118 0.754700
C110  C     C_R   0.587297 0.609886 0.304883 0.754724
C111  C     C_R   0.412706 0.609891 0.695119 0.754697
C112  C     C_R   0.081022 0.119709 0.361129 -0.197602
C113  C     C_R   0.918979 0.119712 0.638871 -0.197675
C114  C     C_R   0.581022 0.619710 0.361129 -0.197613
C115  C     C_R   0.418980 0.619714 0.638872 -0.197676
C116  C     C_R   0.051095 0.085401 0.363120 -0.267268
C117  C     C_R   0.948906 0.085402 0.636881 -0.267266
C118  C     C_R   0.551095 0.585401 0.363119 -0.267269
C119  C     C_R   0.500156 0.500064 0.880310 0.938150
C120  C     C_R   0.448907 0.585403 0.636881 -0.267265
C121  C     C_R   0.026812 0.039995 0.308425 0.084326
C122  C     C_R   0.973188 0.039996 0.691576 0.084339
C123  C     C_R   0.526812 0.539996 0.308424 0.084327
C124  C     C_R   0.473189 0.539997 0.691576 0.084340
C125  C     C_R   0.080968 0.999992 0.081440 0.925646
C126  C     C_R   0.919032 0.999992 0.918560 0.925637
C127  C     C_R   0.580968 0.499992 0.081440 0.925644
C128  C     C_R   0.419032 0.499992 0.918560 0.925632
C129  C     C_R   0.029407 0.035992 0.246758 -0.013753
C130  C     C_3   0.274666 0.993912 0.208201 0.501405
C131  C     C_R   0.970593 0.035994 0.753242 -0.013751
C132  C     C_R   0.529407 0.535993 0.246758 -0.013755
C133  C     C_R   0.470593 0.535994 0.753242 -0.013749
C134  C     C_R   0.000337 0.998363 0.313862 -0.087096
C135  C     C_R   0.999663 0.998363 0.686138 -0.087085
C136  C     C_R   0.500337 0.498363 0.313862 -0.087100
C137  C     C_R   0.499663 0.498363 0.686138 -0.087085
C138  C     C_R   0.973233 0.957554 0.255021 -0.179859
C139  C     C_R   0.026768 0.957555 0.744980 -0.179848
C140  C     C_R   0.473233 0.457554 0.255022 -0.179862
C141  C     C_3   0.725337 0.993488 0.791778 0.501259
C142  C     C_R   0.526768 0.457555 0.744980 -0.179848
C143  C     C_R   0.968911 0.964866 0.186787 -0.133964
C144  C     C_R   0.031090 0.964868 0.813214 -0.133994
C145  C     C_R   0.468911 0.464866 0.186787 -0.133957
C146  C     C_R   0.531089 0.464868 0.813214 -0.133993
C147  C     C_R   0.999203 0.000470 0.185143 -0.073601
C148  C     C_R   0.000797 0.000470 0.814857 -0.073600
C149  C     C_R   0.499203 0.500470 0.185143 -0.073603
C150  C     C_R   0.500797 0.500470 0.814857 -0.073598
C151  C     C_R   0.949746 0.910175 0.261236 0.565582
C152  C     C_3   0.774666 0.493912 0.208201 0.501405
C153  C     C_R   0.050256 0.910177 0.738766 0.565581
C154  C     C_R   0.449746 0.410174 0.261236 0.565582
C155  C     C_R   0.550255 0.410177 0.738766 0.565580
C156  C     C_R   0.918418 0.878534 0.198437 0.303818
C157  C     C_R   0.081585 0.878538 0.801567 0.303819
C158  C     C_R   0.418419 0.378532 0.198438 0.303817
C159  C     C_R   0.581584 0.378537 0.801566 0.303819
C160  C     C_R   0.909777 0.893240 0.129082 -0.297083
C161  C     C_R   0.090226 0.893245 0.870920 -0.296940
C162  C     C_R   0.409778 0.393238 0.129083 -0.297117
C163  C     C_3   0.225338 0.493391 0.791774 0.501221
C164  C     C_R   0.590225 0.393245 0.870920 -0.296938
C165  C     C_R   0.934536 0.935829 0.122654 0.596677
C166  C     C_R   0.065465 0.935832 0.877348 0.596756
C167  C     C_R   0.434537 0.435828 0.122655 0.596660
C168  C     C_R   0.565465 0.435832 0.877347 0.596757
C169  C     C_R   0.500000 0.880205 0.500000 0.828932
C170  C     C_R   1.000000 0.380205 0.500000 0.828940
C171  C     C_3   0.225434 0.936428 0.258186 0.535976
C172  C     C_3   0.774566 0.936633 0.741424 0.535877
C173  C     C_3   0.725434 0.436429 0.258186 0.535976
C174  C     C_3   0.226204 0.001678 0.159554 0.140158
C175  C     C_3   0.274566 0.436679 0.741336 0.535856
C176  C     C_R   0.419029 0.997629 0.419144 0.927819
C177  C     C_R   0.580970 0.997628 0.580856 0.927849
C178  C     C_R   0.919029 0.497629 0.419144 0.927820
C179  C     C_R   0.080970 0.497628 0.580856 0.927857
C180  C     C_R   0.500000 0.120567 0.500000 1.010625
C181  C     C_R   0.000000 0.620567 0.500000 1.010625
C182  C     C_R   1.000000 0.880169 0.500000 0.972889
C183  C     C_R   0.500000 0.380169 0.500000 0.972892
C184  C     C_R   0.000104 0.999252 0.379844 0.914342
Cl1   Cl    Cl    0.209461 0.868657 0.201172 -0.288055
Cl2   Cl    Cl    0.796316 0.924839 0.687561 -0.460607
Cl3   Cl    Cl    0.703684 0.424164 0.311973 -0.460568
Cl4   Cl    Cl    0.296316 0.424992 0.687455 -0.460614
Cl5   Cl    Cl    0.588687 0.130156 0.535241 -0.609882
Cl6   Cl    Cl    0.411313 0.130156 0.464761 -0.609890
Cl7   Cl    Cl    0.088687 0.630156 0.535241 -0.609879
Cl8   Cl    Cl    0.911314 0.630156 0.464761 -0.609891
Cl9   Cl    Cl    0.207783 0.065577 0.320200 -0.405185
Cl10  Cl    Cl    0.792206 0.066273 0.680211 -0.404885
Cl11  Cl    Cl    0.707783 0.565577 0.320200 -0.405192
Cl12  Cl    Cl    0.790539 0.868607 0.798013 -0.287911
Cl13  Cl    Cl    0.292203 0.566431 0.680304 -0.404811
Cl14  Cl    Cl    0.200915 0.953259 0.078504 -0.385035
Cl15  Cl    Cl    0.799093 0.952494 0.921217 -0.385108
Cl16  Cl    Cl    0.700915 0.453259 0.078504 -0.385035
Cl17  Cl    Cl    0.299096 0.452321 0.921154 -0.385124
Cl18  Cl    Cl    0.709461 0.368657 0.201172 -0.288050
Cl19  Cl    Cl    0.290539 0.368595 0.797827 -0.287881
Cl20  Cl    Cl    0.888927 0.821200 0.206197 -0.429223
Cl21  Cl    Cl    0.111078 0.821205 0.793808 -0.429148
Cl22  Cl    Cl    0.388928 0.321198 0.206199 -0.429239
Cl23  Cl    Cl    0.611077 0.321204 0.793807 -0.429150
Cl24  Cl    Cl    0.203684 0.924164 0.311973 -0.460566
F1    F     F_    0.293025 0.885756 0.309392 -0.537807
F2    F     F_    0.042018 0.891765 0.672284 -0.649996
F3    F     F_    0.457984 0.391764 0.327719 -0.650001
F4    F     F_    0.542018 0.391765 0.672284 -0.649997
F5    F     F_    0.922922 0.950516 0.052985 -0.642898
F6    F     F_    0.077079 0.950521 0.947016 -0.642848
F7    F     F_    0.422922 0.450515 0.052985 -0.642909
F8    F     F_    0.577079 0.450520 0.947016 -0.642847
F9    F     F_    0.081039 0.814758 0.391675 -0.606112
F10   F     F_    0.918963 0.814759 0.608328 -0.606111
F11   F     F_    0.581039 0.314758 0.391675 -0.606113
F12   F     F_    0.706975 0.885862 0.689896 -0.537691
F13   F     F_    0.418962 0.314758 0.608327 -0.606108
F14   F     F_    0.212865 0.108461 0.217081 -0.610036
F15   F     F_    0.787134 0.108481 0.783609 -0.610132
F16   F     F_    0.712865 0.608461 0.217081 -0.610035
F17   F     F_    0.287134 0.608485 0.783765 -0.610152
F18   F     F_    0.286543 0.939431 0.191786 -0.520642
F19   F     F_    0.713465 0.938826 0.807851 -0.520745
F20   F     F_    0.786543 0.439431 0.191786 -0.520643
F21   F     F_    0.213468 0.438689 0.807769 -0.520768
F22   F     F_    0.793025 0.385756 0.309392 -0.537806
F23   F     F_    0.206975 0.385885 0.689733 -0.537665
F24   F     F_    0.117493 0.141545 0.304337 -0.586666
F25   F     F_    0.882510 0.141551 0.695665 -0.586671
F26   F     F_    0.617492 0.641546 0.304336 -0.586672
F27   F     F_    0.382511 0.641554 0.695666 -0.586664
F28   F     F_    0.957984 0.891764 0.327719 -0.650000
H1    H     H_    0.283738 0.944855 0.369869 0.124021
H2    H     H_    0.115884 0.870903 0.920160 0.258331
H3    H     H_    0.384121 0.370893 0.079845 0.258381
H4    H     H_    0.615884 0.370902 0.920160 0.258331
H5    H     H_    0.067894 0.062722 0.205477 0.171001
H6    H     H_    0.932107 0.062726 0.794524 0.171007
H7    H     H_    0.567893 0.562723 0.205477 0.171001
H8    H     H_    0.432108 0.562727 0.794524 0.171008
H9    H     H_    0.099779 0.153344 0.404006 0.192484
H10   H     H_    0.900223 0.153348 0.595995 0.192434
H11   H     H_    0.599778 0.653345 0.404006 0.192475
H12   H     H_    0.716262 0.945404 0.629798 0.124051
H13   H     H_    0.400225 0.653350 0.595996 0.192434
H14   H     H_    0.047207 0.095551 0.407606 0.180050
H15   H     H_    0.952794 0.095552 0.592394 0.180038
H16   H     H_    0.547207 0.595551 0.407606 0.180048
H17   H     H_    0.452794 0.595552 0.592395 0.180038
H18   H     H_    0.606938 0.805321 0.749987 0.180957
H19   H     H_    0.393061 0.805322 0.250013 0.181027
H20   H     H_    0.106938 0.305321 0.749987 0.180942
H21   H     H_    0.893061 0.305322 0.250013 0.181026
H22   H     H_    0.433702 0.861123 0.366152 0.155506
H23   H     H_    0.783738 0.444855 0.369869 0.124020
H24   H     H_    0.566298 0.861122 0.633848 0.155485
H25   H     H_    0.933702 0.361123 0.366152 0.155505
H26   H     H_    0.066298 0.361122 0.633848 0.155479
H27   H     H_    0.904997 0.194478 0.244998 0.165514
H28   H     H_    0.095002 0.194478 0.755002 0.165518
H29   H     H_    0.404997 0.694478 0.244998 0.165510
H30   H     H_    0.595003 0.694478 0.755002 0.165520
H31   H     H_    0.955482 0.138848 0.357105 0.148065
H32   H     H_    0.044517 0.138847 0.642895 0.148066
H33   H     H_    0.455482 0.638848 0.357105 0.148065
H34   H     H_    0.216261 0.445528 0.629722 0.124062
H35   H     H_    0.544517 0.638847 0.642895 0.148068
H36   H     H_    0.400186 0.202662 0.557685 0.219958
H37   H     H_    0.599815 0.202661 0.442317 0.219953
H38   H     H_    0.900186 0.702662 0.557685 0.219957
H39   H     H_    0.099815 0.702661 0.442317 0.219953
H40   H     H_    0.033031 0.863013 0.426121 0.199903
H41   H     H_    0.966970 0.863013 0.573880 0.199903
H42   H     H_    0.533031 0.363013 0.426121 0.199904
H43   H     H_    0.466970 0.363013 0.573880 0.199903
H44   H     H_    0.288013 0.057398 0.368433 0.252329
H45   H     H_    0.288979 0.032168 0.195608 0.091743
H46   H     H_    0.711980 0.057906 0.631947 0.252406
H47   H     H_    0.788013 0.557398 0.368433 0.252328
H48   H     H_    0.211977 0.558021 0.632034 0.252424
H49   H     H_    0.287092 0.095863 0.295050 0.269069
H50   H     H_    0.712907 0.095907 0.705583 0.269015
H51   H     H_    0.787092 0.595863 0.295050 0.269069
H52   H     H_    0.212906 0.595917 0.705726 0.269001
H53   H     H_    0.219472 0.048337 0.134558 0.161504
H54   H     H_    0.780528 0.047802 0.865752 0.161485
H55   H     H_    0.719472 0.548337 0.134558 0.161505
H56   H     H_    0.711023 0.031570 0.804616 0.091631
H57   H     H_    0.280529 0.547680 0.865823 0.161479
H58   H     H_    0.788979 0.532167 0.195608 0.091743
H59   H     H_    0.211024 0.531433 0.804668 0.091608
H60   H     H_    0.884119 0.870895 0.079844 0.258372
O1    O     O_R   1.000000 0.948260 0.091620 -0.578243
O2    O     O_R   0.965330 0.000000 0.556930 -0.629985
O3    O     O_R   0.534670 0.500000 0.443070 -0.629975
O4    O     O_R   0.465330 0.500000 0.556930 -0.629985
O5    O     O_R   0.965330 0.091670 0.465370 -0.629867
O6    O     O_R   0.034670 0.091670 0.534630 -0.629838
O7    O     O_R   0.465330 0.591670 0.465370 -0.629867
O8    O     O_R   0.534670 0.591670 0.534630 -0.629841
O9    O     O_R   0.000000 0.051730 0.091640 -0.631405
O10   O     O_R   0.000000 0.051730 0.908360 -0.631406
O11   O     O_R   0.500000 0.551730 0.091640 -0.631407
O12   O     O_R   0.000000 0.948260 0.908380 -0.578262
O13   O     O_R   0.500000 0.551730 0.908360 -0.631405
O14   O     O_R   0.061430 0.948260 0.061430 -0.563012
O15   O     O_R   0.938570 0.948260 0.938570 -0.563008
O16   O     O_R   0.561430 0.448260 0.061430 -0.563012
O17   O     O_R   0.438570 0.448260 0.938570 -0.563007
O18   O     O_R   0.061430 0.051730 0.061450 -0.614993
O19   O     O_R   0.938570 0.051730 0.938550 -0.614955
O20   O     O_R   0.561430 0.551730 0.061450 -0.614992
O21   O     O_R   0.438570 0.551730 0.938550 -0.614947
O22   O     O_R   0.500000 0.908550 0.551750 -0.627885
O23   O     O_R   0.500000 0.448260 0.091620 -0.578239
O24   O     O_R   0.500000 0.908550 0.448250 -0.627838
O25   O     O_R   0.000000 0.408550 0.551750 -0.627890
O26   O     O_R   0.000000 0.408550 0.448250 -0.627832
O27   O     O_R   0.438570 0.000200 0.490310 -0.571782
O28   O     O_R   0.561430 0.000200 0.509690 -0.571711
O29   O     O_R   0.938570 0.500200 0.490310 -0.571782
O30   O     O_R   0.061430 0.500200 0.509690 -0.571694
O31   O     O_R   0.438570 0.000170 0.386870 -0.617712
O32   O     O_R   0.561430 0.000170 0.613130 -0.617829
O33   O     O_R   0.938570 0.500170 0.386870 -0.617713
O34   O     O_R   0.500000 0.448260 0.908380 -0.578262
O35   O     O_R   0.061430 0.500170 0.613130 -0.617856
O36   O     O_R   0.500000 0.091840 0.551720 -0.585241
O37   O     O_R   0.500000 0.091840 0.448280 -0.585235
O38   O     O_R   0.000000 0.591840 0.551720 -0.585243
O39   O     O_R   1.000000 0.591840 0.448280 -0.585236
O40   O     O_R   0.965310 0.908380 0.465300 -0.576913
O41   O     O_R   0.034690 0.908380 0.534700 -0.576905
O42   O     O_R   0.465310 0.408380 0.465300 -0.576913
O43   O     O_R   0.534690 0.408380 0.534700 -0.576906
O44   O     O_R   0.965320 0.000030 0.373720 -0.580387
O45   O     O_R   0.034680 0.000030 0.626280 -0.580363
O46   O     O_R   0.465320 0.500030 0.373720 -0.580392
O47   O     O_R   0.534680 0.500030 0.626280 -0.580364
O48   O     O_R   0.034670 0.000000 0.443070 -0.629975
Zn1   Zn    Zn3+2 0.000000 0.930910 0.000000 1.141683
Zn2   Zn    Zn3+2 0.046310 0.000030 0.546300 1.076921
Zn3   Zn    Zn3+2 0.453690 0.500030 0.453700 1.076828
Zn4   Zn    Zn3+2 0.546310 0.500030 0.546300 1.076913
Zn5   Zn    Zn3+2 0.500000 0.430910 0.000000 1.141689
Zn6   Zn    Zn3+2 0.000000 0.069090 0.000000 1.071090
Zn7   Zn    Zn3+2 0.500000 0.569090 0.000000 1.071101
Zn8   Zn    Zn3+2 0.500000 0.000200 0.569080 1.069416
Zn9   Zn    Zn3+2 0.500000 0.000200 0.430920 1.069572
Zn10  Zn    Zn3+2 0.000000 0.500200 0.569080 1.069391
Zn11  Zn    Zn3+2 1.000000 0.500200 0.430920 1.069582
Zn12  Zn    Zn3+2 0.953690 0.000030 0.453700 1.076837

loop_
_geom_bond_atom_site_label_1
_geom_bond_atom_site_label_2
_ccdc_geom_bond_type
C73   H46   S    
C141  F19   S    
C21   C26   A    
C63   C65   A    
C13   Cl16  S    
C107  C112  A    
C142  C146  A    
C89   H23   S    
C73   C93   S    
C105  C110  A    
C181  O38   A    
C75   C95   S    
C30   F14   S    
C130  C174  S    
C135  C139  A    
O43   Zn4   S    
C97   O10   A    
C124  C133  A    
C79   C99   T    
C81   C178  S    
C154  C158  A    
C33   F17   S    
C138  C143  A    
C160  H60   S    
C85   C96   S    
C28   C40   A    
C94   C152  S    
C62   C70   A    
C89   C94   S    
C170  O26   A    
C42   C170  S    
C44   Cl6   S    
C175  Cl4   S    
C146  C150  A    
C45   Cl7   S    
C106  C133  A    
C83   C171  S    
C75   H52   S    
C77   C181  S    
O19   Zn6   S    
O9    Zn6   S    
C15   H21   S    
C136  C140  A    
C106  C111  A    
O17   Zn5   S    
O40   Zn12  S    
C112  H9    S    
C32   F16   S    
C25   C29   A    
C68   C95   S    
C116  C121  A    
C171  Cl1   S    
C5    O47   A    
C71   C183  S    
C124  C137  A    
C164  C168  A    
C157  Cl21  S    
O14   Zn1   S    
C161  H2    S    
C98   C102  T    
C41   C169  S    
C17   C21   A    
C64   C66   A    
O26   Zn11  S    
C19   C23   A    
C6    O5    A    
C95   C163  S    
C114  H11   S    
C66   C76   A    
C5    C137  S    
C65   C76   A    
O4    Zn3   S    
C63   C71   A    
C74   H47   S    
C22   C27   A    
C172  Cl12  S    
O33   Zn11  S    
C97   O12   A    
C51   H38   S    
C72   H49   S    
C134  C184  S    
O5    Zn12  S    
C140  C145  A    
C53   C58   A    
O21   Zn7   S    
C159  Cl23  S    
C138  C151  A    
C35   C78   T    
C59   C63   A    
C60   C64   A    
C80   C177  S    
C52   C56   A    
C45   C50   A    
C8    H22   S    
C129  C147  A    
O42   Zn3   S    
C130  F18   S    
C9    H24   S    
C13   C85   S    
C92   C130  S    
C103  C107  A    
C72   H44   S    
C105  H7    S    
C180  O36   A    
C7    O7    A    
C137  C142  A    
C123  C132  A    
C69   C77   A    
C67   C77   A    
C167  F7    S    
C52   F9    S    
C100  C126  S    
O39   Zn11  S    
C5    O4    A    
C102  C128  S    
C176  O27   A    
C32   C74   S    
C153  F2    S    
C64   C71   A    
C30   Cl9   S    
C3    O45   A    
C128  O17   A    
C37   C42   A    
C47   Cl8   S    
O28   Zn9   S    
C47   C69   A    
C73   H50   S    
C33   C75   S    
C60   H43   S    
C56   H40   S    
C9    C36   A    
C110  C114  A    
O34   Zn5   S    
C84   C90   S    
C54   C59   A    
C182  O41   A    
O16   Zn5   S    
C24   Cl17  S    
C184  O48   A    
C155  C159  A    
C2    Cl15  S    
C156  C160  A    
C20   H30   S    
C49   C55   A    
C1    O9    A    
C75   H48   S    
C31   C84   S    
C91   F23   S    
C51   C53   A    
C82   C179  S    
C117  C122  A    
O20   Zn7   S    
C88   H12   S    
C61   C67   A    
C50   C52   A    
C14   H18   S    
C58   H41   S    
C8    C12   A    
C6    C39   S    
C8    C34   A    
C23   C28   A    
C25   H35   S    
C113  C117  A    
O41   Zn2   S    
C165  F5    S    
O24   Zn9   S    
C182  O40   A    
C57   C94   S    
C119  O13   A    
O27   Zn8   S    
C121  C134  A    
C1    C147  S    
C122  C131  A    
C112  C116  A    
C173  Cl3   S    
C18   C22   A    
C133  C150  A    
C106  H8    S    
C125  O18   A    
C84   C172  S    
O46   Zn3   S    
C30   C72   S    
C115  H13   S    
C4    C136  S    
C68   C82   T    
C168  F8    S    
O18   Zn6   S    
C35   C92   S    
C46   C80   T    
C162  H3    S    
C74   H51   S    
C29   C40   A    
C101  C127  S    
C91   C95   S    
O32   Zn8   S    
C83   C174  S    
C159  C164  A    
C96   C101  T    
C24   C86   S    
C109  F25   S    
C61   C70   A    
C58   C62   A    
O1    Zn1   S    
C108  O23   A    
C87   H1    S    
O13   Zn7   S    
C74   C94   S    
C2    C84   S    
C89   C173  S    
C91   H34   S    
C36   C41   A    
C54   F11   S    
C127  O16   A    
O31   Zn9   S    
C119  O34   A    
C1    O1    A    
C155  F4    S    
C130  H45   S    
C72   C92   S    
C26   C39   A    
C20   C25   A    
C139  C153  A    
C27   C38   A    
C86   C175  S    
C11   H26   S    
C30   C83   S    
C143  C165  A    
C6    O6    A    
C70   C182  S    
C174  H53   S    
C50   H39   S    
C45   C67   A    
C111  F27   S    
C177  O28   A    
C89   F22   S    
C19   H29   S    
O29   Zn10  S    
C119  C150  S    
C28   C34   A    
C12   H19   S    
C55   C60   A    
C132  C149  A    
C87   F1    S    
O12   Zn1   S    
C34   C41   A    
C32   Cl11  S    
C126  O19   A    
C181  O39   A    
C105  C132  A    
C158  Cl22  S    
C14   C20   A    
C47   C51   A    
O35   Zn10  S    
C88   F12   S    
C62   C69   A    
C144  C166  A    
C173  Cl18  S    
O44   Zn12  S    
C170  O25   A    
C143  C147  A    
C9    C14   A    
C154  F3    S    
C11   C16   A    
C163  H59   S    
C43   C65   A    
C151  C156  A    
C103  C129  A    
C169  O22   A    
C184  O44   A    
C24   C163  S    
C107  F24   S    
C157  C161  A    
C93   C141  S    
C141  H56   S    
C145  C167  A    
C15   C17   A    
C146  C168  A    
C23   H33   S    
C13   C152  S    
C121  C129  A    
C76   C180  S    
O45   Zn2   S    
C26   C37   A    
C10   H25   S    
C175  Cl19  S    
O36   Zn8   S    
C183  O42   A    
C79   C83   S    
C16   H20   S    
C2    H54   S    
C116  H14   S    
C104  H6    S    
C32   C85   S    
C12   C19   A    
C3    C135  S    
C118  C123  A    
C153  C157  A    
C86   C98   S    
C122  C135  A    
C49   H36   S    
O8    Zn4   S    
C56   C61   A    
C125  O14   A    
C145  C149  A    
C110  F26   S    
O11   Zn7   S    
C44   C49   A    
C88   C172  S    
O22   Zn8   S    
C11   C38   A    
C44   C66   A    
C144  C148  A    
C24   H57   S    
C117  H15   S    
C99   C125  S    
C48   C54   A    
C29   C36   A    
C10   C37   A    
O25   Zn10  S    
C38   C42   A    
C10   C15   A    
C128  O21   A    
C104  C109  A    
C31   C73   S    
C151  F28   S    
C113  H10   S    
C162  C167  A    
C169  O24   A    
C120  H17   S    
C108  O11   A    
C27   C39   A    
C164  H4    S    
C85   C173  S    
C7    C40   S    
O37   Zn9   S    
C4    O3    A    
C142  C155  A    
C43   C48   A    
C161  C166  A    
C109  C113  A    
C55   F13   S    
C7    O8    A    
C127  O20   A    
C87   C171  S    
C152  F20   S    
O47   Zn4   S    
C78   C176  S    
C90   C100  T    
C178  O29   A    
C179  O35   A    
C174  Cl14  S    
C172  Cl2   S    
C158  C162  A    
O10   Zn6   S    
C160  C165  A    
C104  C131  A    
C180  O37   A    
C177  O32   A    
C17   H27   S    
C152  H58   S    
C33   C86   S    
C3    O2    A    
C18   H28   S    
C179  O30   A    
O2    Zn12  S    
C139  C144  A    
C33   Cl13  S    
C91   C175  S    
C131  C148  A    
C126  O15   A    
C114  C118  A    
C166  F6    S    
C31   F15   S    
O48   Zn2   S    
C13   H55   S    
C97   C148  S    
C57   C81   T    
C4    O46   A    
C156  Cl20  S    
C87   C92   S    
O30   Zn11  S    
C178  O33   A    
C53   F10   S    
C88   C93   S    
O7    Zn3   S    
C163  F21   S    
C134  C138  A    
C31   Cl10  S    
O6    Zn2   S    
O23   Zn5   S    
O3    Zn4   S    
C123  C136  A    
O15   Zn1   S    
C118  H16   S    
C48   H37   S    
C46   C93   S    
O38   Zn10  S    
C103  H5    S    
C21   H31   S    
C176  O31   A    
C183  O43   A    
C108  C149  S    
C22   H32   S    
C43   Cl5   S    
C16   C18   A    
C115  C120  A    
C2    C141  S    
C111  C115  A    
C171  Cl24  S    
C59   H42   S    
C120  C124  A    
C140  C154  A    
