data_mof_unit_8562.cif
_audit_creation_date              2012-12-10T21:00:37-0500
_audit_creation_method            fapswitch 2.2
_symmetry_space_group_name_H-M    P1
_symmetry_Int_Tables_number       1
_space_group_crystal_system       triclinic
_cell_length_a                    18.155734
_cell_length_b                    18.184492
_cell_length_c                    18.395848
_cell_angle_alpha                 119.945582
_cell_angle_beta                  89.671009
_cell_angle_gamma                 120.013453
_cell_volume                      4309.37540133

loop_
_atom_site_label
_atom_site_type_symbol
_atom_type_description
_atom_site_fract_x
_atom_site_fract_y
_atom_site_fract_z
_atom_type_partial_charge
C1    C     C_R   0.109115 0.220185 0.609946 0.863922
C2    C     C_3   0.450149 0.897595 0.947611 0.009156
C3    C     C_2   0.786544 0.094461 0.996210 0.433735
C4    C     C_2   0.910498 0.300895 0.336704 0.451157
C5    C     C_2   0.089501 0.699105 0.663296 0.451158
C6    C     C_2   0.580170 0.405247 0.510524 0.437075
C7    C     C_2   0.419830 0.594753 0.489476 0.437075
C8    C     C_3   0.446414 0.033134 0.016804 -0.113594
C9    C     C_3   0.553586 0.966866 0.983196 -0.113594
C10   C     C_3   0.436396 0.402068 0.472878 -0.232469
C11   C     C_3   0.563603 0.597932 0.527122 -0.232469
C12   C     C_3   0.538840 0.456397 0.504613 0.011074
C13   C     C_3   0.461160 0.543603 0.495387 0.011074
C14   C     C_3   0.550288 0.498813 0.448350 0.024314
C15   C     C_3   0.449712 0.501186 0.551650 0.024314
C16   C     C_3   0.448091 0.445023 0.415690 -0.211512
C17   C     C_R   0.890885 0.779815 0.390054 0.863922
C18   C     C_3   0.551909 0.554977 0.584310 -0.211512
C19   C     C_R   0.156277 0.172928 0.831198 -0.088770
C20   C     C_R   0.843724 0.827071 0.168802 -0.088771
C21   C     C_R   0.392789 0.781200 0.888372 0.799878
C22   C     C_R   0.607211 0.218800 0.111628 0.799878
C23   C     C_R   0.142390 0.134732 0.741445 0.430566
C24   C     C_R   0.857609 0.865265 0.258555 0.430571
C25   C     C_R   0.060506 0.100474 0.689345 -0.035510
C26   C     C_R   0.939494 0.899526 0.310655 -0.035510
C27   C     C_R   0.995897 0.107035 0.728835 -0.120802
C28   C     C_3   0.957308 0.407781 0.420466 -0.146905
C29   C     C_R   0.004106 0.892971 0.271167 -0.120806
C30   C     C_R   0.009422 0.144295 0.818208 0.381132
C31   C     C_R   0.990582 0.855713 0.181794 0.381130
C32   C     C_R   0.091262 0.179075 0.870864 -0.137981
C33   C     C_R   0.908741 0.820929 0.129137 -0.137988
C34   C     C_R   0.989964 0.943966 0.536067 0.410467
C35   C     C_R   0.010036 0.056034 0.463933 0.410466
C36   C     C_R   0.949401 0.892390 0.444953 -0.162936
C37   C     C_R   0.050599 0.107610 0.555047 -0.162935
C38   C     C_R   0.962941 0.948545 0.407943 -0.194228
C39   C     C_3   0.042692 0.592219 0.579534 -0.146907
C40   C     C_R   0.037059 0.051455 0.592057 -0.194228
C41   C     C_R   0.662984 0.699091 0.857109 -0.133207
C42   C     C_R   0.337016 0.300908 0.142891 -0.133207
C43   C     C_R   0.614539 0.617796 0.867591 0.052538
C44   C     C_R   0.385461 0.382203 0.132409 0.052535
C45   C     C_R   0.110411 0.500385 0.889231 0.805720
C46   C     C_R   0.889589 0.499615 0.110769 0.805720
C47   C     C_R   0.593628 0.639562 0.947510 0.154742
C48   C     C_R   0.406372 0.360437 0.052490 0.154742
C49   C     C_R   0.620679 0.740927 0.013194 -0.144586
C50   C     C_3   0.449602 0.967170 0.923523 -0.189192
C51   C     C_R   0.379321 0.259072 0.986806 -0.144587
C52   C     C_R   0.667689 0.820016 0.000804 -0.133675
C53   C     C_R   0.332311 0.179983 0.999196 -0.133675
C54   C     C_R   0.688896 0.799163 0.922959 -0.031146
C55   C     C_R   0.311105 0.200837 0.077041 -0.031145
C56   C     C_R   0.592564 0.546783 0.010413 0.421607
C57   C     C_R   0.407436 0.453217 0.989586 0.421609
C58   C     C_R   0.550412 0.493059 0.049044 -0.154579
C59   C     C_R   0.449588 0.506941 0.950955 -0.154579
C60   C     C_R   0.456677 0.440555 0.034166 -0.117800
C61   C     C_3   0.550397 0.032829 0.076476 -0.189192
C62   C     C_R   0.543323 0.559444 0.965834 -0.117801
C63   C     C_R   0.129004 0.799978 0.959733 -0.091948
C64   C     C_R   0.870996 0.200023 0.040269 -0.091950
C65   C     C_R   0.119758 0.734913 0.985521 0.555510
C66   C     C_R   0.880242 0.265087 0.014480 0.555509
C67   C     C_R   0.039365 0.633441 0.942133 -0.003659
C68   C     C_R   0.960635 0.366560 0.057868 -0.003657
C69   C     C_R   0.392398 0.500278 0.608122 0.850053
C70   C     C_R   0.607602 0.499722 0.391878 0.850052
C71   C     C_R   0.971077 0.598409 0.873772 -0.256136
C72   C     C_3   0.553773 0.037860 0.959805 -0.125185
C73   C     C_R   0.028924 0.401591 0.126228 -0.256142
C74   C     C_R   0.979897 0.662599 0.849223 -0.122988
C75   C     C_R   0.020105 0.337401 0.150778 -0.122990
C76   C     C_R   0.057450 0.764024 0.892175 -0.097292
C77   C     C_R   0.942551 0.235977 0.107826 -0.097288
C78   C     C_R   0.967905 0.561658 0.024717 -0.200725
C79   C     C_R   0.032095 0.438342 0.975283 -0.200722
C80   C     C_R   0.946043 0.498162 0.054301 -0.074665
C81   C     C_R   0.053957 0.501838 0.945699 -0.074665
C82   C     C_R   0.978575 0.435393 0.029126 -0.007477
C83   C     C_3   0.446227 0.962140 0.040195 -0.125186
C84   C     C_R   0.021425 0.564608 0.970874 -0.007478
C85   C     C_R   0.393819 0.502974 0.891654 0.905684
C86   C     C_R   0.606181 0.497026 0.108346 0.905686
C87   C     C_R   0.111265 0.502487 0.608268 0.950356
C88   C     C_R   0.888735 0.497513 0.391732 0.950354
C89   C     C_3   0.060369 0.488808 0.461649 -0.177015
C90   C     C_3   0.939631 0.511192 0.538351 -0.177015
C91   C     C_3   0.046309 0.574785 0.488911 0.325317
C92   C     C_3   0.953691 0.425214 0.511089 0.325317
C93   C     C_3   0.943811 0.494619 0.447617 -0.076287
C94   C     C_3   0.549851 0.102405 0.052389 0.009156
C95   C     C_3   0.056189 0.505381 0.552383 -0.076288
C96   C     C_2   0.111206 0.225103 0.967206 0.411706
C97   C     C_2   0.888798 0.774903 0.032795 0.411712
C98   C     C_2   0.587290 0.512927 0.793587 0.354083
C99   C     C_2   0.412709 0.487073 0.206413 0.354081
C100  C     C_2   0.126772 0.480406 0.415404 0.480636
C101  C     C_2   0.873228 0.519593 0.584596 0.480635
C102  C     C_2   0.059690 0.832712 0.869147 0.433946
C103  C     C_2   0.940311 0.167289 0.130854 0.433948
C104  C     C_2   0.213457 0.905540 0.003792 0.433732
H1    H     H_    0.219169 0.199191 0.870441 0.213884
H2    H     H_    0.394913 0.241405 0.925695 0.148728
H3    H     H_    0.688042 0.897722 0.051836 0.126752
H4    H     H_    0.311959 0.102278 0.948164 0.126752
H5    H     H_    0.909241 0.521508 0.840813 0.174356
H6    H     H_    0.090760 0.478492 0.159187 0.174356
H7    H     H_    0.923890 0.633858 0.798534 0.185794
H8    H     H_    0.076111 0.366142 0.201466 0.185795
H9    H     H_    0.943188 0.609834 0.043444 0.188079
H10   H     H_    0.056812 0.390166 0.956557 0.188081
H11   H     H_    0.598466 0.070097 0.927181 0.198013
H12   H     H_    0.780831 0.800805 0.129558 0.213886
H13   H     H_    0.401533 0.929903 0.072819 0.198013
H14   H     H_    0.407559 0.939256 0.860120 0.166335
H15   H     H_    0.592441 0.060744 0.139880 0.166335
H16   H     H_    0.403550 0.062405 0.031394 0.161047
H17   H     H_    0.596450 0.937595 0.968606 0.161049
H18   H     H_    0.383942 0.321846 0.451616 0.165321
H19   H     H_    0.616058 0.678154 0.548384 0.165321
H20   H     H_    0.406184 0.400455 0.346327 0.147645
H21   H     H_    0.593816 0.599545 0.653672 0.147645
H22   H     H_    0.158264 0.692276 0.510221 0.345930
H23   H     H_    0.932877 0.079873 0.688867 0.180286
H24   H     H_    0.841736 0.307724 0.489778 0.345930
H25   H     H_    0.075829 0.256398 0.003996 0.072243
H26   H     H_    0.924180 0.743617 0.996007 0.072244
H27   H     H_    0.193426 0.107005 0.645054 0.339367
H28   H     H_    0.806571 0.892987 0.354943 0.339366
H29   H     H_    0.943654 0.137299 0.900637 0.323949
H30   H     H_    0.056353 0.862718 0.099369 0.323950
H31   H     H_    0.032987 0.929776 0.622990 0.347764
H32   H     H_    0.967012 0.070223 0.377011 0.347763
H33   H     H_    0.606439 0.502089 0.734851 0.051924
H34   H     H_    0.067127 0.920135 0.311135 0.180288
H35   H     H_    0.393560 0.497911 0.265148 0.051924
H36   H     H_    0.125284 0.480487 0.356629 0.059778
H37   H     H_    0.874716 0.519513 0.643370 0.059778
H38   H     H_    0.694446 0.591710 0.967217 0.357061
H39   H     H_    0.305553 0.408288 0.032782 0.357058
H40   H     H_    0.114388 0.914125 0.906108 0.049325
H41   H     H_    0.885613 0.085876 0.093893 0.049323
H42   H     H_    0.237176 0.940259 0.967538 0.005049
H43   H     H_    0.762824 0.059743 0.032465 0.005050
H44   H     H_    0.175903 0.720282 0.063833 0.329170
H45   H     H_    0.725939 0.860797 0.913741 0.142763
H46   H     H_    0.824097 0.279719 0.936168 0.329171
H47   H     H_    0.931217 0.251611 0.329070 0.124476
H48   H     H_    0.068783 0.748388 0.670930 0.124477
H49   H     H_    0.571376 0.385346 0.558013 0.053723
H50   H     H_    0.428623 0.614654 0.441987 0.053723
H51   H     H_    0.274062 0.139203 0.086259 0.142763
H52   H     H_    0.681474 0.685373 0.797892 0.117615
H53   H     H_    0.318525 0.314627 0.202108 0.117615
H54   H     H_    0.605088 0.758594 0.074305 0.148727
O1    O     O_3   0.251620 0.500000 0.748430 -0.526871
O2    O     O_R   0.570330 0.268390 0.136490 -0.639547
O3    O     O_R   0.134680 0.268390 0.572240 -0.569846
O4    O     O_R   0.865320 0.731610 0.427760 -0.569846
O5    O     O_R   0.306670 0.731630 0.863510 -0.618061
O6    O     O_R   0.693330 0.268370 0.136490 -0.618061
O7    O     O_R   0.135450 0.439270 0.865360 -0.642878
O8    O     O_R   0.864550 0.560730 0.134640 -0.642877
O9    O     O_R   0.429670 0.560710 0.692610 -0.657421
O10   O     O_R   0.570330 0.439290 0.307390 -0.657421
O11   O     O_R   0.308540 0.439240 0.865360 -0.574010
O12   O     O_3   0.748380 0.500000 0.251570 -0.526871
O13   O     O_R   0.691460 0.560760 0.134640 -0.574009
O14   O     O_R   0.133580 0.439310 0.571150 -0.584049
O15   O     O_R   0.866420 0.560690 0.428850 -0.584049
O16   O     O_R   0.430770 0.560690 0.864590 -0.669272
O17   O     O_R   0.569230 0.439310 0.135410 -0.669272
O18   O     O_R   0.133580 0.560760 0.692610 -0.612371
O19   O     O_R   0.866420 0.439240 0.307390 -0.612371
O20   O     O_3   0.094482 0.653735 0.476195 -0.764802
O21   O     O_3   0.905518 0.346265 0.523805 -0.764802
O22   O     O_2   0.168160 0.229175 0.007007 -0.580029
O23   O     O_R   0.134680 0.560740 0.864590 -0.642278
O24   O     O_2   0.831839 0.770822 0.992992 -0.580033
O25   O     O_3   0.209917 0.131897 0.707937 -0.759119
O26   O     O_3   0.790081 0.868096 0.292061 -0.759119
O27   O     O_3   0.940069 0.142688 0.850090 -0.734654
O28   O     O_3   0.059937 0.857327 0.149914 -0.734649
O29   O     O_3   0.981561 0.887127 0.568985 -0.710295
O30   O     O_3   0.018438 0.112873 0.431016 -0.710295
O31   O     O_2   0.543270 0.437644 0.796324 -0.568975
O32   O     O_2   0.456729 0.562356 0.203675 -0.568974
O33   O     O_2   0.182777 0.474367 0.443385 -0.502723
O34   O     O_R   0.865320 0.439260 0.135410 -0.642278
O35   O     O_2   0.817223 0.525632 0.556614 -0.502723
O36   O     O_3   0.682143 0.586163 0.017299 -0.742317
O37   O     O_3   0.317857 0.413835 0.982700 -0.742321
O38   O     O_2   0.998784 0.799305 0.808831 -0.566055
O39   O     O_2   0.001218 0.200697 0.191170 -0.566055
O40   O     O_2   0.257279 0.955408 0.081356 -0.514501
O41   O     O_2   0.742721 0.044593 0.918646 -0.514505
O42   O     O_3   0.190387 0.772807 0.052323 -0.709713
O43   O     O_3   0.809613 0.227194 0.947679 -0.709712
O44   O     O_2   0.848716 0.268066 0.277817 -0.569725
O45   O     O_R   0.306670 0.439270 0.571150 -0.599177
O46   O     O_2   0.151284 0.731934 0.722182 -0.569723
O47   O     O_2   0.622850 0.384827 0.461862 -0.531102
O48   O     O_2   0.377150 0.615172 0.538137 -0.531102
O49   O     O_R   0.693330 0.560730 0.428850 -0.599177
O50   O     O_R   0.135450 0.268370 0.694460 -0.658473
O51   O     O_R   0.864550 0.731630 0.305540 -0.658472
O52   O     O_R   0.429670 0.731610 0.863510 -0.639547
Zn1   Zn    Zn3+2 0.207400 0.586780 0.791530 1.029976
Zn2   Zn    Zn3+2 0.792600 0.413220 0.208470 1.029976
Zn3   Zn    Zn3+2 0.208510 0.413230 0.792630 1.002572
Zn4   Zn    Zn3+2 0.791490 0.586770 0.207370 1.002574
Zn5   Zn    Zn3+2 0.383150 0.586740 0.791530 0.982187
Zn6   Zn    Zn3+2 0.616850 0.413260 0.208470 0.982188
Zn7   Zn    Zn3+2 0.207400 0.413250 0.618010 1.085052
Zn8   Zn    Zn3+2 0.792600 0.586750 0.381990 1.085052

loop_
_geom_bond_atom_site_label_1
_geom_bond_atom_site_label_2
_ccdc_geom_bond_type
C15   C18   S    
C66   C68   A    
O4    Zn8   S    
C11   C18   S    
C3    H43   S    
O50   Zn3   S    
C21   O5    A    
O3    Zn7   S    
C61   H15   S    
C8    C83   S    
C41   C43   A    
C64   C77   A    
H30   O28   S    
C43   C98   S    
O9    Zn5   S    
C5    O46   D    
C63   C65   A    
C79   C82   A    
C45   O23   A    
C97   O24   D    
C47   C49   A    
C3    C64   S    
C55   H51   S    
C87   O18   A    
C72   H11   S    
C103  H41   S    
C75   H8    S    
C5    H48   S    
C102  H40   S    
C57   O37   S    
C34   C40   A    
O19   Zn2   S    
C35   C37   A    
C24   C26   A    
C97   H26   S    
C86   O17   A    
C37   C40   A    
C17   O51   A    
C10   C15   S    
C7    O48   D    
C25   C40   S    
C6    C12   S    
O6    Zn2   S    
C44   C99   S    
C78   C80   A    
C57   C59   A    
O12   Zn6   S    
C63   C76   A    
C58   C60   A    
O52   Zn5   S    
O2    Zn6   S    
C91   O20   S    
O1    Zn1   S    
C21   O52   A    
O49   Zn8   S    
O16   Zn5   S    
C103  O39   D    
H27   O25   S    
C1    O50   A    
C50   C72   S    
O34   Zn2   S    
C6    O47   D    
C100  H36   S    
C71   C74   A    
C66   O43   S    
C101  H37   S    
C48   C51   A    
C20   C24   A    
C52   H3    S    
C101  O35   D    
C35   O30   S    
C65   C67   A    
C87   C95   S    
C3    O41   D    
C31   C33   A    
C28   C89   S    
C17   C36   S    
C89   C91   S    
C2    C50   S    
C39   C90   S    
C67   C71   A    
H29   O27   S    
C41   H52   S    
C72   C94   S    
C23   C25   A    
C27   H23   S    
C67   C84   S    
H32   O30   S    
C27   C30   A    
C73   C75   A    
C99   H35   S    
C2    C83   S    
C14   C70   S    
C42   C44   A    
C47   C62   S    
C98   O31   D    
C19   C32   A    
C58   C86   S    
C39   C91   S    
C4    C28   S    
C52   C54   A    
C48   C60   S    
C54   H45   S    
C53   C55   A    
C76   C102  S    
C90   C92   S    
C15   C69   S    
C45   C81   S    
O1    Zn5   S    
O45   Zn7   S    
C89   C100  S    
C86   O13   A    
C30   O27   S    
C104  H42   S    
C88   O19   A    
C35   C38   A    
C8    C94   S    
C80   C82   A    
C61   C83   S    
C74   H7    S    
C79   C81   A    
O5    Zn1   S    
C61   C94   S    
H44   O42   S    
C57   C60   A    
C98   H33   S    
O1    Zn7   S    
C68   C73   A    
C22   C94   S    
C85   O11   A    
C88   O15   A    
C28   C93   S    
C51   C53   A    
C64   C66   A    
C89   C95   S    
C19   C23   A    
C69   O9    A    
C90   C101  S    
C23   O25   S    
C29   H34   S    
C92   O21   S    
C70   O10   A    
C42   C55   A    
C91   C93   S    
C65   O42   S    
C22   O6    A    
C9    H17   S    
C49   C52   A    
H39   O37   S    
C2    C21   S    
C85   O16   A    
H38   O36   S    
C28   C92   S    
H24   O21   S    
C96   O22   D    
O15   Zn8   S    
C75   C77   A    
C39   C95   S    
C10   C12   S    
O1    Zn3   S    
O8    Zn4   S    
C56   O36   S    
C20   C33   A    
C19   H1    S    
O7    Zn3   S    
C32   C96   S    
C12   C14   S    
C69   O45   A    
C43   C47   A    
C5    C39   S    
C56   C62   A    
C49   H54   S    
C77   C103  S    
C42   H53   S    
C74   C76   A    
C8    C50   S    
C81   C84   A    
C8    H16   S    
C90   C93   S    
C20   H12   S    
C100  O33   D    
C4    H47   S    
C88   C93   S    
C59   C62   A    
C46   O8    A    
C14   C16   S    
C50   H14   S    
C104  O40   D    
C11   H19   S    
C46   O34   A    
C63   C104  S    
C10   H18   S    
C102  O38   D    
C99   O32   D    
H31   O29   S    
C13   C16   S    
O12   Zn4   S    
C1    C37   S    
C24   O26   S    
C25   C27   A    
O11   Zn3   S    
O51   Zn4   S    
O18   Zn1   S    
O23   Zn1   S    
C26   C38   S    
O17   Zn6   S    
C83   H13   S    
C13   C15   S    
C70   O49   A    
C68   C82   S    
C18   H21   S    
C10   C16   S    
C4    O44   D    
H28   O26   S    
C30   C32   A    
C73   H6    S    
C11   C13   S    
C53   H4    S    
O10   Zn6   S    
C7    H50   S    
C22   O2    A    
O13   Zn4   S    
C51   H2    S    
C87   O14   A    
C71   H5    S    
C31   O28   S    
C36   C38   A    
C11   C14   S    
C56   C58   A    
H22   O20   S    
C9    C61   S    
C34   C36   A    
C92   C95   S    
C9    C72   S    
C16   H20   S    
C34   O29   S    
C41   C54   A    
C6    H49   S    
C17   O4    A    
C1    O3    A    
C78   H9    S    
C78   C84   A    
C7    C13   S    
O12   Zn2   S    
C26   C29   A    
C29   C31   A    
C79   H10   S    
C12   C18   S    
C46   C80   S    
H46   O43   S    
C33   C97   S    
C2    C9    S    
C45   O7    A    
C59   C85   S    
O14   Zn7   S    
C44   C48   A    
C96   H25   S    
O12   Zn8   S    
