data_mof_unit_46470.cif
_audit_creation_date              2012-12-10T17:20:50-0500
_audit_creation_method            fapswitch 2.2
_symmetry_space_group_name_H-M    P1
_symmetry_Int_Tables_number       1
_space_group_crystal_system       triclinic
_cell_length_a                    14.331822
_cell_length_b                    10.840867
_cell_length_c                    9.651141
_cell_angle_alpha                 89.729575
_cell_angle_beta                  90.283297
_cell_angle_gamma                 93.516192
_cell_volume                      1496.63602498

loop_
_atom_site_label
_atom_site_type_symbol
_atom_type_description
_atom_site_fract_x
_atom_site_fract_y
_atom_site_fract_z
_atom_type_partial_charge
C1    C     C_R   0.496869 0.262611 0.500394 0.835733
C2    C     C_R   0.551486 0.067582 0.415326 0.420067
C3    C     C_R   0.548358 0.939265 0.415613 -0.273336
C4    C     C_R   0.331196 0.495389 0.499682 0.792764
C5    C     C_R   0.485102 0.870097 0.498231 -0.105377
C6    C     C_R   0.617112 0.671940 0.149830 -0.286901
C7    C     C_R   0.666284 0.771191 0.087715 0.250789
C8    C     C_R   0.660709 0.784335 0.945703 0.329164
C9    C     C_R   0.619270 0.687130 0.865599 0.361741
C10   C     C_R   0.557527 0.589807 0.926962 0.079894
C11   C     C_R   0.557059 0.586800 0.076317 0.030577
C12   C     C_1   0.771037 0.498989 0.500632 -0.162247
C13   C     C_R   0.444751 0.417720 0.074158 0.538053
C14   C     C_R   0.445601 0.417896 0.925789 -0.131703
C15   C     C_R   0.494978 0.736856 0.499739 0.846997
C16   C     C_R   0.668675 0.499686 0.500191 0.830711
C17   C     C_1   0.228692 0.494336 0.499143 -0.125082
C18   C     C_1   0.143237 0.494682 0.499335 0.037001
C19   C     C_1   0.042568 0.495772 0.499830 0.041945
C20   C     C_1   0.957140 0.496869 0.500243 0.041517
C21   C     C_1   0.856471 0.498125 0.500588 0.021483
C22   C     C_R   0.358576 0.120076 0.666824 -0.324262
C23   C     C_R   0.294777 0.052939 0.752087 0.350841
C24   C     C_R   0.288198 0.924504 0.744281 0.227698
C25   C     C_R   0.344162 0.863462 0.651738 0.286303
C26   C     C_R   0.418036 0.929383 0.578927 -0.044951
C27   C     C_R   0.423089 0.060254 0.583622 -0.046218
C28   C     C_R   0.490241 0.128108 0.500967 -0.073207
Cu1   Cu    Cu3+1 0.499990 0.499990 0.640660 1.015518
Cu2   Cu    Cu3+1 0.500010 0.500010 0.359340 1.017119
H1    H     H_    0.401198 0.351029 0.869570 0.118499
H2    H     H_    0.351643 0.279737 0.079567 0.309731
H3    H     H_    0.731677 0.821374 0.258563 0.321199
H4    H     H_    0.355483 0.219128 0.665914 0.156767
H5    H     H_    0.597667 0.892595 0.353619 0.153815
H6    H     H_    0.628023 0.667475 0.257383 0.217059
H7    H     H_    0.653736 0.079340 0.282064 0.352111
H8    H     H_    0.721266 0.951640 0.946545 0.385314
H9    H     H_    0.709480 0.728709 0.717896 0.346514
H10   H     H_    0.248564 0.201597 0.832816 0.318086
H11   H     H_    0.315764 0.736670 0.520904 0.297609
I1    I     I_    0.184892 0.821816 0.861545 -0.188946
N1    N     N_R   0.500820 0.501210 0.147910 -0.169180
N2    N     N_R   0.500850 0.501290 0.852040 -0.166991
O1    O     O_R   0.499990 0.319640 0.618810 -0.604534
O2    O     O_3   0.702612 0.886444 0.878568 -0.709245
O3    O     O_3   0.646498 0.686917 0.730359 -0.680069
O4    O     O_3   0.235059 0.110921 0.838843 -0.687661
O5    O     O_3   0.317737 0.742783 0.623340 -0.697254
O6    O     O_3   0.387369 0.333662 0.146385 -0.690314
O7    O     O_3   0.724148 0.853181 0.162950 -0.731009
O8    O     O_R   0.500000 0.319660 0.381240 -0.482843
O9    O     O_R   0.376050 0.499990 0.618810 -0.537611
O10   O     O_R   0.376060 0.500010 0.381240 -0.531002
O11   O     O_R   0.500000 0.680340 0.618760 -0.474434
O12   O     O_R   0.500010 0.680360 0.381190 -0.616395
O13   O     O_R   0.623940 0.499990 0.618760 -0.499200
O14   O     O_R   0.623950 0.500010 0.381190 -0.582367
O15   O     O_3   0.616384 0.136014 0.336244 -0.710278

loop_
_geom_bond_atom_site_label_1
_geom_bond_atom_site_label_2
_ccdc_geom_bond_type
C1    C28   S    
C23   C24   A    
C11   N1    A    
Cu1   Cu2   S    
C4    O9    A    
H3    O7    S    
C24   I1    S    
C9    C10   A    
C19   C20   T    
C3    H5    S    
C14   H1    S    
C22   C27   A    
H2    O6    S    
C15   O12   A    
C2    C3    A    
C7    O7    S    
C7    C8    A    
C16   O14   A    
C13   C14   A    
C24   C25   A    
Cu2   O10   S    
C1    O1    A    
C26   C27   A    
H7    O15   S    
Cu1   O9    S    
C4    C17   S    
Cu2   O14   S    
H11   O5    S    
C13   O6    S    
C6    H6    S    
C17   C18   T    
C6    C7    A    
C25   O5    S    
C16   O13   A    
Cu1   N2    S    
C22   H4    S    
C1    O8    A    
C8    O2    S    
Cu2   N1    S    
H8    O2    S    
C9    O3    S    
C5    C15   S    
C10   C11   A    
C10   N2    A    
C5    C26   A    
C3    C5    A    
C13   N1    A    
C20   C21   S    
C14   N2    A    
C18   C19   S    
Cu1   O1    S    
C6    C11   A    
H10   O4    S    
Cu2   O8    S    
C22   C23   A    
C2    C28   A    
C23   O4    S    
Cu1   O11   S    
C4    O10   A    
C25   C26   A    
C2    O15   S    
H9    O3    S    
Cu2   O12   S    
C12   C21   T    
C12   C16   S    
Cu1   O13   S    
C8    C9    A    
C27   C28   A    
C15   O11   A    
