data_mof_unit_63532.cif
_audit_creation_date              2012-12-10T19:52:21-0500
_audit_creation_method            fapswitch 2.2
_symmetry_space_group_name_H-M    P1
_symmetry_Int_Tables_number       1
_space_group_crystal_system       triclinic
_cell_length_a                    18.276374
_cell_length_b                    18.276952
_cell_length_c                    31.95515
_cell_angle_alpha                 89.999669
_cell_angle_beta                  90.000654
_cell_angle_gamma                 89.999799
_cell_volume                      10674.1835967

loop_
_atom_site_label
_atom_site_type_symbol
_atom_type_description
_atom_site_fract_x
_atom_site_fract_y
_atom_site_fract_z
_atom_type_partial_charge
C1    C     C_R   0.641234 0.500020 1.000000 0.932143
C2    C     C_R   0.358766 0.500020 0.000000 0.934160
C3    C     C_R   0.141234 0.000020 0.500000 0.931924
C4    C     C_R   0.858766 0.000020 0.500000 0.934144
C5    C     C_3   0.504132 0.568727 0.736054 0.028860
C6    C     C_3   0.503600 0.568760 0.263945 0.028844
C7    C     C_3   0.000785 0.068851 0.236054 0.028842
C8    C     C_3   0.994720 0.068657 0.763945 0.028820
C9    C     C_1   0.500003 0.500398 0.837096 -0.010892
C10   C     C_1   0.500000 0.500396 0.162904 -0.010858
C11   C     C_1   0.999972 0.000399 0.337096 -0.010836
C12   C     C_1   0.999908 0.000395 0.662904 -0.010823
C13   C     C_1   0.500022 0.499920 0.662907 0.001426
C14   C     C_1   0.500019 0.499925 0.337093 0.001431
C15   C     C_1   0.000017 0.999926 0.162908 0.001420
C16   C     C_1   0.000001 0.999930 0.837092 0.001482
C17   C     C_1   0.717670 0.500055 1.000000 -0.182177
C18   C     C_1   0.282330 0.500056 0.000000 -0.180116
C19   C     C_1   0.217670 0.000055 0.499999 -0.182467
C20   C     C_1   0.782330 0.000056 0.500001 -0.179945
C21   C     C_1   0.782422 0.500047 0.999999 -0.179015
C22   C     C_1   0.217578 0.500047 0.000001 -0.177135
C23   C     C_1   0.282422 0.000047 0.499999 -0.179407
C24   C     C_1   0.717578 0.000047 0.500001 -0.176930
C25   C     C_R   0.500000 0.358644 0.500000 0.932806
C26   C     C_R   0.000000 0.858644 1.000000 0.932813
C27   C     C_R   0.500001 0.499853 0.581298 0.904921
C28   C     C_R   0.500000 0.499853 0.418702 0.904935
C29   C     C_R   0.000001 0.999853 0.081298 0.904960
C30   C     C_R   1.000000 0.999854 0.918702 0.904973
C31   C     C_R   0.500000 0.641076 0.500000 0.932101
C32   C     C_R   1.000000 0.141076 0.000000 0.932165
C33   C     C_R   1.000000 0.641107 1.000000 0.929113
C34   C     C_R   0.500000 0.141107 0.500000 0.929144
C35   C     C_R   0.858859 0.500017 1.000000 0.928132
C36   C     C_R   0.141141 0.500017 0.000000 0.928887
C37   C     C_R   0.358859 0.000017 0.500000 0.928179
C38   C     C_R   0.641141 0.000017 0.500000 0.928972
C39   C     C_R   0.499997 0.500007 0.918703 0.904956
C40   C     C_R   0.499997 0.500007 0.081297 0.904946
C41   C     C_R   0.999998 0.000007 0.418703 0.904865
C42   C     C_R   0.999999 0.000007 0.581297 0.904738
C43   C     C_R   1.000000 0.358841 0.000000 0.927717
C44   C     C_R   0.500000 0.858841 0.500000 0.927813
C45   C     C_1   0.500000 0.282241 0.500000 -0.182434
C46   C     C_1   0.000000 0.782241 1.000000 -0.182475
C47   C     C_1   0.000000 0.717510 1.000000 -0.178659
C48   C     C_1   0.500000 0.217510 0.500000 -0.178654
C49   C     C_1   0.499999 0.717566 0.500000 -0.182781
C50   C     C_1   0.999999 0.217566 0.000000 -0.182707
C51   C     C_1   0.999999 0.282350 0.000000 -0.179645
C52   C     C_1   0.499999 0.782350 0.500000 -0.179785
C53   C     C_3   0.557405 0.462675 0.736300 0.022022
C54   C     C_3   0.557688 0.463121 0.263702 0.021913
C55   C     C_3   0.438663 0.469759 0.736313 0.060102
C56   C     C_3   0.438896 0.469290 0.263687 0.060188
C57   C     C_3   0.059135 0.965506 0.236300 0.021880
C58   C     C_3   0.061898 0.970819 0.763701 0.021943
C59   C     C_3   0.940189 0.966826 0.236313 0.060237
C60   C     C_3   0.943294 0.961716 0.763688 0.060238
C61   C     C_3   0.562290 0.531720 0.763959 -0.041178
C62   C     C_3   0.562042 0.532199 0.236042 -0.041164
C63   C     C_3   0.441952 0.538900 0.763942 -0.043579
C64   C     C_3   0.441653 0.538452 0.236055 -0.043527
C65   C     C_3   0.060667 0.034705 0.263959 -0.041219
C66   C     C_3   0.057363 0.039886 0.736041 -0.041386
C67   C     C_3   0.940123 0.036045 0.263942 -0.043456
C68   C     C_3   0.937165 0.030662 0.736056 -0.043338
C69   C     C_1   0.499996 0.500092 0.874437 -0.164411
C70   C     C_1   0.499996 0.500090 0.125563 -0.164397
C71   C     C_1   0.999983 0.000092 0.374437 -0.164365
C72   C     C_1   0.999956 0.000090 0.625563 -0.164349
C73   C     C_1   0.500006 0.499870 0.625565 -0.171129
C74   C     C_1   0.500004 0.499873 0.374435 -0.171122
C75   C     C_1   0.000005 0.999873 0.125565 -0.171139
C76   C     C_1   1.000000 0.999876 0.874435 -0.171133
C77   C     C_3   0.495994 0.432119 0.764054 0.078973
C78   C     C_3   0.496516 0.432090 0.235948 0.078922
C79   C     C_3   0.999277 0.932008 0.264053 0.078919
C80   C     C_3   0.005204 0.932206 0.735948 0.078874
C81   C     C_3   0.500035 0.500972 0.791825 0.018202
C82   C     C_3   0.500027 0.500971 0.208175 0.018213
C83   C     C_3   0.999976 0.000976 0.291825 0.018202
C84   C     C_3   0.999859 0.000969 0.708175 0.018202
C85   C     C_3   0.500051 0.500058 0.708148 0.101767
C86   C     C_3   0.500047 0.500062 0.291852 0.101769
C87   C     C_3   0.000037 0.000065 0.208148 0.101754
C88   C     C_3   0.000000 0.000071 0.791852 0.101780
O1    O     O_R   0.607370 0.439420 0.000000 -0.620118
O2    O     O_R   0.392630 0.439420 0.000000 -0.618175
O3    O     O_R   0.107370 0.939420 0.500000 -0.620071
O4    O     O_R   0.892630 0.939420 0.500000 -0.618066
O5    O     O_R   0.000000 0.392690 0.965220 -0.618668
O6    O     O_R   0.000000 0.392690 0.034780 -0.618834
O7    O     O_R   0.500000 0.892690 0.465220 -0.618841
O8    O     O_R   0.500000 0.892690 0.534780 -0.618856
O9    O     O_R   0.607290 0.560580 0.000000 -0.617196
O10   O     O_R   0.392710 0.560580 0.000000 -0.617311
O11   O     O_R   0.107290 0.060580 0.500000 -0.617159
O12   O     O_R   0.892710 0.060580 0.500000 -0.617466
O13   O     O_R   0.500000 0.439420 0.938390 -0.616837
O14   O     O_R   0.500000 0.439420 0.061610 -0.616757
O15   O     O_R   0.000000 0.939420 0.438390 -0.616621
O16   O     O_R   0.000000 0.939420 0.561610 -0.616389
O17   O     O_R   0.500000 0.560580 0.938390 -0.615248
O18   O     O_R   0.500000 0.560580 0.061610 -0.615304
O19   O     O_R   0.000000 0.060580 0.438390 -0.615353
O20   O     O_R   0.000000 0.060580 0.561610 -0.615419
O21   O     O_R   0.560550 0.392540 0.500000 -0.617989
O22   O     O_R   0.439450 0.392540 0.500000 -0.618433
O23   O     O_R   0.060550 0.892540 0.000000 -0.617901
O24   O     O_R   0.939450 0.892540 0.000000 -0.618369
O25   O     O_R   0.560580 0.499860 0.561610 -0.615862
O26   O     O_R   0.560580 0.499860 0.438390 -0.615819
O27   O     O_R   0.439420 0.499860 0.561610 -0.615841
O28   O     O_R   0.439420 0.499860 0.438390 -0.615896
O29   O     O_R   0.060580 0.999860 0.061610 -0.615833
O30   O     O_R   0.060580 0.999860 0.938390 -0.615896
O31   O     O_R   0.939420 0.999860 0.061610 -0.615907
O32   O     O_R   0.939420 0.999860 0.938390 -0.615861
O33   O     O_R   0.560630 0.607160 0.500000 -0.617496
O34   O     O_R   0.439370 0.607160 0.500000 -0.618945
O35   O     O_R   0.060630 0.107160 0.000000 -0.617614
O36   O     O_R   0.939370 0.107160 0.000000 -0.619020
O37   O     O_R   0.000000 0.607310 0.965210 -0.618363
O38   O     O_R   0.000000 0.607310 0.034790 -0.618286
O39   O     O_R   0.500000 0.107310 0.465210 -0.618263
O40   O     O_R   0.500000 0.107310 0.534790 -0.618337
O41   O     O_R   0.892680 0.500000 0.965220 -0.618561
O42   O     O_R   0.892680 0.500000 0.034780 -0.618622
O43   O     O_R   0.107320 0.500000 0.965220 -0.617742
O44   O     O_R   0.107320 0.500000 0.034780 -0.617736
O45   O     O_R   0.392680 0.000000 0.465220 -0.618643
O46   O     O_R   0.392680 0.000000 0.534780 -0.619021
O47   O     O_R   0.607320 0.000000 0.465220 -0.617698
O48   O     O_R   0.607320 0.000000 0.534780 -0.617460
Zn1   Zn    Zn3+2 0.500000 0.419100 0.000000 0.982480
Zn2   Zn    Zn3+2 0.000000 0.919100 0.500000 0.983122
Zn3   Zn    Zn3+2 0.500000 0.580900 0.000000 0.987291
Zn4   Zn    Zn3+2 0.000000 0.080900 0.500000 0.987096
Zn5   Zn    Zn3+2 0.580910 0.499830 0.500000 0.984545
Zn6   Zn    Zn3+2 0.419090 0.499830 0.500000 0.984022
Zn7   Zn    Zn3+2 0.080910 0.999830 0.000000 0.984481
Zn8   Zn    Zn3+2 0.919090 0.999830 0.000000 0.983866
Zn9   Zn    Zn3+2 0.000000 0.500000 0.953550 0.984746
Zn10  Zn    Zn3+2 0.000000 0.500000 0.046450 0.984573
Zn11  Zn    Zn3+2 0.500000 0.000000 0.453550 0.984456
Zn12  Zn    Zn3+2 0.500000 0.000000 0.546450 0.984247
C89   C     C_1   0.630011 0.566027 0.778883 0.182237
N1    N     N_1   0.683414 0.593072 0.790660 -0.197374
C90   C     C_1   0.629498 0.567028 0.221118 0.182194
N2    N     N_1   0.682690 0.594482 0.209341 -0.197614
C91   C     C_1   0.378678 0.580887 0.778832 0.183588
N3    N     N_1   0.328792 0.614001 0.790581 -0.195652
C92   C     C_1   0.378058 0.579949 0.221163 0.183477
N4    N     N_1   0.327918 0.612676 0.209412 -0.195701
C93   C     C_1   0.126647 0.072255 0.278883 0.182264
N5    N     N_1   0.178676 0.101856 0.290659 -0.197667
C94   C     C_1   0.119802 0.083069 0.721118 0.182398
N6    N     N_1   0.169039 0.117111 0.709343 -0.197603
C95   C     C_1   0.874889 0.074916 0.278833 0.183378
N7    N     N_1   0.823457 0.105573 0.290583 -0.195774
C96   C     C_1   0.868778 0.063670 0.721163 0.183342
N8    N     N_1   0.814860 0.089704 0.709410 -0.195818
N9    N     N_3   0.619342 0.420219 0.721082 -0.449567
H1    H     H_    0.649543 0.403737 0.747198 0.188726
H2    H     H_    0.652678 0.455724 0.703955 0.200708
N10   N     N_3   0.619950 0.421145 0.278924 -0.449204
H3    H     H_    0.650262 0.404867 0.252809 0.188980
H4    H     H_    0.653026 0.456915 0.296037 0.200774
N11   N     N_3   0.371659 0.435848 0.721094 -0.440033
H5    H     H_    0.342446 0.417768 0.747232 0.204438
H6    H     H_    0.386697 0.389259 0.704203 0.192549
N12   N     N_3   0.372154 0.434866 0.278904 -0.440249
H7    H     H_    0.343100 0.416529 0.252767 0.204319
H8    H     H_    0.387551 0.388415 0.295814 0.192470
N13   N     N_3   0.123057 0.926101 0.221082 -0.449039
H9    H     H_    0.154025 0.911107 0.247197 0.188983
H10   H     H_    0.154631 0.963179 0.203952 0.200757
N14   N     N_3   0.129027 0.937167 0.778921 -0.448995
H11   H     H_    0.161170 0.924902 0.752804 0.188710
H12   H     H_    0.157251 0.976883 0.796029 0.200643
N15   N     N_3   0.874906 0.929711 0.221093 -0.440259
H13   H     H_    0.846610 0.910225 0.247230 0.204368
H14   H     H_    0.892184 0.883913 0.204195 0.192357
N16   N     N_3   0.881514 0.919025 0.778908 -0.440050
H15   H     H_    0.855027 0.897143 0.752770 0.204637
H16   H     H_    0.902739 0.874911 0.795801 0.192183
N17   N     N_3   0.509125 0.643316 0.720269 -0.439162
H17   H     H_    0.508565 0.678267 0.746145 0.195502
H18   H     H_    0.461331 0.653771 0.703346 0.194294
N18   N     N_3   0.508017 0.643385 0.279727 -0.439263
H19   H     H_    0.507178 0.678329 0.253850 0.195409
H20   H     H_    0.460147 0.653469 0.296653 0.194321
N19   N     N_3   0.002156 0.143594 0.220271 -0.439370
H21   H     H_    0.999877 0.178476 0.246147 0.195372
H22   H     H_    0.953923 0.151714 0.203336 0.194370
N20   N     N_3   0.989537 0.143233 0.779727 -0.439520
H23   H     H_    0.984259 0.177785 0.753849 0.195335
H24   H     H_    0.940755 0.147108 0.796638 0.194479
N21   N     N_3   0.491010 0.357322 0.779460 -0.445770
H25   H     H_    0.492243 0.322749 0.753428 0.196099
H26   H     H_    0.538531 0.346853 0.796628 0.194163
N22   N     N_3   0.492109 0.357257 0.220543 -0.445632
H27   H     H_    0.493556 0.322697 0.246578 0.196226
H28   H     H_    0.539732 0.347138 0.203400 0.194289
N23   N     N_3   0.997925 0.857058 0.279460 -0.445544
H29   H     H_    0.000777 0.822584 0.253426 0.196271
H30   H     H_    0.045922 0.848888 0.296602 0.194312
N24   N     N_3   0.010423 0.857425 0.720543 -0.445482
H31   H     H_    0.016297 0.823336 0.746577 0.196327
H32   H     H_    0.058945 0.853493 0.703395 0.194167

loop_
_geom_bond_atom_site_label_1
_geom_bond_atom_site_label_2
_ccdc_geom_bond_type
O6    Zn10  S    
C15   C75   T    
N11   H5    S    
C67   C83   S    
N9    H1    S    
C26   O24   A    
C78   C82   S    
O42   Zn10  S    
N21   H25   S    
C57   C79   S    
C8    N20   S    
C96   N8    T    
O32   Zn8   S    
C80   C84   S    
O4    Zn2   S    
C95   N7    T    
O38   Zn10  S    
C8    C66   S    
C29   O31   A    
C64   C92   S    
C12   C84   S    
C93   N5    T    
C40   C70   S    
C63   C81   S    
C14   C74   T    
C40   O18   A    
O29   Zn7   S    
C59   C79   S    
C78   N22   S    
C36   O44   A    
N24   H31   S    
C66   C84   S    
C55   C77   S    
O1    Zn1   S    
C11   C71   T    
C65   C83   S    
C2    C18   S    
O9    Zn3   S    
C3    O11   A    
C57   N13   S    
C43   O6    A    
C56   C78   S    
C5    C63   S    
C3    O3    A    
C6    C64   S    
O19   Zn4   S    
O22   Zn6   S    
C32   O36   A    
N12   H7    S    
C59   N15   S    
C28   O28   A    
C59   C67   S    
C53   C61   S    
C58   C66   S    
C7    C87   S    
C20   C24   T    
O25   Zn5   S    
C34   O39   A    
N13   H10   S    
C55   C63   S    
O35   Zn7   S    
C24   C38   S    
C90   N2    T    
C56   C64   S    
O5    Zn9   S    
N20   H23   S    
O45   Zn11  S    
C38   O48   A    
O12   Zn4   S    
C35   O41   A    
O41   Zn9   S    
C58   C80   S    
C41   C71   S    
C5    C85   S    
C44   C52   S    
N10   H4    S    
C62   C82   S    
O27   Zn6   S    
C28   C74   S    
N9    H2    S    
C16   C76   T    
O31   Zn8   S    
N21   H26   S    
C32   O35   A    
C68   C96   S    
C31   C49   S    
C33   O37   A    
C66   C94   S    
N14   H12   S    
C39   O13   A    
C9    C81   S    
C60   C88   S    
O8    Zn12  S    
C1    O1    A    
C6    N18   S    
C62   C90   S    
N23   H29   S    
C55   N11   S    
O26   Zn5   S    
O33   Zn5   S    
O7    Zn11  S    
C14   C86   S    
C59   C87   S    
C65   C93   S    
O30   Zn7   S    
C16   C88   S    
O15   Zn2   S    
C1    O9    A    
C54   C86   S    
O13   Zn1   S    
O40   Zn12  S    
C54   C62   S    
C30   O30   A    
C40   O14   A    
C11   C83   S    
C23   C37   S    
C29   O29   A    
C10   C82   S    
C17   C21   T    
C41   O15   A    
C42   O16   A    
C8    C88   S    
O14   Zn1   S    
C68   C84   S    
C55   C85   S    
C19   C23   T    
N15   H13   S    
C44   O8    A    
C80   N24   S    
C25   O21   A    
O17   Zn3   S    
O3    Zn2   S    
C30   C76   S    
C67   C95   S    
C56   C86   S    
C94   N6    T    
C77   C81   S    
C49   C52   T    
C32   C50   S    
C77   N21   S    
C42   C72   S    
C50   C51   T    
C39   C69   S    
C5    C61   S    
C38   O47   A    
N22   H27   S    
C3    C19   S    
C35   O42   A    
C64   C82   S    
O48   Zn12  S    
C31   O33   A    
C28   O26   A    
C25   O22   A    
O28   Zn6   S    
C27   O25   A    
C53   N9    S    
N10   H3    S    
N22   H28   S    
C8    C68   S    
O47   Zn11  S    
C4    O12   A    
C4    O4    A    
C53   C77   S    
C33   C47   S    
C37   O45   A    
O11   Zn4   S    
C36   O43   A    
C34   C48   S    
O34   Zn6   S    
N16   H16   S    
C25   C45   S    
O2    Zn1   S    
C22   C36   S    
N14   H11   S    
C15   C87   S    
C45   C48   T    
O20   Zn4   S    
C39   O17   A    
C46   C47   T    
C60   C80   S    
C60   N16   S    
C41   O19   A    
C18   C22   T    
C1    C17   S    
C7    C65   S    
C10   C70   T    
C31   O34   A    
C13   C73   T    
N20   H24   S    
C58   C88   S    
C58   N14   S    
C34   O40   A    
C29   C75   S    
O23   Zn7   S    
N11   H6    S    
O46   Zn12  S    
N24   H32   S    
C6    C86   S    
O10   Zn3   S    
C60   C68   S    
O44   Zn10  S    
N18   H19   S    
C6    C62   S    
C53   C85   S    
C21   C35   S    
N16   H15   S    
C5    N17   S    
C44   O7    A    
C61   C81   S    
C89   N1    T    
C79   C83   S    
C9    C69   T    
O24   Zn8   S    
O18   Zn3   S    
C30   O32   A    
C61   C89   S    
C43   C51   S    
C79   N23   S    
C33   O38   A    
C43   O5    A    
C54   C78   S    
O16   Zn2   S    
O43   Zn9   S    
C57   C65   S    
C12   C72   T    
N17   H17   S    
C42   O20   A    
N12   H8    S    
C26   C46   S    
C7    C67   S    
N19   H21   S    
C4    C20   S    
C54   N10   S    
C57   C87   S    
C56   N12   S    
C2    O10   A    
N15   H14   S    
C2    O2    A    
N13   H9    S    
O39   Zn11  S    
C13   C85   S    
C92   N4    T    
N23   H30   S    
C37   O46   A    
O36   Zn8   S    
O21   Zn5   S    
N17   H18   S    
C91   N3    T    
C27   C73   S    
C63   C91   S    
C7    N19   S    
C26   O23   A    
O37   Zn9   S    
N18   H20   S    
N19   H22   S    
C27   O27   A    
