data_mof_unit_36265.cif
_audit_creation_date              2012-10-26T21:29:56-0400
_audit_creation_method            fapswitch 2.2
_symmetry_space_group_name_H-M    P1
_symmetry_Int_Tables_number       1
_space_group_crystal_system       triclinic
_cell_length_a                    26.793217
_cell_length_b                    26.766966
_cell_length_c                    26.744362
_cell_angle_alpha                 89.94466
_cell_angle_beta                  90.107267
_cell_angle_gamma                 89.747075
_cell_volume                      19180.1081704

loop_
_atom_site_label
_atom_site_type_symbol
_atom_type_description
_atom_site_fract_x
_atom_site_fract_y
_atom_site_fract_z
_atom_type_partial_charge
C1    C     C_R   0.926120 0.705186 0.294819 0.590224
C2    C     C_R   0.070178 0.701516 0.298611 0.585873
C3    C     C_R   0.822487 0.113242 0.823773 -0.004212
C4    C     C_R   0.177594 0.886671 0.823714 -0.000929
C5    C     C_R   0.822371 0.113376 0.176329 -0.001273
C6    C     C_R   0.821905 0.886375 0.823251 -0.005152
C7    C     C_R   0.170936 0.105940 0.170822 0.008772
C8    C     C_R   0.113200 0.176164 0.177435 -0.003877
C9    C     C_R   0.886289 0.821829 0.823197 -0.001684
C10   C     C_R   0.105957 0.170905 0.829158 0.010885
C11   C     C_R   0.886156 0.821787 0.176934 0.002055
C12   C     C_R   0.113367 0.822398 0.823688 0.001566
C13   C     C_R   0.298115 0.298441 0.929416 0.588774
C14   C     C_R   0.886615 0.177617 0.176327 -0.001980
C15   C     C_R   0.113700 0.823168 0.178167 -0.004503
C16   C     C_R   0.886690 0.177550 0.823721 -0.000658
C17   C     C_R   0.828958 0.171062 0.893856 0.009324
C18   C     C_R   0.178235 0.822955 0.113898 -0.002859
C19   C     C_R   0.816340 0.816334 0.880438 0.001435
C20   C     C_R   0.177509 0.176154 0.113165 0.001236
C21   C     C_R   0.170949 0.829075 0.893984 0.010835
C22   C     C_R   0.829094 0.170877 0.105984 0.008778
C23   C     C_R   0.176102 0.177410 0.886913 -0.002936
C24   C     C_R   0.701865 0.701530 0.070553 0.588514
C25   C     C_R   0.816191 0.816313 0.119650 0.000695
C26   C     C_R   0.315450 0.379740 0.184518 -0.006622
C27   C     C_R   0.671048 0.605986 0.829104 0.008525
C28   C     C_R   0.177709 0.386521 0.676427 -0.002316
C29   C     C_R   0.823147 0.613738 0.321781 -0.004656
C30   C     C_R   0.683675 0.380288 0.816084 0.005355
C31   C     C_R   0.322536 0.613213 0.176200 -0.006966
C32   C     C_R   0.823799 0.386785 0.322550 -0.002643
C33   C     C_R   0.184745 0.620487 0.684723 -0.005674
C34   C     C_R   0.315674 0.620129 0.815573 -0.003994
C35   C     C_R   0.070176 0.298605 0.298506 0.589917
C36   C     C_R   0.677456 0.386773 0.176246 -0.003366
C37   C     C_R   0.178171 0.613666 0.323213 -0.006266
C38   C     C_R   0.821850 0.386346 0.676784 -0.000321
C39   C     C_R   0.670922 0.605924 0.170805 0.008823
C40   C     C_R   0.329077 0.394062 0.829176 0.009191
C41   C     C_R   0.822497 0.613207 0.676193 -0.003031
C42   C     C_R   0.183503 0.380519 0.316357 0.000884
C43   C     C_R   0.613137 0.176109 0.677384 -0.004412
C44   C     C_R   0.379716 0.815405 0.315498 -0.005609
C45   C     C_R   0.613192 0.676133 0.822539 -0.003322
C46   C     C_R   0.929299 0.701966 0.701639 0.588053
C47   C     C_R   0.379580 0.315327 0.184672 -0.004030
C48   C     C_R   0.613087 0.822666 0.323893 -0.005906
C49   C     C_R   0.386458 0.176651 0.678136 -0.004082
C50   C     C_R   0.613178 0.322532 0.176184 -0.007855
C51   C     C_R   0.379793 0.684383 0.815509 -0.002196
C52   C     C_R   0.386698 0.823782 0.677565 -0.003889
C53   C     C_R   0.606393 0.171127 0.328941 0.001285
C54   C     C_R   0.386934 0.323923 0.822667 -0.005069
C55   C     C_R   0.613096 0.676093 0.177337 -0.004778
C56   C     C_R   0.380401 0.183672 0.316323 0.003456
C57   C     C_R   0.699118 0.300894 0.066992 0.579813
C58   C     C_R   0.619644 0.816375 0.683821 0.005306
C59   C     C_R   0.386799 0.677475 0.176184 -0.000038
C60   C     C_R   0.613561 0.323335 0.821860 -0.005259
C61   C     C_R   0.822913 0.678339 0.386008 -0.001135
C62   C     C_R   0.171088 0.328888 0.606210 0.010320
C63   C     C_R   0.315599 0.815535 0.379817 -0.006516
C64   C     C_R   0.677448 0.176104 0.613107 -0.000899
C65   C     C_R   0.178094 0.323157 0.386293 -0.006856
C66   C     C_R   0.829073 0.670885 0.605981 0.010691
C67   C     C_R   0.671250 0.171185 0.393603 0.000926
C68   C     C_R   0.295086 0.704911 0.926429 0.584102
C69   C     C_R   0.322342 0.823771 0.613298 -0.002024
C70   C     C_R   0.184514 0.684542 0.620270 -0.006946
C71   C     C_R   0.823862 0.322454 0.386855 -0.004556
C72   C     C_R   0.677113 0.821703 0.614007 -0.003366
C73   C     C_R   0.323177 0.178139 0.386318 -0.003791
C74   C     C_R   0.816246 0.316302 0.619625 0.001142
C75   C     C_R   0.183747 0.683708 0.380369 -0.000741
C76   C     C_R   0.321684 0.177116 0.614030 -0.000155
C77   C     C_R   0.670912 0.829129 0.394036 0.009348
C78   C     C_R   0.328930 0.893984 0.670921 0.009959
C79   C     C_R   0.294842 0.073850 0.705138 0.589313
C80   C     C_R   0.671206 0.106377 0.328928 0.001257
C81   C     C_R   0.676695 0.886444 0.678104 -0.006599
C82   C     C_R   0.323011 0.113862 0.321759 -0.005550
C83   C     C_R   0.677344 0.886953 0.323914 -0.005891
C84   C     C_R   0.316344 0.119701 0.683919 0.005806
C85   C     C_R   0.315333 0.879569 0.315338 -0.004390
C86   C     C_R   0.670909 0.105908 0.670796 0.009117
C87   C     C_R   0.120426 0.684717 0.684624 -0.003730
C88   C     C_R   0.893922 0.328914 0.329086 0.010331
C89   C     C_R   0.113743 0.678160 0.323153 -0.006737
C90   C     C_R   0.701886 0.929427 0.298458 0.589928
C91   C     C_R   0.886259 0.321829 0.676839 0.001293
C92   C     C_R   0.113612 0.323260 0.321887 -0.004989
C93   C     C_R   0.886723 0.677496 0.676244 -0.003961
C94   C     C_R   0.113485 0.322269 0.676423 -0.000244
C95   C     C_R   0.880199 0.683797 0.316069 0.006622
C96   C     C_R   0.315334 0.684681 0.879494 -0.003867
C97   C     C_R   0.671035 0.328946 0.106144 0.007131
C98   C     C_R   0.322598 0.323898 0.886925 -0.002816
C99   C     C_R   0.677403 0.676072 0.113048 -0.003749
C100  C     C_R   0.678313 0.322898 0.885986 -0.000180
C101  C     C_R   0.295168 0.926496 0.295147 0.583868
C102  C     C_R   0.329072 0.670917 0.105993 0.008934
C103  C     C_R   0.677546 0.676134 0.886827 -0.001954
C104  C     C_R   0.315406 0.315460 0.120329 -0.005818
C105  C     C_R   0.793743 0.857570 0.142700 0.158472
C106  C     C_R   0.202415 0.143000 0.856945 0.149090
C107  C     C_R   0.142547 0.857253 0.206249 0.157824
C108  C     C_R   0.856724 0.143210 0.797378 0.147497
C109  C     C_R   0.190363 0.873290 0.873357 0.160589
C110  C     C_R   0.809683 0.126674 0.126632 0.156511
C111  C     C_R   0.870890 0.870916 0.810982 0.149595
C112  C     C_R   0.070773 0.297967 0.701723 0.590325
C113  C     C_R   0.699037 0.066873 0.699007 0.584089
C114  C     C_R   0.126645 0.126564 0.190227 0.154198
C115  C     C_R   0.809615 0.126774 0.873299 0.155562
C116  C     C_R   0.206391 0.856527 0.143172 0.153585
C117  C     C_R   0.126567 0.126584 0.809714 0.161189
C118  C     C_R   0.870852 0.870907 0.189061 0.155700
C119  C     C_R   0.190463 0.126578 0.126597 0.166956
C120  C     C_R   0.793795 0.857414 0.857098 0.156011
C121  C     C_R   0.856419 0.143592 0.202811 0.144948
C122  C     C_R   0.143459 0.856553 0.797263 0.148277
C123  C     C_R   0.126578 0.190424 0.873431 0.162713
C124  C     C_R   0.701366 0.929889 0.701474 0.587907
C125  C     C_R   0.856969 0.793569 0.143307 0.153354
C126  C     C_R   0.129206 0.810789 0.129166 0.151553
C127  C     C_R   0.873154 0.190512 0.873248 0.163218
C128  C     C_R   0.857328 0.793689 0.857101 0.155251
C129  C     C_R   0.143207 0.202532 0.143213 0.147673
C130  C     C_R   0.873294 0.190284 0.126629 0.155438
C131  C     C_R   0.126763 0.809635 0.873333 0.165254
C132  C     C_R   0.292082 0.356472 0.143585 0.160257
C133  C     C_R   0.690640 0.626601 0.873372 0.166280
C134  C     C_R   0.143672 0.356334 0.702887 0.144155
C135  C     C_R   0.298497 0.070284 0.298411 0.584369
C136  C     C_R   0.857036 0.642678 0.293600 0.156702
C137  C     C_R   0.706574 0.356191 0.856522 0.152463
C138  C     C_R   0.309662 0.626687 0.126611 0.152219
C139  C     C_R   0.873315 0.373310 0.309717 0.153242
C140  C     C_R   0.144235 0.644215 0.708299 0.149336
C141  C     C_R   0.292027 0.643967 0.856019 0.154900
C142  C     C_R   0.690396 0.373212 0.126741 0.153987
C143  C     C_R   0.129131 0.629086 0.310955 0.148053
C144  C     C_R   0.870870 0.370899 0.689065 0.156491
C145  C     C_R   0.690430 0.626535 0.126553 0.165766
C146  C     C_R   0.699444 0.067564 0.300578 0.583967
C147  C     C_R   0.309555 0.373430 0.873411 0.162427
C148  C     C_R   0.856737 0.643211 0.702615 0.145063
C149  C     C_R   0.142388 0.357398 0.293813 0.159350
C150  C     C_R   0.626617 0.126528 0.690210 0.154105
C151  C     C_R   0.355935 0.855934 0.291834 0.150298
C152  C     C_R   0.643220 0.702500 0.856720 0.143985
C153  C     C_R   0.356056 0.291846 0.143991 0.154012
C154  C     C_R   0.642832 0.857184 0.297588 0.146511
C155  C     C_R   0.357811 0.142420 0.706232 0.160654
C156  C     C_R   0.626805 0.309514 0.126703 0.156293
C157  C     C_R   0.300937 0.933090 0.699035 0.584274
C158  C     C_R   0.355874 0.708134 0.855871 0.149645
C159  C     C_R   0.373289 0.873377 0.690335 0.158834
C160  C     C_R   0.626211 0.126176 0.309561 0.150059
C161  C     C_R   0.357093 0.297584 0.857038 0.146958
C162  C     C_R   0.642956 0.702413 0.142956 0.146109
C163  C     C_R   0.356797 0.142939 0.293600 0.151968
C164  C     C_R   0.642499 0.857743 0.706150 0.160206
C165  C     C_R   0.373276 0.690363 0.126616 0.166086
C166  C     C_R   0.629171 0.310967 0.870853 0.150500
C167  C     C_R   0.856357 0.706591 0.356655 0.149224
C168  C     C_R   0.426249 0.205048 0.294961 0.586288
C169  C     C_R   0.126905 0.309443 0.626824 0.162716
C170  C     C_R   0.292027 0.856241 0.356184 0.158321
C171  C     C_R   0.690417 0.126533 0.626551 0.167635
C172  C     C_R   0.129102 0.310931 0.370934 0.149072
C173  C     C_R   0.873273 0.690312 0.626627 0.153192
C174  C     C_R   0.690785 0.126253 0.373782 0.159330
C175  C     C_R   0.309320 0.873346 0.626681 0.165802
C176  C     C_R   0.143604 0.707991 0.643604 0.155813
C177  C     C_R   0.873339 0.309305 0.373349 0.164165
C178  C     C_R   0.689108 0.870844 0.629164 0.149103
C179  C     C_R   0.573799 0.794897 0.705099 0.589196
C180  C     C_R   0.310852 0.129189 0.370854 0.150053
C181  C     C_R   0.857204 0.293656 0.643058 0.157247
C182  C     C_R   0.142814 0.706349 0.356894 0.151532
C183  C     C_R   0.293430 0.143821 0.643498 0.152119
C184  C     C_R   0.690320 0.873378 0.373447 0.161674
C185  C     C_R   0.793705 0.357399 0.642878 0.155838
C186  C     C_R   0.206316 0.642641 0.357111 0.153759
C187  C     C_R   0.643031 0.356913 0.202556 0.144090
C188  C     C_R   0.356768 0.643195 0.792387 0.160381
C189  C     C_R   0.206162 0.356906 0.357197 0.152442
C190  C     C_R   0.298357 0.201521 0.570316 0.590196
C191  C     C_R   0.809661 0.626655 0.626586 0.162775
C192  C     C_R   0.373384 0.373464 0.809772 0.153642
C193  C     C_R   0.626629 0.626542 0.190220 0.153809
C194  C     C_R   0.810925 0.629211 0.370811 0.150848
C195  C     C_R   0.190450 0.373132 0.626820 0.153803
C196  C     C_R   0.626682 0.626585 0.809682 0.159567
C197  C     C_R   0.356146 0.356131 0.208068 0.152481
C198  C     C_R   0.208026 0.643755 0.643830 0.156392
C199  C     C_R   0.797481 0.356764 0.356763 0.144936
C200  C     C_R   0.356891 0.643155 0.202558 0.145655
C201  C     C_R   0.699067 0.800950 0.433093 0.583882
C202  C     C_R   0.642249 0.357522 0.793750 0.159661
C203  C     C_R   0.626288 0.190658 0.373783 0.165160
C204  C     C_R   0.356534 0.797362 0.643534 0.143131
C205  C     C_R   0.643660 0.793489 0.643378 0.149892
C206  C     C_R   0.357120 0.206184 0.357376 0.156422
C207  C     C_R   0.356606 0.792166 0.356580 0.158122
C208  C     C_R   0.643088 0.202461 0.643110 0.147788
C209  C     C_R   0.370824 0.189054 0.629162 0.150388
C210  C     C_R   0.626689 0.809702 0.373422 0.154177
C211  C     C_R   0.570604 0.201565 0.701890 0.590991
C212  C     C_R   0.300932 0.699058 0.066908 0.580745
C213  C     C_R   0.426522 0.795211 0.295184 0.586199
C214  C     C_R   0.699468 0.199457 0.432410 0.585167
C215  C     C_R   0.298066 0.798372 0.570658 0.588382
C216  C     C_R   0.429364 0.798388 0.701922 0.587421
C217  C     C_R   0.567557 0.199424 0.300586 0.583532
C218  C     C_R   0.295288 0.795305 0.426592 0.583187
C219  C     C_R   0.701890 0.201556 0.570591 0.589702
C220  C     C_R   0.570594 0.798113 0.298445 0.588080
C221  C     C_R   0.429892 0.201342 0.701458 0.590497
C222  C     C_R   0.701544 0.798355 0.570334 0.589250
C223  C     C_R   0.701641 0.298483 0.929689 0.591987
C224  C     C_R   0.298591 0.201528 0.429846 0.589696
C225  C     C_R   0.794877 0.294872 0.573828 0.587055
C226  C     C_R   0.205093 0.705107 0.426190 0.581529
C227  C     C_R   0.798050 0.570649 0.701601 0.589248
C228  C     C_R   0.205014 0.426285 0.295012 0.585915
C229  C     C_R   0.798470 0.701642 0.429684 0.590066
C230  C     C_R   0.199128 0.300882 0.567006 0.583543
C231  C     C_R   0.798389 0.429397 0.298101 0.592386
C232  C     C_R   0.204865 0.573530 0.704886 0.582130
C233  C     C_R   0.204794 0.704771 0.573476 0.583382
C234  C     C_R   0.073550 0.704858 0.704885 0.586697
C235  C     C_R   0.798430 0.298134 0.429436 0.586480
C236  C     C_R   0.202043 0.429236 0.701724 0.586727
C237  C     C_R   0.798570 0.570194 0.298468 0.587978
C238  C     C_R   0.201525 0.298600 0.429844 0.587742
C239  C     C_R   0.800934 0.699049 0.566904 0.584570
C240  C     C_R   0.201506 0.570156 0.298625 0.586985
C241  C     C_R   0.798517 0.429866 0.701357 0.589549
C242  C     C_R   0.699043 0.566881 0.199013 0.583198
C243  C     C_R   0.300957 0.433117 0.800983 0.581848
C244  C     C_R   0.429361 0.701930 0.201588 0.591487
C245  C     C_R   0.933049 0.300936 0.300953 0.584973
C246  C     C_R   0.570119 0.298651 0.798537 0.589342
C247  C     C_R   0.295261 0.426569 0.204766 0.583683
C248  C     C_R   0.699059 0.566904 0.800970 0.584475
C249  C     C_R   0.570601 0.298095 0.201584 0.584472
C250  C     C_R   0.426563 0.704753 0.795257 0.586888
C251  C     C_R   0.295316 0.573352 0.795339 0.585360
C252  C     C_R   0.701942 0.429351 0.201631 0.591439
C253  C     C_R   0.570579 0.701565 0.798124 0.588215
C254  C     C_R   0.426493 0.295164 0.204846 0.584144
C255  C     C_R   0.705167 0.426142 0.794856 0.588899
C256  C     C_R   0.701881 0.701573 0.929410 0.589390
C257  C     C_R   0.298053 0.570663 0.201611 0.587252
C258  C     C_R   0.429440 0.298464 0.798138 0.590380
C259  C     C_R   0.570582 0.701551 0.201871 0.589980
C260  C     C_R   0.929303 0.201963 0.798343 0.591347
C261  C     C_R   0.070191 0.798593 0.201521 0.588905
C262  C     C_R   0.800943 0.199044 0.066903 0.579410
C263  C     C_R   0.199067 0.800945 0.933090 0.583691
C264  C     C_R   0.070637 0.201594 0.201915 0.591478
C265  C     C_R   0.929799 0.798480 0.798597 0.590992
C266  C     C_R   0.201560 0.201870 0.929423 0.590480
C267  C     C_R   0.295185 0.295177 0.073514 0.584517
C268  C     C_R   0.794862 0.794860 0.073842 0.586896
C269  C     C_R   0.929775 0.798456 0.201419 0.593055
C270  C     C_R   0.066892 0.199025 0.800987 0.585243
C271  C     C_R   0.794896 0.794921 0.926200 0.587483
C272  C     C_R   0.201914 0.201581 0.070617 0.590164
C273  C     C_R   0.070733 0.798005 0.798337 0.593458
C274  C     C_R   0.929251 0.202012 0.201678 0.590894
C275  C     C_R   0.201601 0.798525 0.070252 0.587187
C276  C     C_R   0.800877 0.199113 0.933000 0.584905
C277  C     C_R   0.797982 0.070747 0.201681 0.589705
C278  C     C_R   0.929820 0.298479 0.701388 0.591594
C279  C     C_R   0.201996 0.929285 0.798347 0.590141
C280  C     C_R   0.798518 0.929891 0.798651 0.588701
C281  C     C_R   0.199042 0.066878 0.199014 0.581105
C282  C     C_R   0.205082 0.926232 0.205059 0.587308
C283  C     C_R   0.798055 0.070634 0.798387 0.589416
C284  C     C_R   0.201533 0.070543 0.798150 0.590975
C285  C     C_R   0.798530 0.929899 0.201336 0.591868
C286  C     C_R   0.821867 0.886422 0.176713 -0.002691
C287  C     C_R   0.176085 0.113074 0.822627 -0.000351
C288  C     C_R   0.183672 0.880331 0.183795 0.004270
Cl1   Cl    Cl    0.728122 0.866169 0.135246 -0.395162
Cl2   Cl    Cl    0.272348 0.861675 0.136589 -0.439748
Cl3   Cl    Cl    0.088013 0.086500 0.773710 -0.461812
Cl4   Cl    Cl    0.912846 0.912867 0.218271 -0.466613
Cl5   Cl    Cl    0.226681 0.088007 0.086525 -0.453011
Cl6   Cl    Cl    0.728084 0.865540 0.863866 -0.399031
Cl7   Cl    Cl    0.856471 0.143601 0.269358 -0.500532
Cl8   Cl    Cl    0.143097 0.856975 0.730770 -0.450119
Cl9   Cl    Cl    0.088021 0.226634 0.913521 -0.436251
Cl10  Cl    Cl    0.864063 0.727590 0.137526 -0.438627
Cl11  Cl    Cl    0.087313 0.781507 0.087072 -0.458023
Cl12  Cl    Cl    0.268723 0.141634 0.858095 -0.406135
Cl13  Cl    Cl    0.913171 0.226498 0.911909 -0.417837
Cl14  Cl    Cl    0.865224 0.727863 0.863887 -0.432338
Cl15  Cl    Cl    0.142332 0.268919 0.142434 -0.413628
Cl16  Cl    Cl    0.913445 0.225939 0.087888 -0.444567
Cl17  Cl    Cl    0.086695 0.773812 0.912013 -0.436714
Cl18  Cl    Cl    0.228010 0.369935 0.130231 -0.392198
Cl19  Cl    Cl    0.727074 0.588037 0.913468 -0.430526
Cl20  Cl    Cl    0.143636 0.356384 0.769431 -0.501244
Cl21  Cl    Cl    0.863579 0.634816 0.227764 -0.433441
Cl22  Cl    Cl    0.772721 0.360433 0.862360 -0.488669
Cl23  Cl    Cl    0.134326 0.864491 0.271952 -0.400086
Cl24  Cl    Cl    0.273747 0.586610 0.087955 -0.471948
Cl25  Cl    Cl    0.911923 0.413510 0.273965 -0.469046
Cl26  Cl    Cl    0.132619 0.632583 0.773024 -0.444157
Cl27  Cl    Cl    0.227544 0.632183 0.867928 -0.432064
Cl28  Cl    Cl    0.726221 0.413310 0.088072 -0.445640
Cl29  Cl    Cl    0.087162 0.587089 0.281760 -0.478523
Cl30  Cl    Cl    0.912826 0.412878 0.718304 -0.483618
Cl31  Cl    Cl    0.726648 0.587948 0.086487 -0.413211
Cl32  Cl    Cl    0.273286 0.411993 0.913448 -0.459999
Cl33  Cl    Cl    0.857499 0.642294 0.769078 -0.449936
Cl34  Cl    Cl    0.857513 0.142179 0.730926 -0.447197
Cl35  Cl    Cl    0.133960 0.364830 0.228094 -0.397864
Cl36  Cl    Cl    0.586541 0.087908 0.726070 -0.468596
Cl37  Cl    Cl    0.367916 0.867912 0.227230 -0.439358
Cl38  Cl    Cl    0.642287 0.768883 0.857381 -0.416595
Cl39  Cl    Cl    0.368372 0.227336 0.131790 -0.433437
Cl40  Cl    Cl    0.641004 0.859017 0.231206 -0.408286
Cl41  Cl    Cl    0.367017 0.134253 0.771783 -0.391772
Cl42  Cl    Cl    0.586849 0.273462 0.088049 -0.453370
Cl43  Cl    Cl    0.367121 0.772886 0.867202 -0.481825
Cl44  Cl    Cl    0.413455 0.912026 0.726147 -0.462265
Cl45  Cl    Cl    0.226189 0.913415 0.912044 -0.460416
Cl46  Cl    Cl    0.589506 0.089453 0.268130 -0.482637
Cl47  Cl    Cl    0.358735 0.231228 0.858426 -0.408944
Cl48  Cl    Cl    0.641459 0.768771 0.141553 -0.410042
Cl49  Cl    Cl    0.362525 0.135895 0.227604 -0.444590
Cl50  Cl    Cl    0.634624 0.866659 0.771715 -0.392991
Cl51  Cl    Cl    0.413247 0.726365 0.088003 -0.468407
Cl52  Cl    Cl    0.587277 0.281940 0.913034 -0.459707
Cl53  Cl    Cl    0.861060 0.772721 0.362790 -0.493654
Cl54  Cl    Cl    0.086828 0.273585 0.588113 -0.435477
Cl55  Cl    Cl    0.227764 0.869082 0.368823 -0.395662
Cl56  Cl    Cl    0.773986 0.086483 0.087894 -0.452608
Cl57  Cl    Cl    0.726575 0.087934 0.586445 -0.406099
Cl58  Cl    Cl    0.087209 0.281708 0.412991 -0.434708
Cl59  Cl    Cl    0.913324 0.726167 0.587966 -0.484803
Cl60  Cl    Cl    0.732740 0.089636 0.410411 -0.411498
Cl61  Cl    Cl    0.272917 0.911920 0.586572 -0.455118
Cl62  Cl    Cl    0.130327 0.772172 0.630371 -0.429858
Cl63  Cl    Cl    0.911884 0.272808 0.413396 -0.434868
Cl64  Cl    Cl    0.718213 0.912789 0.587027 -0.427662
Cl65  Cl    Cl    0.281624 0.087205 0.412855 -0.475730
Cl66  Cl    Cl    0.864895 0.227787 0.636560 -0.428194
Cl67  Cl    Cl    0.912827 0.912899 0.781798 -0.476780
Cl68  Cl    Cl    0.135228 0.772222 0.363160 -0.410721
Cl69  Cl    Cl    0.227283 0.139584 0.637666 -0.487287
Cl70  Cl    Cl    0.726299 0.913414 0.412099 -0.414098
Cl71  Cl    Cl    0.727990 0.365561 0.635970 -0.400564
Cl72  Cl    Cl    0.272054 0.634642 0.363998 -0.407235
Cl73  Cl    Cl    0.641513 0.358177 0.268992 -0.446439
Cl74  Cl    Cl    0.370647 0.629255 0.728525 -0.393269
Cl75  Cl    Cl    0.271963 0.363032 0.364601 -0.407180
Cl76  Cl    Cl    0.773772 0.586574 0.587907 -0.445779
Cl77  Cl    Cl    0.413423 0.412077 0.773857 -0.469644
Cl78  Cl    Cl    0.086542 0.087927 0.226041 -0.470001
Cl79  Cl    Cl    0.586582 0.587934 0.226129 -0.487202
Cl80  Cl    Cl    0.781938 0.587213 0.412967 -0.461584
Cl81  Cl    Cl    0.226110 0.413312 0.588093 -0.483916
Cl82  Cl    Cl    0.586574 0.587970 0.773766 -0.461111
Cl83  Cl    Cl    0.368859 0.368743 0.272445 -0.407675
Cl84  Cl    Cl    0.272240 0.630730 0.631059 -0.401572
Cl85  Cl    Cl    0.731126 0.357632 0.357624 -0.445734
Cl86  Cl    Cl    0.358081 0.642126 0.268980 -0.415636
Cl87  Cl    Cl    0.633236 0.365500 0.728159 -0.393940
Cl88  Cl    Cl    0.589715 0.232489 0.410386 -0.449537
Cl89  Cl    Cl    0.773837 0.086673 0.912002 -0.453442
Cl90  Cl    Cl    0.356936 0.730946 0.643419 -0.423351
Cl91  Cl    Cl    0.639079 0.727341 0.637375 -0.490366
Cl92  Cl    Cl    0.363909 0.271908 0.365272 -0.400808
Cl93  Cl    Cl    0.370328 0.728153 0.370210 -0.399488
Cl94  Cl    Cl    0.641954 0.268832 0.642147 -0.411184
Cl95  Cl    Cl    0.412705 0.218128 0.587003 -0.475663
Cl96  Cl    Cl    0.586728 0.773699 0.412043 -0.484076
Cu1   Cu    Cu3+1 1.000000 0.784800 0.284800 1.260147
Cu2   Cu    Cu3+1 0.784800 0.715200 0.000000 1.272939
Cu3   Cu    Cu3+1 0.215200 0.000000 0.715200 1.265482
Cu4   Cu    Cu3+1 0.784800 0.000000 0.284800 1.263941
Cu5   Cu    Cu3+1 0.215200 0.715200 0.000000 1.253330
Cu6   Cu    Cu3+1 0.784800 0.284800 0.000000 1.251380
Cu7   Cu    Cu3+1 0.215200 0.000000 0.284800 1.253232
Cu8   Cu    Cu3+1 0.784800 0.000000 0.715200 1.251200
Cu9   Cu    Cu3+1 0.715200 0.000000 0.784800 1.255980
Cu10  Cu    Cu3+1 0.284800 1.000000 0.215200 1.265479
Cu11  Cu    Cu3+1 0.000000 0.715200 0.784800 1.263469
Cu12  Cu    Cu3+1 0.000000 0.215200 0.715200 1.266993
Cu13  Cu    Cu3+1 1.000000 0.284800 0.215200 1.257271
Cu14  Cu    Cu3+1 0.284800 0.000000 0.784800 1.265926
Cu15  Cu    Cu3+1 0.715200 1.000000 0.215200 1.252053
Cu16  Cu    Cu3+1 0.000000 0.284800 0.784800 1.255726
Cu17  Cu    Cu3+1 1.000000 0.715200 0.215200 1.248257
Cu18  Cu    Cu3+1 0.500000 0.284800 0.284800 1.266773
Cu19  Cu    Cu3+1 0.500000 0.715200 0.715200 1.260149
Cu20  Cu    Cu3+1 0.284800 0.284800 0.500000 1.250754
Cu21  Cu    Cu3+1 0.715200 0.715200 0.500000 1.242820
Cu22  Cu    Cu3+1 0.500000 0.284800 0.715200 1.253928
Cu23  Cu    Cu3+1 0.284800 0.784800 0.000000 1.266099
Cu24  Cu    Cu3+1 0.500000 0.715200 0.284800 1.248716
Cu25  Cu    Cu3+1 0.715200 0.284800 0.500000 1.267689
Cu26  Cu    Cu3+1 0.284800 0.715200 0.500000 1.258226
Cu27  Cu    Cu3+1 0.715200 0.500000 0.715200 1.266969
Cu28  Cu    Cu3+1 0.284800 0.500000 0.284800 1.258526
Cu29  Cu    Cu3+1 0.715200 0.500000 0.284800 1.240673
Cu30  Cu    Cu3+1 0.284800 0.500000 0.715200 1.255340
Cu31  Cu    Cu3+1 0.500000 0.784800 0.784800 1.260811
Cu32  Cu    Cu3+1 0.500000 0.215200 0.215200 1.251804
Cu33  Cu    Cu3+1 0.784800 0.784800 0.500000 1.245902
Cu34  Cu    Cu3+1 0.715200 0.215200 0.000000 1.231808
Cu35  Cu    Cu3+1 0.215200 0.215200 0.500000 1.247370
Cu36  Cu    Cu3+1 0.500000 0.784800 0.215200 1.260973
Cu37  Cu    Cu3+1 0.500000 0.215200 0.784800 1.251774
Cu38  Cu    Cu3+1 0.215200 0.784800 0.500000 1.269647
Cu39  Cu    Cu3+1 0.784800 0.215200 0.500000 1.275172
Cu40  Cu    Cu3+1 0.215200 0.500000 0.215200 1.255875
Cu41  Cu    Cu3+1 0.784800 0.500000 0.784800 1.260890
Cu42  Cu    Cu3+1 0.215200 0.500000 0.784800 1.259242
Cu43  Cu    Cu3+1 0.784800 0.500000 0.215200 1.259915
Cu44  Cu    Cu3+1 1.000000 0.784800 0.715200 1.247288
Cu45  Cu    Cu3+1 1.000000 0.215200 0.284800 1.248226
Cu46  Cu    Cu3+1 0.715200 0.784800 0.000000 1.257052
Cu47  Cu    Cu3+1 0.284800 0.215200 0.000000 1.269703
Cu48  Cu    Cu3+1 0.215200 0.284800 0.000000 1.272357
O1    O     O_R   0.947350 0.816370 0.242430 -0.464481
O2    O     O_R   0.052650 0.816370 0.242430 -0.451146
O3    O     O_R   0.257570 0.183630 0.447350 -0.477428
O4    O     O_R   0.552650 0.816370 0.257570 -0.461508
O5    O     O_R   0.447350 0.183630 0.742430 -0.451663
O6    O     O_R   0.257570 0.816370 0.447350 -0.456885
O7    O     O_R   0.742430 0.183630 0.552650 -0.459290
O8    O     O_R   0.447350 0.183630 0.257570 -0.461659
O9    O     O_R   0.552650 0.816370 0.742430 -0.455287
O10   O     O_R   0.742430 0.183630 0.447350 -0.465486
O11   O     O_R   0.257570 0.816370 0.552650 -0.458472
O12   O     O_R   0.552650 0.183630 0.742430 -0.476677
O13   O     O_R   0.242430 0.183630 0.947350 -0.455165
O14   O     O_R   0.447350 0.816370 0.257570 -0.473490
O15   O     O_R   0.257570 0.183630 0.552650 -0.457532
O16   O     O_R   0.742430 0.816370 0.447350 -0.453828
O17   O     O_R   0.183630 0.742430 0.552650 -0.470994
O18   O     O_R   0.816370 0.257570 0.447350 -0.468711
O19   O     O_R   0.183630 0.552650 0.257570 -0.474670
O20   O     O_R   0.816370 0.447350 0.742430 -0.466446
O21   O     O_R   0.183630 0.257570 0.447350 -0.473330
O22   O     O_R   0.816370 0.742430 0.552650 -0.478709
O23   O     O_R   0.183630 0.447350 0.742430 -0.467528
O24   O     O_R   0.757570 0.816370 0.052650 -0.464407
O25   O     O_R   0.816370 0.552650 0.257570 -0.456843
O26   O     O_R   0.816370 0.257570 0.552650 -0.465295
O27   O     O_R   0.183630 0.742430 0.447350 -0.468928
O28   O     O_R   0.816370 0.447350 0.257570 -0.475814
O29   O     O_R   0.183630 0.552650 0.742430 -0.466907
O30   O     O_R   0.816370 0.742430 0.447350 -0.460415
O31   O     O_R   0.183630 0.257570 0.552650 -0.453328
O32   O     O_R   0.816370 0.552650 0.742430 -0.462784
O33   O     O_R   0.183630 0.447350 0.257570 -0.458736
O34   O     O_R   0.257570 0.552650 0.816370 -0.456724
O35   O     O_R   0.052650 0.183630 0.242430 -0.477291
O36   O     O_R   0.742430 0.447350 0.183630 -0.471427
O37   O     O_R   0.447350 0.257570 0.816370 -0.454027
O38   O     O_R   0.552650 0.742430 0.183630 -0.455551
O39   O     O_R   0.742430 0.447350 0.816370 -0.467610
O40   O     O_R   0.257570 0.552650 0.183630 -0.473343
O41   O     O_R   0.552650 0.742430 0.816370 -0.468047
O42   O     O_R   0.447350 0.257570 0.183630 -0.455787
O43   O     O_R   0.742430 0.552650 0.183630 -0.452381
O44   O     O_R   0.257570 0.447350 0.816370 -0.458506
O45   O     O_R   0.552650 0.257570 0.183630 -0.472049
O46   O     O_R   0.947350 0.816370 0.757570 -0.478680
O47   O     O_R   0.447350 0.742430 0.816370 -0.473039
O48   O     O_R   0.257570 0.447350 0.183630 -0.456325
O49   O     O_R   0.742430 0.552650 0.816370 -0.459011
O50   O     O_R   0.447350 0.742430 0.183630 -0.461255
O51   O     O_R   0.552650 0.257570 0.816370 -0.479843
O52   O     O_R   0.947350 0.316370 0.742430 -0.474333
O53   O     O_R   0.052650 0.683630 0.257570 -0.475024
O54   O     O_R   0.742430 0.316370 0.052650 -0.475540
O55   O     O_R   0.257570 0.683630 0.947350 -0.461012
O56   O     O_R   0.052650 0.316370 0.257570 -0.453781
O57   O     O_R   0.757570 0.183630 0.052650 -0.470101
O58   O     O_R   0.947350 0.683630 0.742430 -0.460761
O59   O     O_R   0.257570 0.316370 0.947350 -0.469495
O60   O     O_R   0.742430 0.683630 0.052650 -0.455657
O61   O     O_R   0.947350 0.683630 0.257570 -0.453849
O62   O     O_R   0.052650 0.316370 0.742430 -0.462556
O63   O     O_R   0.742430 0.683630 0.947350 -0.454450
O64   O     O_R   0.257570 0.316370 0.052650 -0.454911
O65   O     O_R   0.052650 0.683630 0.742430 -0.474200
O66   O     O_R   0.947350 0.316370 0.257570 -0.479282
O67   O     O_R   0.257570 0.683630 0.052650 -0.477103
O68   O     O_R   0.242430 0.816370 0.947350 -0.466313
O69   O     O_R   0.742430 0.316370 0.947350 -0.457397
O70   O     O_R   0.683630 0.742430 0.052650 -0.470160
O71   O     O_R   0.316370 0.257570 0.947350 -0.462354
O72   O     O_R   0.683630 0.052650 0.257570 -0.475799
O73   O     O_R   0.316370 0.947350 0.742430 -0.472721
O74   O     O_R   0.683630 0.257570 0.947350 -0.469232
O75   O     O_R   0.316370 0.742430 0.052650 -0.456521
O76   O     O_R   0.683630 0.947350 0.742430 -0.453029
O77   O     O_R   0.316370 0.052650 0.257570 -0.466795
O78   O     O_R   0.316370 0.257570 0.052650 -0.473355
O79   O     O_R   0.183630 0.242430 0.052650 -0.458429
O80   O     O_R   0.683630 0.742430 0.947350 -0.471348
O81   O     O_R   0.316370 0.947350 0.257570 -0.466608
O82   O     O_R   0.683630 0.052650 0.742430 -0.478841
O83   O     O_R   0.316370 0.742430 0.947350 -0.462834
O84   O     O_R   0.683630 0.257570 0.052650 -0.467143
O85   O     O_R   0.316370 0.052650 0.742430 -0.459338
O86   O     O_R   0.683630 0.947350 0.257570 -0.456745
O87   O     O_R   0.257570 0.052650 0.316370 -0.472760
O88   O     O_R   0.742430 0.947350 0.683630 -0.474581
O89   O     O_R   0.947350 0.257570 0.316370 -0.454724
O90   O     O_R   0.816370 0.757570 0.947350 -0.472864
O91   O     O_R   0.052650 0.742430 0.683630 -0.453544
O92   O     O_R   0.742430 0.947350 0.316370 -0.467873
O93   O     O_R   0.257570 0.052650 0.683630 -0.468326
O94   O     O_R   0.052650 0.742430 0.316370 -0.462102
O95   O     O_R   0.947350 0.257570 0.683630 -0.452881
O96   O     O_R   0.742430 0.052650 0.683630 -0.453313
O97   O     O_R   0.257570 0.947350 0.316370 -0.456915
O98   O     O_R   0.052650 0.257570 0.683630 -0.470070
O99   O     O_R   0.947350 0.742430 0.316370 -0.475753
O100  O     O_R   0.257570 0.947350 0.683630 -0.458720
O101  O     O_R   0.183630 0.052650 0.757570 -0.465081
O102  O     O_R   0.742430 0.052650 0.316370 -0.452674
O103  O     O_R   0.947350 0.742430 0.683630 -0.474458
O104  O     O_R   0.052650 0.257570 0.316370 -0.474137
O105  O     O_R   0.052650 0.183630 0.757570 -0.474609
O106  O     O_R   0.816370 0.947350 0.242430 -0.472931
O107  O     O_R   0.183630 0.757570 0.947350 -0.456772
O108  O     O_R   0.816370 0.242430 0.052650 -0.470783
O109  O     O_R   0.183630 0.947350 0.242430 -0.460650
O110  O     O_R   0.816370 0.052650 0.757570 -0.457956
O111  O     O_R   0.816370 0.757570 0.052650 -0.473071
O112  O     O_R   0.183630 0.242430 0.947350 -0.473429
O113  O     O_R   0.816370 0.947350 0.757570 -0.478573
O114  O     O_R   0.183630 0.052650 0.242430 -0.477791
O115  O     O_R   0.816370 0.242430 0.947350 -0.455203
O116  O     O_R   0.242430 0.816370 0.052650 -0.460447
O117  O     O_R   0.183630 0.757570 0.052650 -0.471006
O118  O     O_R   0.816370 0.052650 0.242430 -0.458528
O119  O     O_R   0.183630 0.947350 0.757570 -0.461158
O120  O     O_R   0.757570 0.052650 0.816370 -0.475082
O121  O     O_R   0.242430 0.947350 0.183630 -0.460029
O122  O     O_R   0.947350 0.757570 0.816370 -0.452487
O123  O     O_R   0.052650 0.242430 0.183630 -0.451171
O124  O     O_R   0.242430 0.947350 0.816370 -0.470579
O125  O     O_R   0.757570 0.052650 0.183630 -0.476013
O126  O     O_R   0.052650 0.242430 0.816370 -0.455719
O127  O     O_R   0.757570 0.183630 0.947350 -0.472692
O128  O     O_R   0.947350 0.757570 0.183630 -0.457521
O129  O     O_R   0.242430 0.052650 0.183630 -0.457089
O130  O     O_R   0.757570 0.947350 0.816370 -0.452889
O131  O     O_R   0.052650 0.757570 0.183630 -0.479538
O132  O     O_R   0.947350 0.242430 0.816370 -0.469060
O133  O     O_R   0.757570 0.947350 0.183630 -0.454285
O134  O     O_R   0.242430 0.052650 0.816370 -0.458803
O135  O     O_R   0.947350 0.242430 0.183630 -0.475938
O136  O     O_R   0.052650 0.757570 0.816370 -0.462597
O137  O     O_R   0.447350 0.316370 0.242430 -0.468753
O138  O     O_R   0.052650 0.816370 0.757570 -0.456942
O139  O     O_R   0.552650 0.683630 0.757570 -0.460158
O140  O     O_R   0.242430 0.316370 0.552650 -0.478994
O141  O     O_R   0.757570 0.683630 0.447350 -0.469636
O142  O     O_R   0.552650 0.316370 0.757570 -0.451377
O143  O     O_R   0.447350 0.683630 0.242430 -0.459460
O144  O     O_R   0.757570 0.316370 0.447350 -0.468112
O145  O     O_R   0.242430 0.683630 0.552650 -0.462325
O146  O     O_R   0.447350 0.683630 0.757570 -0.452595
O147  O     O_R   0.552650 0.316370 0.242430 -0.466457
O148  O     O_R   0.242430 0.683630 0.447350 -0.468976
O149  O     O_R   0.947350 0.183630 0.242430 -0.457188
O150  O     O_R   0.757570 0.316370 0.552650 -0.467901
O151  O     O_R   0.552650 0.683630 0.242430 -0.476376
O152  O     O_R   0.447350 0.316370 0.757570 -0.476310
O153  O     O_R   0.757570 0.683630 0.552650 -0.452968
O154  O     O_R   0.242430 0.316370 0.447350 -0.454861
O155  O     O_R   0.683630 0.242430 0.552650 -0.461522
O156  O     O_R   0.316370 0.757570 0.447350 -0.468181
O157  O     O_R   0.683630 0.552650 0.757570 -0.471548
O158  O     O_R   0.316370 0.447350 0.242430 -0.467952
O159  O     O_R   0.683630 0.757570 0.447350 -0.478311
O160  O     O_R   0.757570 0.816370 0.947350 -0.463963
O161  O     O_R   0.316370 0.242430 0.552650 -0.475160
O162  O     O_R   0.683630 0.447350 0.242430 -0.454459
O163  O     O_R   0.316370 0.552650 0.757570 -0.457631
O164  O     O_R   0.316370 0.757570 0.552650 -0.467836
O165  O     O_R   0.683630 0.242430 0.447350 -0.457558
O166  O     O_R   0.316370 0.447350 0.757570 -0.476136
O167  O     O_R   0.683630 0.552650 0.242430 -0.479819
O168  O     O_R   0.316370 0.242430 0.447350 -0.450734
O169  O     O_R   0.683630 0.757570 0.552650 -0.460342
O170  O     O_R   0.316370 0.552650 0.242430 -0.461120
O171  O     O_R   0.242430 0.183630 0.052650 -0.463768
O172  O     O_R   0.683630 0.447350 0.757570 -0.458825
O173  O     O_R   0.757570 0.552650 0.316370 -0.476997
O174  O     O_R   0.242430 0.447350 0.683630 -0.471152
O175  O     O_R   0.447350 0.757570 0.316370 -0.454430
O176  O     O_R   0.552650 0.242430 0.683630 -0.453029
O177  O     O_R   0.242430 0.447350 0.316370 -0.469366
O178  O     O_R   0.757570 0.552650 0.683630 -0.470486
O179  O     O_R   0.552650 0.242430 0.316370 -0.453570
O180  O     O_R   0.447350 0.757570 0.683630 -0.468494
O181  O     O_R   0.242430 0.552650 0.683630 -0.458097
O182  O     O_R   0.947350 0.183630 0.757570 -0.454653
O183  O     O_R   0.757570 0.447350 0.316370 -0.452603
O184  O     O_R   0.552650 0.757570 0.683630 -0.476422
O185  O     O_R   0.447350 0.242430 0.316370 -0.461327
O186  O     O_R   0.757570 0.447350 0.683630 -0.459685
O187  O     O_R   0.242430 0.552650 0.316370 -0.461934
O188  O     O_R   0.447350 0.242430 0.683630 -0.478524
O189  O     O_R   0.552650 0.757570 0.316370 -0.473442
O190  O     O_R   0.447350 0.816370 0.742430 -0.460686
O191  O     O_R   0.552650 0.183630 0.257570 -0.473186
O192  O     O_R   0.742430 0.816370 0.552650 -0.470284

loop_
_geom_bond_atom_site_label_1
_geom_bond_atom_site_label_2
_ccdc_geom_bond_type
Cu7   Cu10  S    
C73   C206  A    
C202  Cl87  S    
C223  O74   A    
Cu12  O105  S    
C58   C164  A    
C245  O66   A    
Cu9   O76   S    
Cu41  O32   S    
C195  Cl81  S    
Cu18  O185  S    
C25   C105  A    
C88   C177  A    
C83   C154  A    
C216  O180  A    
C87   C176  A    
C208  Cl94  S    
C274  O135  A    
C248  O157  A    
C25   C268  S    
C81   C178  A    
C74   C225  S    
C189  Cl75  S    
Cu29  O167  S    
C51   C158  A    
C160  Cl46  S    
Cu44  O138  S    
C226  O27   A    
Cu37  O51   S    
C28   C195  A    
C237  O173  A    
Cu12  O98   S    
C26   C197  A    
C36   C142  A    
C165  Cl51  S    
Cu1   O94   S    
C194  Cl80  S    
C213  O14   A    
C155  Cl41  S    
C242  O167  A    
C21   C263  S    
Cu39  O7    S    
C196  Cl82  S    
Cu31  O41   S    
Cu17  O61   S    
C68   O83   A    
Cu38  O17   S    
Cu7   O109  S    
Cu5   O117  S    
C8    C264  S    
C33   C232  S    
C43   C211  S    
C283  O120  A    
C57   O84   A    
Cu36  O4    S    
C8    C114  A    
C39   C242  S    
Cu17  O131  S    
Cu4   Cu15  S    
C80   C146  S    
C201  O159  A    
Cu10  O81   S    
C6    C280  S    
C124  O76   A    
C14   C121  A    
C22   C130  A    
C231  O183  A    
C103  C256  S    
C234  O91   A    
Cu45  O35   S    
C176  Cl62  S    
Cu40  O48   S    
C279  O119  A    
Cu15  O133  S    
C31   C200  A    
C214  O10   A    
Cu41  O20   S    
C218  O156  A    
C284  C287  S    
C30   C202  A    
C243  O44   A    
Cu37  O12   S    
C106  C287  A    
C276  O127  A    
C7    C119  A    
C113  O82   A    
C32   C139  A    
C74   C181  A    
C17   C127  A    
C19   C271  S    
C234  O65   A    
C58   C205  A    
C146  O102  A    
Cu22  Cu37  S    
C9    C265  S    
C249  O147  A    
Cu2   Cu46  S    
Cu6   Cu34  S    
C282  O121  A    
C204  Cl90  S    
Cu43  O25   S    
C91   C278  S    
C267  O78   A    
C85   C151  A    
C246  O51   A    
Cu20  O140  S    
C99   C162  A    
C282  O109  A    
C217  O191  A    
C24   O70   A    
C40   C192  A    
C114  Cl78  S    
C57   C97   S    
C39   C145  A    
C236  O23   A    
C237  O25   A    
C207  Cl93  S    
Cu3   O119  S    
Cu11  Cu44  S    
Cu10  O121  S    
C233  O145  A    
Cu48  O112  S    
Cu24  Cu36  S    
C103  C152  A    
Cu19  O146  S    
C60   C202  A    
C247  O48   A    
C244  O143  A    
C65   C189  A    
C19   C120  A    
C212  O67   A    
C219  O7    A    
C54   C258  S    
Cu39  O18   S    
Cu1   O99   S    
C201  O16   A    
Cu21  Cu33  S    
C199  Cl85  S    
C146  O72   A    
C14   C130  A    
Cu24  O175  S    
C275  O117  A    
C40   C147  A    
C43   C208  A    
C11   C269  S    
C49   C155  A    
C235  O18   A    
C193  Cl79  S    
Cu12  Cu16  S    
C168  O185  A    
C253  O41   A    
C12   C273  S    
Cu47  O13   S    
C42   C228  S    
Cu44  O91   S    
Cu46  O24   S    
C101  O81   A    
C225  O26   A    
C13   O59   A    
Cu36  O38   S    
Cu21  O159  S    
C64   C171  A    
C143  Cl29  S    
Cu20  O154  S    
Cu34  O74   S    
Cu33  O192  S    
C125  Cl10  S    
Cu39  O10   S    
Cu31  O9    S    
C92   C172  A    
C258  O152  A    
Cu35  O31   S    
C36   C252  S    
C222  O169  A    
C221  O188  A    
C175  Cl61  S    
Cu13  O56   S    
C105  Cl1   S    
C97   C142  A    
C227  O178  A    
C76   C190  S    
C35   O104  A    
C167  Cl53  S    
C120  Cl6   S    
C251  O34   A    
Cu13  O123  S    
C188  Cl74  S    
C243  O166  A    
C258  O37   A    
C47   C254  S    
C92   C149  A    
C73   C224  S    
C284  O134  A    
Cu16  O52   S    
Cu36  O50   S    
C27   C196  A    
C69   C175  A    
C166  Cl52  S    
C70   C176  A    
Cu32  O8    S    
C108  Cl34  S    
C219  O155  A    
Cu24  O189  S    
Cu48  O79   S    
C278  O95   A    
Cu4   O106  S    
C4    C109  A    
C34   C141  A    
C141  Cl27  S    
C181  Cl66  S    
Cu8   O88   S    
C6    C111  A    
C249  O45   A    
C72   C178  A    
C87   C140  A    
C271  O90   A    
Cu8   O110  S    
Cu45  O89   S    
C46   O103  A    
Cu23  O83   S    
C284  O101  A    
Cu30  O174  S    
C145  Cl31  S    
C259  O38   A    
Cu29  O173  S    
C39   C193  A    
C178  Cl64  S    
C159  Cl44  S    
C53   C203  A    
C54   C192  A    
Cu22  O188  S    
Cu20  O168  S    
C13   O71   A    
C217  O179  A    
C32   C199  A    
C86   C150  A    
C79   C84   S    
C79   O85   A    
Cu31  O47   S    
C98   C147  A    
C67   C174  A    
C200  Cl86  S    
C69   C215  S    
C82   C135  S    
Cu28  O158  S    
Cu23  O116  S    
C97   C156  A    
C116  Cl2   S    
C51   C250  S    
C51   C188  A    
C252  O36   A    
C134  Cl20  S    
C179  O184  A    
Cu10  O129  S    
C245  O89   A    
C107  Cl23  S    
C285  O106  A    
C62   C230  S    
C251  O163  A    
Cu28  O177  S    
Cu27  O178  S    
C282  C288  S    
C179  O9    A    
Cu32  O191  S    
C71   C235  S    
C104  C153  A    
Cu26  Cu38  S    
C227  O32   A    
Cu1   Cu17  S    
C2    O94   A    
C59   C165  A    
C253  O139  A    
C74   C185  A    
C156  Cl42  S    
C45   C196  A    
Cu47  O71   S    
C99   C145  A    
C152  Cl38  S    
C70   C198  A    
C232  O29   A    
Cu13  Cu45  S    
Cu34  O57   S    
C123  Cl9   S    
C150  Cl36  S    
C3    C115  A    
C190  O161  A    
C53   C217  S    
C220  O189  A    
C281  O129  A    
C174  Cl60  S    
C41   C191  A    
C65   C172  A    
Cu44  O103  S    
Cu21  O153  S    
C67   C203  A    
Cu29  O183  S    
Cu42  O29   S    
C31   C257  S    
C100  C137  A    
C264  O35   A    
C261  O131  A    
C63   C170  A    
C23   C123  A    
C126  Cl11  S    
C100  C223  S    
Cu5   O107  S    
C44   C207  A    
C230  O140  A    
C59   C244  S    
Cu7   O97   S    
C70   C233  S    
C85   C170  A    
Cu26  O156  S    
Cu5   O55   S    
C135  O87   A    
C15   C261  S    
C215  O164  A    
C14   C274  S    
Cu47  Cu48  S    
C59   C200  A    
C1    C95   S    
Cu11  O58   S    
Cu16  O62   S    
Cu20  O161  S    
C209  Cl95  S    
C26   C132  A    
Cu3   Cu14  S    
C265  O122  A    
C43   C150  A    
C77   C210  A    
C260  O132  A    
C28   C236  S    
C229  O141  A    
C10   C270  S    
C78   C175  A    
C121  Cl7   S    
C81   C164  A    
C65   C238  S    
C75   C186  A    
C122  Cl8   S    
C49   C209  A    
C76   C183  A    
C148  Cl33  S    
C8    C129  A    
C17   C115  A    
Cu46  O80   S    
C38   C241  S    
C48   C154  A    
Cu6   O69   S    
C2    O53   A    
C49   C221  S    
Cu20  Cu35  S    
Cu40  O33   S    
C197  Cl83  S    
C277  O118  A    
C132  Cl18  S    
Cu2   O111  S    
C168  O8    A    
Cu25  O144  S    
C95   C167  A    
C21   C109  A    
C205  Cl91  S    
C3    C108  A    
Cu22  O142  S    
Cu19  O184  S    
C68   O55   A    
C273  O138  A    
Cu37  O5    S    
Cu45  O104  S    
Cu25  O165  S    
C214  O165  A    
Cu27  O172  S    
C10   C117  A    
C177  Cl63  S    
C283  O110  A    
C210  Cl96  S    
C41   C148  A    
C252  O162  A    
C33   C198  A    
C94   C112  S    
C95   C136  A    
C55   C259  S    
C54   C161  A    
C280  O130  A    
C16   C127  A    
Cu43  O43   S    
C186  Cl72  S    
Cu18  O179  S    
Cu15  O125  S    
Cu34  O84   S    
Cu2   O90   S    
C56   C206  A    
C69   C204  A    
C30   C137  A    
C47   C197  A    
C67   C214  S    
C63   C207  A    
C220  O4    A    
C75   C182  A    
C221  O5    A    
C203  Cl88  S    
C218  O6    A    
Cu27  O157  S    
C136  Cl21  S    
C142  Cl28  S    
C119  Cl5   S    
C96   C158  A    
C271  O160  A    
Cu5   Cu23  S    
C104  C267  S    
C20   C129  A    
C44   C151  A    
C232  O181  A    
C184  Cl70  S    
C29   C237  S    
C171  Cl57  S    
C135  O77   A    
C238  O21   A    
Cu46  O160  S    
C158  Cl43  S    
C273  O136  A    
C192  Cl77  S    
C68   C96   S    
Cu33  O22   S    
C86   C113  S    
C28   C134  A    
C7    C114  A    
C11   C125  A    
C91   C144  A    
Cu8   O113  S    
C268  O111  A    
C173  Cl59  S    
C80   C160  A    
Cu18  Cu32  S    
C19   C128  A    
C52   C216  S    
Cu15  O72   S    
C93   C148  A    
C230  O31   A    
Cu39  O26   S    
C15   C107  A    
Cu43  O28   S    
C42   C149  A    
C25   C125  A    
C21   C131  A    
C215  O11   A    
C170  Cl55  S    
C96   C141  A    
C139  Cl25  S    
C73   C180  A    
C269  O1    A    
C254  O137  A    
Cu32  O42   S    
C5    C110  A    
Cu24  O151  S    
C244  O50   A    
C22   C110  A    
C45   C152  A    
C157  O73   A    
C235  O144  A    
C11   C118  A    
C269  O128  A    
C61   C229  S    
C34   C251  S    
C117  C287  A    
C240  O187  A    
C154  Cl40  S    
Cu42  O44   S    
C224  O168  A    
Cu17  O128  S    
Cu28  O187  S    
C238  O154  A    
Cu19  O139  S    
C35   C92   S    
C163  Cl49  S    
C216  O190  A    
Cu14  O73   S    
Cu21  O169  S    
C117  Cl3   S    
C169  Cl54  S    
C246  O142  A    
C118  Cl4   S    
C187  Cl73  S    
C285  O133  A    
C62   C195  A    
C90   O86   A    
C248  O49   A    
Cu42  O23   S    
C255  O172  A    
Cu1   O2    S    
C84   C183  A    
C211  O12   A    
C241  O20   A    
C44   C213  S    
C9    C128  A    
C180  Cl65  S    
Cu6   O115  S    
C10   C123  A    
C18   C116  A    
Cu30  O163  S    
C256  O80   A    
Cu23  O68   S    
C37   C240  S    
C102  C212  S    
C60   C166  A    
Cu38  O11   S    
C77   C201  S    
C52   C204  A    
C27   C133  A    
Cu19  Cu31  S    
C2    C89   S    
C127  Cl13  S    
C285  C286  S    
C266  O112  A    
Cu4   O92   S    
C138  Cl24  S    
Cu27  Cu41  S    
C128  Cl14  S    
C37   C186  A    
Cu42  O34   S    
C264  O123  A    
C140  Cl26  S    
C268  O24   A    
Cu8   O96   S    
C247  O158  A    
C149  Cl35  S    
C31   C138  A    
C213  O175  A    
C255  O39   A    
C90   O92   A    
Cu11  O122  S    
C211  O176  A    
C222  O192  A    
C112  O98   A    
C91   C181  A    
C131  Cl17  S    
C124  O88   A    
Cu45  O149  S    
C133  Cl19  S    
C98   C161  A    
C263  O107  A    
C26   C247  S    
Cu46  O70   S    
Cu47  O78   S    
C35   O56   A    
C48   C220  S    
Cu16  O126  S    
C62   C169  A    
Cu17  O53   S    
C129  Cl15  S    
C53   C160  A    
C153  Cl39  S    
C37   C143  A    
C38   C144  A    
Cu9   O120  S    
C254  O42   A    
Cu8   Cu9   S    
Cu25  O155  S    
C260  O182  A    
C110  Cl56  S    
C71   C199  A    
C72   C205  A    
C22   C262  S    
C233  O17   A    
C47   C153  A    
C147  Cl32  S    
Cu18  O137  S    
Cu13  O66   S    
Cu12  O95   S    
C281  O114  A    
C36   C187  A    
C89   C182  A    
Cu40  O40   S    
C212  O75   A    
C80   C174  A    
Cu3   O100  S    
Cu48  O64   S    
C89   C143  A    
C27   C248  S    
Cu29  Cu43  S    
C256  O63   A    
Cu43  O36   S    
C42   C189  A    
C101  O97   A    
Cu5   O67   S    
C16   C260  S    
C130  Cl16  S    
C84   C155  A    
Cu4   O118  S    
C83   C184  A    
Cu24  O143  S    
Cu6   O54   S    
Cu7   O114  S    
C261  O2    A    
C118  C286  A    
C40   C243  S    
C78   C159  A    
C29   C136  A    
C172  Cl58  S    
Cu14  O124  S    
C104  C132  A    
C164  Cl50  S    
C4    C279  S    
C1    O61   A    
Cu22  O176  S    
C20   C119  A    
C18   C126  A    
C279  O124  A    
Cu16  O132  S    
C76   C209  A    
C9    C111  A    
C259  O151  A    
Cu19  O180  S    
C41   C227  S    
Cu7   O87   S    
C24   O60   A    
C12   C131  A    
C66   C239  S    
C24   C99   S    
Cu47  O171  S    
C183  Cl69  S    
Cu38  O6    S    
Cu26  O148  S    
C60   C246  S    
C239  O153  A    
Cu29  O162  S    
Cu9   O82   S    
C278  O52   A    
C64   C208  A    
C56   C163  A    
C190  O15   A    
C87   C234  S    
Cu30  O181  S    
Cu31  O190  S    
C112  O62   A    
C94   C169  A    
C272  O79   A    
C182  Cl68  S    
Cu48  O59   S    
C82   C163  A    
Cu28  Cu40  S    
C33   C140  A    
C29   C194  A    
C5    C121  A    
C77   C184  A    
C206  Cl92  S    
C100  C166  A    
C102  C138  A    
C13   C98   S    
Cu28  O170  S    
Cu34  O127  S    
C94   C134  A    
C88   C245  S    
Cu21  O141  S    
C265  O46   A    
Cu11  O136  S    
C50   C156  A    
Cu40  O19   S    
Cu3   O93   S    
C263  O68   A    
C228  O33   A    
C113  O96   A    
C66   C173  A    
C58   C179  S    
Cu25  O150  S    
Cu10  O77   S    
C151  Cl37  S    
C277  O125  A    
C280  O113  A    
C52   C159  A    
C3    C283  S    
Cu32  O45   S    
C191  Cl76  S    
C32   C231  S    
C111  Cl67  S    
Cu25  Cu39  S    
C57   O54   A    
C157  O100  A    
Cu33  O16   S    
Cu36  O14   S    
C50   C187  A    
C225  O150  A    
C6    C120  A    
C93   C173  A    
C250  O47   A    
C270  O105  A    
C228  O177  A    
Cu2   O63   S    
C1    O99   A    
C266  O13   A    
C81   C124  S    
C4    C122  A    
C86   C171  A    
C5    C277  S    
C61   C167  A    
C272  O171  A    
C270  O126  A    
C198  Cl84  S    
C55   C193  A    
Cu30  Cu42  S    
Cu23  O75   S    
C162  Cl48  S    
C267  O64   A    
C23   C106  A    
Cu1   O1    S    
C15   C126  A    
Cu6   O108  S    
Cu41  O39   S    
C64   C219  S    
C88   C139  A    
C115  Cl89  S    
Cu30  O166  S    
C236  O174  A    
C78   C157  S    
C72   C222  S    
C66   C191  A    
C56   C168  S    
C257  O40   A    
C12   C122  A    
C226  O148  A    
C240  O19   A    
Cu15  O86   S    
C223  O69   A    
C34   C188  A    
C79   O93   A    
C50   C249  S    
C144  Cl30  S    
C46   O58   A    
Cu22  O152  S    
Cu14  O85   S    
C48   C210  A    
C102  C165  A    
C275  O116  A    
C224  O3    A    
Cu35  O3    S    
Cu41  O49   S    
Cu33  O30   S    
C229  O30   A    
C17   C276  S    
C85   C101  S    
C18   C275  S    
C83   C90   S    
C20   C272  S    
Cu27  O186  S    
Cu18  O147  S    
C231  O28   A    
C276  O115  A    
C262  O57   A    
C75   C226  S    
C262  O108  A    
C55   C162  A    
C7    C281  S    
C137  Cl22  S    
Cu35  O15   S    
Cu12  O182  S    
C38   C185  A    
Cu4   O102  S    
C23   C266  S    
C105  C286  A    
C242  O43   A    
C71   C177  A    
C274  O149  A    
C107  C288  A    
C103  C133  A    
C109  Cl45  S    
Cu26  O145  S    
C46   C93   S    
C250  O146  A    
C185  Cl71  S    
Cu2   O60   S    
Cu14  O134  S    
C161  Cl47  S    
C116  C288  A    
C63   C218  S    
Cu38  O27   S    
C239  O22   A    
C241  O186  A    
Cu11  O65   S    
Cu3   O101  S    
Cu44  O46   S    
C16   C108  A    
Cu35  O21   S    
C257  O170  A    
C82   C180  A    
C30   C255  S    
Cu37  O37   S    
Cu26  O164  S    
C106  Cl12  S    
C61   C194  A    
Cu9   O130  S    
C45   C253  S    
Cu13  O135  S    
