data_mof_unit_21456.cif
_audit_creation_date              2012-12-10T16:57:06-0500
_audit_creation_method            fapswitch 2.2
_symmetry_space_group_name_H-M    P1
_symmetry_Int_Tables_number       1
_space_group_crystal_system       triclinic
_cell_length_a                    7.768742
_cell_length_b                    8.580804
_cell_length_c                    16.563104
_cell_angle_alpha                 91.720558
_cell_angle_beta                  80.793693
_cell_angle_gamma                 93.715305
_cell_volume                      1087.4006227

loop_
_atom_site_label
_atom_site_type_symbol
_atom_type_description
_atom_site_fract_x
_atom_site_fract_y
_atom_site_fract_z
_atom_type_partial_charge
C1    C     C_R   0.546185 0.794804 0.497970 0.975695
C2    C     C_R   0.374776 0.458338 0.223518 -0.213662
C3    C     C_R   0.550088 0.269576 0.834330 -0.163790
C4    C     C_R   0.373665 0.402640 0.144167 -0.147084
C5    C     C_R   0.401083 0.300004 0.890894 0.203783
C6    C     C_R   0.525490 0.344326 0.098690 0.208292
C7    C     C_R   0.273570 0.391156 0.868810 -0.172109
C8    C     C_R   0.679481 0.348442 0.132590 -0.184453
C9    C     C_R   0.300009 0.459612 0.792379 -0.196432
C10   C     C_R   0.680821 0.404799 0.211910 -0.194126
C11   C     C_2   0.392560 0.265301 0.977243 -0.242112
C12   C     C_R   0.453805 0.205198 0.502116 0.969418
C13   C     C_2   0.534708 0.299561 0.012261 -0.226067
C14   C     C_2   0.570519 0.958260 0.496870 -0.387302
C15   C     C_2   0.429451 0.041771 0.503398 -0.379606
C16   C     C_R   0.476089 0.493218 0.654440 0.852850
C17   C     C_R   0.521678 0.493626 0.345203 0.859393
C18   C     C_R   0.454554 0.437406 0.737809 -0.031391
C19   C     C_R   0.527635 0.457989 0.258257 -0.034883
C20   C     C_R   0.577875 0.339745 0.758785 -0.206560
H1    H     H_    0.694603 0.315101 0.716315 0.161536
H2    H     H_    0.648081 0.196362 0.849754 0.131411
H3    H     H_    0.703713 0.009348 0.490656 0.179378
H4    H     H_    0.296254 0.990693 0.509634 0.179331
H5    H     H_    0.022752 0.380365 0.439315 0.188252
H6    H     H_    0.977258 0.619670 0.560660 0.190534
H7    H     H_    0.255250 0.499592 0.257947 0.155148
H8    H     H_    0.800595 0.402923 0.237450 0.154179
H9    H     H_    0.200965 0.530843 0.776255 0.151259
H10   H     H_    0.661898 0.318683 0.974524 0.147494
H11   H     H_    0.264474 0.246889 0.013979 0.142904
H12   H     H_    0.158216 0.415981 0.912203 0.122058
H13   H     H_    0.798934 0.308123 0.097551 0.120332
H14   H     H_    0.254845 0.409515 0.118616 0.121014
N1    N     N_2   0.953500 0.457650 0.478520 -0.176288
N2    N     N_2   0.046500 0.542350 0.521480 -0.174396
O1    O     O_R   0.388470 0.738640 0.505270 -0.608461
O2    O     O_R   0.611530 0.261360 0.494730 -0.612941
O3    O     O_R   0.679650 0.711510 0.491500 -0.625028
O4    O     O_R   0.320350 0.288490 0.508500 -0.627648
O5    O     O_R   0.337210 0.515200 0.623500 -0.614658
O6    O     O_R   0.662790 0.484800 0.376500 -0.619115
O7    O     O_R   0.628380 0.488060 0.609730 -0.626546
O8    O     O_R   0.371620 0.511940 0.390270 -0.623880
Zn1   Zn    Zn3+2 0.305580 0.518120 0.509190 0.939382
Zn2   Zn    Zn3+2 0.694420 0.481880 0.490810 0.934895

loop_
_geom_bond_atom_site_label_1
_geom_bond_atom_site_label_2
_ccdc_geom_bond_type
C14   H3    S    
C12   O4    A    
C2    C4    A    
C2    H7    S    
C1    C14   S    
C9    H9    S    
C9    C18   A    
N1    N2    D    
C12   C15   S    
C1    O1    A    
C10   C19   A    
C17   O8    A    
C11   H11   S    
N2    Zn1   S    
C20   H1    S    
C6    C13   S    
C11   C13   D    
C16   O7    A    
H5    N1    S    
O3    Zn2   S    
C8    C10   A    
C15   H4    S    
C17   C19   S    
C5    C11   S    
C18   C20   A    
C8    H13   S    
C12   O2    A    
O4    Zn1   S    
O7    Zn2   S    
C4    H14   S    
O2    Zn2   S    
C4    C6    A    
C1    O3    A    
O1    Zn1   S    
C7    C9    A    
C13   H10   S    
C3    C20   A    
O8    Zn1   S    
C16   C18   S    
O6    Zn2   S    
C10   H8    S    
C5    C7    A    
O5    Zn1   S    
C14   C15   D    
C3    H2    S    
C6    C8    A    
C7    H12   S    
C2    C19   A    
C17   O6    A    
N1    Zn2   S    
C16   O5    A    
H6    N2    S    
C3    C5    A    
