data_mof_unit_7738.cif
_audit_creation_date              2013-03-05T15:47:00-0500
_audit_creation_method            fapswitch 2.2
_symmetry_space_group_name_H-M    P1
_symmetry_Int_Tables_number       1
_space_group_crystal_system       triclinic
_cell_length_a                    8.271107
_cell_length_b                    17.403424
_cell_length_c                    19.179481
_cell_angle_alpha                 99.102402
_cell_angle_beta                  94.472898
_cell_angle_gamma                 97.890717
_cell_volume                      2686.1569916

loop_
_atom_site_label
_atom_site_type_symbol
_atom_site_description
_atom_site_fract_x
_atom_site_fract_y
_atom_site_fract_z
_atom_type_partial_charge
P1    P     P_3+3 0.992230 0.679190 0.566750 0.431770
O1    O     O_2   0.166667 0.691630 0.546720 -0.396318
O2    O     O_3   0.893830 0.593690 0.541700 -0.424573
O3    O     O_3   0.390350 0.644650 0.417800 -0.395819
O4    O     O_2   0.271685 0.777366 0.455558 -0.406278
O5    O     O_3   0.019759 0.688047 0.659569 -0.602330
O6    O     O_3   0.481778 0.783538 0.361864 -0.553591
H1    H     H_    0.293583 0.701383 0.303508 0.168279
C1    C     C_3   0.443421 0.759057 0.235127 -1.034466
H2    H     H_    0.397938 0.712779 0.188274 0.240075
H3    H     H_    0.370976 0.808214 0.234716 0.270927
P2    P     P_3+3 0.339610 0.439630 0.337240 0.478848
P3    P     P_3+3 0.930995 0.601464 0.288581 0.453404
O7    O     O_2   0.171750 0.463380 0.328050 -0.370849
O8    O     O_3   0.965290 0.605410 0.380210 -0.388897
O9    O     O_2   0.051452 0.551223 0.252891 -0.323763
O10   O     O_3   0.314627 0.336881 0.309928 -0.651409
O11   O     O_3   0.990949 0.694909 0.268314 -0.541596
C2    C     C_3   0.927853 0.750536 0.315715 0.316073
H4    H     H_    0.990923 0.755796 0.369965 0.137260
H5    H     H_    0.793399 0.733977 0.316788 0.056605
C3    C     C_3   0.959324 0.830175 0.291019 -0.616421
H6    H     H_    0.091724 0.844587 0.284167 0.232121
H7    H     H_    0.888095 0.826724 0.238751 0.218389
C4    C     C_3   0.751952 0.367097 0.314000 0.447219
H8    H     H_    0.652380 0.391983 0.340591 0.116067
H9    H     H_    0.864009 0.411829 0.321876 0.121108
C5    C     C_3   0.698332 0.343606 0.234762 -1.064238
H10   H     H_    0.581746 0.301733 0.225956 0.265394
H11   H     H_    0.679818 0.395920 0.210886 0.229330
H12   H     H_    0.793396 0.315280 0.207200 0.259879
Ba1   Ba    Ba6+2 0.162080 0.538580 0.468810 1.553872
C6    C     C_3   0.933018 0.745697 0.692013 0.303262
H13   H     H_    0.891913 0.727084 0.741359 0.113244
H14   H     H_    0.819626 0.750739 0.659433 0.075090
C7    C     C_3   0.046175 0.824997 0.712554 -0.647292
H15   H     H_    0.144545 0.820102 0.753802 0.220470
H16   H     H_    0.105921 0.840601 0.665857 0.217653
C8    C     C_3   0.211013 0.294626 0.349954 1.103314
H17   H     H_    0.143216 0.333788 0.384094 0.018869
C9    C     C_3   0.081592 0.236316 0.298697 -1.125513
H18   H     H_    0.002438 0.268869 0.269226 0.254994
H19   H     H_    0.005407 0.197698 0.328334 0.257773
H20   H     H_    0.139334 0.199446 0.258028 0.238192
P4    P     P_3+3 0.818060 0.320800 0.433200 0.453055
O12   O     O_2   0.643630 0.308330 0.453260 -0.315969
O13   O     O_3   0.916470 0.406310 0.458240 -0.447118
O14   O     O_3   0.419940 0.355340 0.582140 -0.345170
O15   O     O_3   0.784012 0.299916 0.340640 -0.579600
P5    P     P_3+3 0.875954 0.394744 0.712592 0.449432
O16   O     O_3   0.383960 0.539280 0.585630 -0.366413
O17   O     O_3   0.845010 0.394580 0.619730 -0.393165
O18   O     O_2   0.749943 0.442738 0.747159 -0.392889
O19   O     O_3   0.813789 0.299482 0.728703 -0.529297
Ba2   Ba    Ba6+2 0.648090 0.461410 0.531130 1.558903
P6    P     P_3+3 0.434358 0.747086 0.439203 0.440787
C10   C     C_3   0.425062 0.724724 0.302662 0.487993
H21   H     H_    0.498808 0.675956 0.301476 0.056967
H22   H     H_    0.574430 0.781293 0.231709 0.255454
O20   O     O_3   0.426330 0.460710 0.414310 -0.374623
C11   C     C_3   0.433293 0.708505 0.662714 0.389128
H23   H     H_    0.447036 0.694353 0.605185 0.123622
H24   H     H_    0.305723 0.692283 0.673804 0.129738
C12   C     C_3   0.478747 0.796958 0.686780 -1.065758
H25   H     H_    0.605079 0.817267 0.675447 0.239830
H26   H     H_    0.394170 0.827848 0.657492 0.241152
H27   H     H_    0.469296 0.812548 0.744591 0.268382
P7    P     P_3+3 0.470093 0.567338 0.675869 0.458512
O21   O     O_2   0.638540 0.536570 0.671920 -0.320966
O22   O     O_3   0.535225 0.668881 0.700889 -0.582780
C13   C     C_3   0.858909 0.245520 0.673794 0.482380
H28   H     H_    0.788790 0.247775 0.622512 0.145376
H29   H     H_    0.992571 0.257536 0.668851 0.010394
C14   C     C_3   0.818800 0.162710 0.690092 -1.003971
H30   H     H_    0.684835 0.148003 0.693096 0.288820
H31   H     H_    0.856215 0.119603 0.647633 0.233812
H32   H     H_    0.885479 0.158379 0.741512 0.249783
P8    P     P_3+3 0.378312 0.253582 0.575981 0.487556
C15   C     C_3   0.390330 0.293902 0.711190 0.398002
H33   H     H_    0.267251 0.310776 0.700379 0.009200
O23   O     O_2   0.506369 0.217198 0.531894 -0.386287
O24   O     O_3   0.416137 0.230109 0.660588 -0.551705
H34   H     H_    0.485192 0.345402 0.710701 0.155216
H35   H     H_    0.416411 0.326679 0.825519 0.182882
C16   C     C_3   0.405756 0.272245 0.785399 -0.604392
H36   H     H_    0.519286 0.245833 0.793471 0.253181
C17   C     C_2   0.728476 0.726475 0.504996 -0.408898
C18   C     C_3   0.602236 0.781791 0.512503 0.193894
C19   C     C_2   0.678014 0.866412 0.511898 -0.210364
C20   C     C_2   0.843201 0.887987 0.519184 0.108028
C21   C     C_2   0.949491 0.825919 0.528703 -0.349107
C22   C     C_1   0.883081 0.751978 0.529353 0.307369
C23   C     C_R   0.097655 0.139385 0.530340 -0.308071
C24   C     C_R   0.167520 0.218087 0.535398 0.295768
C25   C     C_R   0.920361 0.247281 0.474806 0.262088
C26   C     C_R   0.849575 0.167300 0.468929 -0.283746
C27   C     C_R   0.935801 0.112516 0.498307 0.137358
C28   C     C_2   0.923908 0.971566 0.521585 -0.202527
C29   C     C_2   0.853272 0.028754 0.495201 -0.165172
C30   C     C_R   0.077016 0.271836 0.510146 -0.397685
H37   H     H_    0.728785 0.013953 0.469581 0.136704
H38   H     H_    0.081606 0.842528 0.537207 0.170754
H39   H     H_    0.171478 0.100820 0.552255 0.141637
H40   H     H_    0.050118 0.984074 0.544568 0.138259
H41   H     H_    0.596177 0.909673 0.508944 0.134230
H42   H     H_    0.727731 0.147847 0.441865 0.141029
H43   H     H_    0.689377 0.664819 0.482411 0.171490
H44   H     H_    0.132104 0.332771 0.515128 0.188211
C31   C     C_R   0.613653 0.531698 0.300581 -0.588308
C32   C     C_R   0.456859 0.491795 0.275535 0.202416
C33   C     C_R   0.400370 0.484784 0.202406 0.493521
C34   C     C_R   0.504768 0.517651 0.155874 -0.160350
C35   C     C_R   0.664513 0.554505 0.182395 -0.342243
C36   C     C_R   0.718948 0.560245 0.254147 0.275771
C37   C     C_R   0.456778 0.579010 0.047062 -0.178704
C38   C     C_R   0.405507 0.572810 0.974603 -0.180209
C39   C     C_R   0.345041 0.498949 0.932855 0.187947
C40   C     C_R   0.340818 0.431436 0.964586 -0.205457
C41   C     C_R   0.396697 0.437500 0.036301 -0.125883
C42   C     C_R   0.450629 0.511394 0.078916 0.248028
C43   C     C_R   0.135816 0.448890 0.826999 -0.345063
C44   C     C_R   0.087711 0.439665 0.753969 0.131432
C45   C     C_R   0.348955 0.516566 0.737988 0.147593
C46   C     C_R   0.395619 0.527036 0.811073 -0.337733
C47   C     C_R   0.291360 0.491555 0.855945 0.039242
C48   C     C_R   0.198843 0.470395 0.710466 0.218642
H45   H     H_    0.512660 0.561812 0.832715 0.170380
H46   H     H_    0.410955 0.625768 0.951319 0.126000
H47   H     H_    0.500653 0.636606 0.078360 0.127903
H48   H     H_    0.297879 0.373694 0.933431 0.128177
H49   H     H_    0.400749 0.384133 0.058070 0.107111
H50   H     H_    0.052004 0.424341 0.861232 0.173956
H51   H     H_    0.747454 0.577442 0.147011 0.181739
H52   H     H_    0.657648 0.536604 0.355983 0.187135
N1    N     N_3   0.956194 0.887995 0.739936 -0.198524
H53   H     H_    0.872632 0.896394 0.699019 0.140642
H54   H     H_    0.889486 0.870768 0.780501 0.141238
O25   O     O_3   0.304453 0.256223 0.395286 -0.635392
C49   C     C_3   0.378947 0.196302 0.357123 -0.077459
H55   H     H_    0.442667 0.216177 0.312714 0.145255
H56   H     H_    0.287813 0.142582 0.337820 0.099974
H57   H     H_    0.471748 0.178530 0.393492 0.172728
N2    N     N_3   0.912874 0.893065 0.341780 -0.202028
H58   H     H_    0.792180 0.876794 0.352690 0.174916
H59   H     H_    0.989530 0.899415 0.388930 0.160303
N3    N     N_3   0.263868 0.217143 0.796457 -0.196325
H60   H     H_    0.248037 0.167810 0.756197 0.175573
H61   H     H_    0.159166 0.244385 0.792550 0.138348
O26   O     O_3   0.238030 0.456089 0.177769 -0.577952
C50   C     C_3   0.210088 0.372974 0.164739 -0.144759
H62   H     H_    0.120559 0.352489 0.200183 0.175305
H63   H     H_    0.321996 0.344531 0.171295 0.096632
H64   H     H_    0.151461 0.352320 0.109727 0.132495
O27   O     O_3   0.156935 0.456817 0.639172 -0.663664
C51   C     C_3   0.068900 0.516411 0.624282 0.180085
H65   H     H_    0.149040 0.572062 0.625238 0.102919
H66   H     H_    0.974394 0.530076 0.660749 0.102698
H67   H     H_    0.007161 0.493818 0.571173 0.227116

loop_
_geom_bond_atom_site_label_1
_geom_bond_atom_site_label_2
_geom_bond_distance
_ccdc_geom_bond_type
C11   O22   1.394822 S    
O14   Ba2   2.797984 S    
C17   C18   1.514383 S    
C23   C24   1.396883 A    
C51   H66   1.113758 S    
C9    H18   1.102053 S    
O4    P6    1.547456 D    
C25   C26   1.417496 A    
P5    C44   1.876049 S    
C23   H39   1.077812 S    
P2    C32   1.855388 S    
C20   C21   1.507026 S    
O26   C50   1.411737 S    
N1    H53   1.046108 S    
C8    C9    1.537550 S    
C16   H36   1.111468 S    
C4    C5    1.523811 S    
P5    O19   1.749641 S    
C14   H31   1.109723 S    
P3    O11   1.746540 S    
C5    H10   1.110029 S    
C2    H5    1.112499 S    
O11   C2    1.403688 S    
C49   H57   1.105128 S    
P6    C18   1.861680 S    
N2    H58   1.046046 S    
N2    H59   1.044850 S    
C6    C7    1.533512 S    
C38   C39   1.406770 A    
O1    Ba1   2.834277 S    
P1    O1    1.517593 D    
O10   C8    1.404562 S    
O14   P8    1.740333 S    
C11   H24   1.100224 S    
C40   C41   1.399357 A    
C32   C33   1.424220 A    
O2    Ba2   2.824077 S    
O19   C13   1.405320 S    
C33   C34   1.419642 A    
Ba1   O13   2.823310 S    
P7    O21   1.562708 D    
C14   H32   1.110197 S    
O12   Ba2   2.834600 S    
C41   H49   1.080320 S    
C24   C30   1.396058 A    
C1    H2    1.110306 S    
Ba1   Ba2   4.542278 S    
C1    C10   1.519368 S    
P3    C36   1.830511 S    
C21   C22   1.330354 D    
O17   Ba2   2.758068 S    
C8    O25   1.421531 S    
C35   H51   1.083356 S    
Ba2   O20   2.780059 S    
P2    Ba1   3.374418 S    
C51   H67   1.090836 S    
C9    H19   1.110093 S    
C11   H23   1.110098 S    
O6    P6    1.754052 S    
C33   O26   1.384868 S    
P7    C45   1.865550 S    
C34   C35   1.405387 A    
C27   C29   1.512449 S    
N3    H61   1.046036 S    
P4    O13   1.577378 S    
C30   H44   1.081586 S    
P5    O18   1.547614 D    
C14   H30   1.110556 S    
N3    H60   1.046007 S    
P1    O5    1.756440 S    
C12   H27   1.110543 S    
C45   C46   1.400895 A    
C2    C3    1.530031 S    
C16   N3    1.461514 S    
C8    H17   1.108481 S    
C34   C42   1.491197 S    
C25   C30   1.392934 A    
C45   C48   1.398392 A    
C4    H8    1.104311 S    
P4    O12   1.517767 D    
C50   H64   1.109028 S    
P1    Ba1   3.375133 S    
C3    N2    1.459467 S    
C1    H22   1.110051 S    
C12   H26   1.109688 S    
C44   C48   1.397457 A    
C11   C12   1.520961 S    
Ba1   O16   2.780650 S    
C43   C47   1.417947 A    
C40   H48   1.082563 S    
C50   H63   1.115757 S    
H1    C10   1.109691 S    
C15   O24   1.405897 S    
P8    O24   1.750323 S    
P5    O17   1.778968 S    
P4    O15   1.747199 S    
C41   C42   1.404947 A    
C26   C27   1.424489 A    
C6    H13   1.110502 S    
C43   C44   1.403696 A    
Ba2   O21   2.820074 S    
H35   C16   1.110475 S    
C1    H3    1.110468 S    
O27   C51   1.398579 S    
O3    Ba1   2.798588 S    
C31   C36   1.393057 A    
C46   H45   1.082907 S    
C48   O27   1.359070 S    
C29   H37   1.084526 S    
P2    O7    1.507308 D    
C37   C42   1.405871 A    
P1    C22   1.853287 S    
P3    O8    1.747092 S    
C9    H20   1.110012 S    
C3    H7    1.111191 S    
Ba1   O20   2.903036 S    
C21   H38   1.083880 S    
C19   H41   1.084286 S    
P4    C25   1.872108 S    
C7    N1    1.461013 S    
C23   C27   1.413224 A    
C15   C16   1.529282 S    
O13   Ba2   2.906160 S    
C35   C36   1.397874 A    
C37   H47   1.082829 S    
N1    H54   1.046400 S    
C26   H42   1.081108 S    
C7    H15   1.111342 S    
C31   H52   1.082245 S    
C50   H62   1.104664 S    
C5    H12   1.108828 S    
O7    Ba1   2.819947 S    
O8    Ba1   2.757423 S    
C13   C14   1.520586 S    
C49   H55   1.111783 S    
C4    H9    1.109377 S    
C39   C40   1.403694 A    
O5    C6    1.406527 S    
C12   H25   1.105586 S    
C2    H4    1.111394 S    
C7    H16   1.108702 S    
C13   H28   1.111194 S    
C31   C32   1.394575 A    
P2    O10   1.760673 S    
C15   H34   1.108944 S    
C49   H56   1.110303 S    
P8    O23   1.546682 D    
C10   H21   1.109551 S    
P8    C24   1.835119 S    
C28   H40   1.080225 S    
C5    H11   1.105118 S    
C6    H14   1.107381 S    
C20   C28   1.506944 S    
O16   Ba2   2.902198 S    
O16   P7    1.785001 S    
O2    Ba1   2.905312 S    
C4    O15   1.396918 S    
O25   C49   1.417080 S    
C15   H33   1.110847 S    
P2    O20   1.557187 S    
C17   H43   1.085993 S    
C18   C19   1.521476 S    
P4    Ba2   3.375596 S    
P7    O22   1.753120 S    
C28   C29   1.364119 D    
C38   H46   1.082985 S    
P3    O9    1.543344 D    
C13   H29   1.110883 S    
C51   H65   1.092688 S    
C3    H6    1.112150 S    
C43   H50   1.082867 S    
P1    O2    1.577228 S    
C19   C20   1.356467 D    
C17   C22   1.317507 D    
C39   C47   1.487184 S    
O6    C10   1.405131 S    
O3    P6    1.745326 S    
C37   C38   1.403875 A    
C46   C47   1.415378 A    
