data_mof_unit_35249.cif
_audit_creation_date              2012-12-10T16:49:27-0500
_audit_creation_method            fapswitch 2.2
_symmetry_space_group_name_H-M    P1
_symmetry_Int_Tables_number       1
_space_group_crystal_system       triclinic
_cell_length_a                    19.304945
_cell_length_b                    8.68395
_cell_length_c                    7.453118
_cell_angle_alpha                 102.84377
_cell_angle_beta                  95.424096
_cell_angle_gamma                 92.360413
_cell_volume                      1210.25524308

loop_
_atom_site_label
_atom_site_type_symbol
_atom_type_description
_atom_site_fract_x
_atom_site_fract_y
_atom_site_fract_z
_atom_type_partial_charge
C1    C     C_R   0.497857 0.199693 0.453294 0.883883
C2    C     C_R   0.502087 0.800295 0.546701 0.887580
C3    C     C_2   0.496773 0.031868 0.426896 -0.352915
C4    C     C_2   0.503074 0.968092 0.573082 -0.360683
C5    C     C_R   0.367638 0.502779 0.500316 0.862305
C6    C     C_R   0.632857 0.502069 0.500290 0.832784
C7    C     C_R   0.256779 0.426023 0.608096 -0.296485
C8    C     C_R   0.739193 0.498560 0.336152 -0.257380
C9    C     C_R   0.184399 0.418935 0.596753 -0.233151
C10   C     C_R   0.811089 0.500913 0.333349 -0.218766
C11   C     C_R   0.145350 0.489576 0.471742 -0.098064
C12   C     C_R   0.854779 0.507841 0.496002 -0.114782
C13   C     C_R   0.180169 0.561743 0.349508 0.434906
C14   C     C_R   0.826507 0.521312 0.666074 0.431933
C15   C     C_R   0.253556 0.574018 0.366177 0.405605
C16   C     C_R   0.753961 0.523131 0.669859 0.425536
C17   C     C_R   0.291665 0.504662 0.495470 -0.178235
C18   C     C_R   0.709583 0.507608 0.502624 -0.222674
C19   C     C_R   0.929600 0.499762 0.485819 0.441396
C20   C     C_R   0.069142 0.492585 0.476127 0.419003
Cu1   Cu    Cu3+1 0.507710 0.517380 0.684380 0.960924
Cu2   Cu    Cu3+1 0.492290 0.482620 0.315620 0.957336
H1    H     H_    0.158974 0.359087 0.687738 0.177645
H2    H     H_    0.832624 0.491965 0.202566 0.222988
H3    H     H_    0.444882 0.378659 0.948069 0.218171
H4    H     H_    0.554983 0.621601 0.052016 0.220321
N1    N     N_R   0.032774 0.599449 0.404427 -0.177430
N2    N     N_R   0.965672 0.394301 0.560402 -0.189275
N3    N     N_R   0.964173 0.602330 0.407842 -0.251318
N4    N     N_R   0.034259 0.390490 0.555099 -0.255699
N5    N     N_2   0.480680 0.456420 0.038530 -0.221381
N6    N     N_2   0.519320 0.543580 0.961470 -0.211550
O1    O     O_R   0.505010 0.286130 0.619770 -0.581155
O2    O     O_R   0.494990 0.713870 0.380230 -0.579499
O3    O     O_R   0.491990 0.256780 0.308370 -0.586522
O4    O     O_R   0.508010 0.743220 0.691630 -0.594585
O5    O     O_R   0.406650 0.514660 0.655750 -0.605020
O6    O     O_R   0.593350 0.485340 0.344250 -0.597131
O7    O     O_R   0.393640 0.485310 0.344340 -0.562988
O8    O     O_R   0.606360 0.514690 0.655660 -0.532631
H5    H     H_    0.285624 0.368847 0.704049 0.166358
H6    H     H_    0.706665 0.487578 0.206943 0.220668
O9    O     O_3   0.143726 0.627939 0.219487 -0.548629
C21   C     C_3   0.117173 0.505703 0.066079 -0.282924
H7    H     H_    0.071230 0.439089 0.097150 0.190525
H8    H     H_    0.157053 0.421158 0.018778 0.118393
H9    H     H_    0.099820 0.559900 0.949335 0.199062
O10   O     O_3   0.868165 0.523686 0.828945 -0.561706
C22   C     C_3   0.906934 0.670912 0.890751 -0.286757
H10   H     H_    0.880580 0.771722 0.849762 0.130574
H11   H     H_    0.959277 0.663400 0.840708 0.191292
H12   H     H_    0.914928 0.698338 0.044178 0.205668
O11   O     O_3   0.288572 0.670044 0.273649 -0.561766
C23   C     C_3   0.289136 0.593421 0.085694 -0.195729
H13   H     H_    0.288062 0.461774 0.060746 0.113511
H14   H     H_    0.337969 0.632912 0.037051 0.189419
H15   H     H_    0.245244 0.630074 0.000847 0.194408
O12   O     O_3   0.726741 0.530585 0.836596 -0.549722
C24   C     C_3   0.722983 0.691090 0.925853 -0.270525
H16   H     H_    0.687536 0.697610 0.035618 0.167956
H17   H     H_    0.701336 0.763784 0.830479 0.138201
H18   H     H_    0.774859 0.742871 0.994149 0.170730
H19   H     H_    0.490811 0.960431 0.285929 0.179291
H20   H     H_    0.509020 0.039519 0.714048 0.178701

loop_
_geom_bond_atom_site_label_1
_geom_bond_atom_site_label_2
_ccdc_geom_bond_type
H3    N5    S    
C7    C17   A    
C2    C4    S    
O9    C21   S    
C6    O6    A    
H4    N6    S    
Cu2   O3    S    
C20   N1    A    
C3    H19   S    
N1    N3    A    
C11   C13   A    
C4    H20   S    
N5    N6    D    
C21   H9    S    
C22   H12   S    
C2    O2    A    
N2    N4    A    
C1    O1    A    
C24   H16   S    
Cu1   O4    S    
C16   O12   S    
Cu1   Cu2   S    
C19   N2    A    
C9    C11   A    
Cu1   O8    S    
C10   C12   A    
C6    C18   S    
Cu2   O7    S    
C15   O11   S    
C12   C19   S    
C8    C10   A    
O10   C22   S    
C8    H6    S    
C14   C16   A    
C13   C15   A    
Cu2   O2    S    
Cu1   N6    S    
C23   H14   S    
C11   C20   S    
C24   H17   S    
C1    C3    S    
C5    C17   S    
Cu2   N5    S    
C3    C4    D    
Cu2   O6    S    
C13   O9    S    
C6    O8    A    
Cu1   O1    S    
C21   H7    S    
C1    O3    A    
Cu1   O5    S    
C16   C18   A    
C22   H10   S    
C7    H5    S    
C2    O4    A    
C5    O5    A    
C7    C9    A    
C5    O7    A    
C14   O10   S    
C23   H13   S    
C9    H1    S    
C24   H18   S    
C20   N4    A    
C21   H8    S    
C10   H2    S    
O12   C24   S    
C15   C17   A    
C8    C18   A    
O11   C23   S    
C12   C14   A    
C22   H11   S    
C23   H15   S    
C19   N3    A    
