data_mof_unit_55766.cif
_audit_creation_date              2012-12-11T17:01:34-0500
_audit_creation_method            fapswitch 2.2
_symmetry_space_group_name_H-M    P1
_symmetry_Int_Tables_number       1
_space_group_crystal_system       triclinic
_cell_length_a                    15.249511
_cell_length_b                    15.140711
_cell_length_c                    15.000622
_cell_angle_alpha                 110.279567
_cell_angle_beta                  108.401938
_cell_angle_gamma                 110.379113
_cell_volume                      2643.9350557

loop_
_atom_site_label
_atom_site_type_symbol
_atom_type_description
_atom_site_fract_x
_atom_site_fract_y
_atom_site_fract_z
_atom_type_partial_charge
C1    C     C_R   0.986484 0.794275 0.077774 0.588324
C2    C     C_R   0.700592 0.130997 0.703089 -0.088368
C3    C     C_R   0.952557 0.502819 0.677844 -0.012316
C4    C     C_R   0.675410 0.498121 0.965421 0.164400
C5    C     C_R   0.997208 0.593093 0.300365 -0.134663
C6    C     C_R   0.200765 0.405277 0.895964 0.617475
C7    C     C_R   0.310545 0.743365 0.222656 -0.144310
C8    C     C_R   0.899882 0.196682 0.991947 -0.091540
C9    C     C_R   0.998355 0.195999 0.910498 0.550784
C10   C     C_R   0.219733 0.748737 0.313982 -0.070716
C11   C     C_R   0.904550 0.411195 0.209029 0.499451
C12   C     C_R   0.790995 0.192387 0.702805 -0.139024
C13   C     C_R   0.289029 0.585557 0.976273 0.541879
C14   C     C_R   0.934049 0.503286 0.300140 0.050712
C15   C     C_R   0.290475 0.491618 0.917512 0.005774
C16   C     C_R   0.319404 0.771464 0.324155 0.143763
C17   C     C_R   0.931381 0.134769 0.936880 -0.010309
C18   C     C_3   0.471881 0.371118 0.855173 0.719683
C19   C     C_3   0.363050 0.368910 0.836307 0.721032
C20   C     C_3   0.573843 0.536419 0.054666 -0.569294
C21   C     C_3   0.558954 0.575997 0.901277 0.685791
C22   C     C_3   0.571654 0.494164 0.942689 -0.254859
C23   C     C_R   0.028130 0.592837 0.780191 -0.066662
C24   C     C_3   0.389826 0.488386 0.920319 -0.313355
C25   C     C_3   0.464213 0.519832 0.039902 0.189588
C26   C     C_3   0.457266 0.578822 0.901303 0.329481
C27   C     C_R   0.537103 0.052223 0.539006 -0.004528
C28   C     C_R   0.606767 0.035399 0.607280 -0.005583
C29   C     C_R   0.576152 0.929610 0.590183 -0.173968
C30   C     C_R   0.479682 0.839849 0.496818 -0.111171
C31   C     C_R   0.416883 0.858281 0.422519 -0.039081
C32   C     C_R   0.444064 0.964652 0.446910 -0.000091
C33   C     C_3   0.457288 0.016553 0.379765 0.387962
C34   C     C_R   0.688368 0.407884 0.935884 -0.052076
C35   C     C_3   0.559159 0.116026 0.484036 0.360813
C36   C     C_R   0.848059 0.484067 0.409554 -0.017104
C37   C     C_R   0.937580 0.504285 0.395567 -0.139978
C38   C     C_R   0.028960 0.514016 0.469589 0.381605
C39   C     C_R   0.034185 0.516732 0.564407 0.311515
C40   C     C_R   0.947554 0.507595 0.583418 -0.134320
C41   C     C_R   0.853060 0.486176 0.503610 0.019887
C42   C     C_3   0.790111 0.542568 0.512400 -0.643117
C43   C     C_3   0.782701 0.538546 0.406407 0.578680
C44   C     C_R   0.979788 0.983864 0.071246 0.050389
C45   C     C_R   0.936345 0.410027 0.685811 0.575028
C46   C     C_R   0.000222 0.916113 0.001264 -0.097173
C47   C     C_R   0.966586 0.898352 0.893636 0.427174
C48   C     C_R   0.921105 0.956980 0.863575 0.485282
C49   C     C_R   0.927985 0.043456 0.946113 -0.052912
C50   C     C_R   0.949099 0.049787 0.046114 -0.163467
C51   C     C_3   0.013168 0.142502 0.163039 0.276652
C52   C     C_3   0.044686 0.066605 0.191773 0.377844
C53   C     C_R   0.776688 0.590559 0.041901 -0.158148
C54   C     C_R   0.700586 0.196779 0.793410 0.581566
C55   C     C_R   0.076962 0.793948 0.986756 -0.201947
C56   C     C_R   0.029842 0.846058 0.029955 0.019057
H1    H     H_    0.375067 0.753571 0.204841 0.148490
H2    H     H_    0.842172 0.169904 0.017465 0.205580
H3    H     H_    0.200694 0.768017 0.379197 0.105988
H4    H     H_    0.817255 0.158939 0.647518 0.168287
H5    H     H_    0.603021 0.502970 0.104249 0.199972
H6    H     H_    0.423596 0.453809 0.053758 0.174028
H7    H     H_    0.484057 0.658435 0.971492 0.169712
H8    H     H_    0.635772 0.625212 0.108387 0.282037
H9    H     H_    0.626446 0.917199 0.647957 0.149341
H10   H     H_    0.069024 0.676657 0.799959 0.150896
H11   H     H_    0.455939 0.757396 0.481141 0.171878
H12   H     H_    0.474491 0.972211 0.316765 -0.050778
H13   H     H_    0.635614 0.132844 0.481987 0.024403
H14   H     H_    0.710887 0.488508 0.500325 0.165039
H15   H     H_    0.837507 0.624131 0.588379 0.226763
H16   H     H_    0.699431 0.480382 0.335686 0.051629
H17   H     H_    0.630862 0.323438 0.876432 0.210874
H18   H     H_    0.961114 0.160554 0.195008 0.080833
H19   H     H_    0.008059 0.038339 0.237510 0.055458
H20   H     H_    0.797147 0.672804 0.091774 0.230235
H21   H     H_    0.130445 0.822307 0.957188 0.145387
H22   H     H_    0.028603 0.678013 0.357973 0.114872
N1    N     N_R   0.995640 0.706130 0.053910 -0.115136
N2    N     N_R   0.153680 0.443190 0.946090 -0.143075
N3    N     N_R   0.208920 0.706140 0.152110 -0.059168
N4    N     N_R   0.947120 0.293870 0.002870 -0.057821
N5    N     N_R   0.004360 0.293870 0.946090 -0.096694
N6    N     N_R   0.151690 0.706140 0.208890 -0.061026
N7    N     N_R   0.945990 0.443210 0.152110 -0.069187
N8    N     N_R   0.210060 0.556810 0.002870 -0.131252
N9    N     N_R   0.848310 0.293860 0.791110 -0.082927
N10   N     N_R   0.054010 0.556790 0.847890 -0.068481
N11   N     N_R   0.789940 0.443190 0.997130 -0.066499
N12   N     N_R   0.997630 0.443170 0.791110 -0.126477
N13   N     N_R   0.846320 0.556810 0.053910 -0.070634
N14   N     N_R   0.791080 0.293860 0.847890 -0.105340
N15   N     N_R   0.052880 0.706130 0.997130 -0.081928
N16   N     N_R   0.002370 0.556830 0.208890 -0.068971
Ni1   Ni    Ni4+2 0.999010 0.630300 0.130220 0.204202
Ni2   Ni    Ni4+2 0.000990 0.369700 0.869780 0.241443
Ni3   Ni    Ni4+2 0.130280 0.630280 0.000000 0.217156
Ni4   Ni    Ni4+2 0.869720 0.369720 0.000000 0.296625
O1    O     O_3   0.955785 0.836526 0.151938 -0.623897
C57   C     C_3   0.015778 0.845672 0.251404 -0.278896
H23   H     H_    0.103904 0.888456 0.280656 0.155240
H24   H     H_    0.987440 0.764077 0.244009 0.146957
H25   H     H_    0.003094 0.895493 0.314747 0.178065
O2    O     O_3   0.146122 0.300703 0.806953 -0.561913
C58   C     C_3   0.069472 0.287750 0.714531 -0.097346
H26   H     H_    0.052835 0.218312 0.640527 0.170323
H27   H     H_    0.097905 0.361323 0.706519 0.180619
H28   H     H_    0.993504 0.263679 0.716083 0.129257
Cl1   Cl    Cl    0.099777 0.173597 0.896371 -0.613190
Cl2   Cl    Cl    0.798924 0.279757 0.157884 -0.710414
O3    O     O_3   0.307685 0.661287 0.942415 -0.555054
C59   C     C_3   0.355486 0.768259 0.028692 -0.150699
H29   H     H_    0.377452 0.825196 0.998343 0.177650
H30   H     H_    0.431768 0.792466 0.097380 0.156616
H31   H     H_    0.297258 0.778402 0.053723 0.100338
O4    O     O_3   0.474751 0.285576 0.875773 -0.649558
C60   C     C_3   0.499572 0.297341 0.979662 -0.202819
H32   H     H_    0.455295 0.326181 0.015047 0.167052
H33   H     H_    0.587639 0.344867 0.036046 0.162779
H34   H     H_    0.472703 0.214430 0.968810 0.169741
Cl3   Cl    Cl    0.474411 0.323952 0.727204 -0.584858
Cl4   Cl    Cl    0.279896 0.336096 0.697977 -0.553592
O5    O     O_3   0.305607 0.288624 0.857420 -0.611558
C61   C     C_3   0.253835 0.177879 0.771272 0.175870
H35   H     H_    0.255452 0.125798 0.807941 0.105103
H36   H     H_    0.292053 0.165360 0.719697 0.123325
H37   H     H_    0.168167 0.146801 0.716828 0.158964
Cl5   Cl    Cl    0.667964 0.719760 0.991639 -0.708782
O6    O     O_3   0.541008 0.537134 0.792011 -0.541045
C62   C     C_3   0.635321 0.575501 0.783703 0.142063
H38   H     H_    0.702576 0.577177 0.842420 0.083761
H39   H     H_    0.661149 0.658030 0.793322 0.127807
H40   H     H_    0.616050 0.519250 0.700371 0.124192
Cl6   Cl    Cl    0.383971 0.586855 0.787574 -0.347359
Cl7   Cl    Cl    0.490148 0.640375 0.151552 -0.700582
O7    O     O_3   0.373534 0.037983 0.343709 -0.564898
C63   C     C_3   0.340489 0.013156 0.234845 -0.199489
H41   H     H_    0.299551 0.923396 0.178820 0.118719
H42   H     H_    0.409384 0.058201 0.225941 0.116370
H43   H     H_    0.281626 0.038535 0.210091 0.221372
O8    O     O_3   0.548241 0.208175 0.527405 -0.531511
C64   C     C_3   0.593593 0.281425 0.495411 -0.075923
H44   H     H_    0.574640 0.347347 0.520349 0.156491
H45   H     H_    0.559399 0.240117 0.405075 0.106716
H46   H     H_    0.682712 0.320644 0.537506 0.145791
Cl8   Cl    Cl    0.137954 0.525243 0.445363 -0.516219
Cl9   Cl    Cl    0.149664 0.531768 0.658882 -0.506192
O9    O     O_3   0.829554 0.638339 0.406475 -0.599180
C65   C     C_3   0.922431 0.727611 0.506076 -0.187262
H47   H     H_    0.967506 0.788818 0.488953 0.147547
H48   H     H_    0.978297 0.704112 0.544883 0.123074
H49   H     H_    0.898714 0.768476 0.563134 0.170916
O10   O     O_3   0.975682 0.822943 0.818173 -0.633396
C66   C     C_3   0.061069 0.880204 0.804359 -0.239895
H50   H     H_    0.136594 0.943286 0.884109 0.150811
H51   H     H_    0.039101 0.919155 0.757447 0.203423
H52   H     H_    0.078189 0.820680 0.756537 0.140116
O11   O     O_3   0.884392 0.940984 0.759155 -0.604103
C67   C     C_3   0.783455 0.842700 0.688298 -0.230144
H53   H     H_    0.748164 0.836556 0.607894 0.184448
H54   H     H_    0.726121 0.841264 0.719726 0.127139
H55   H     H_    0.791854 0.769776 0.674169 0.168674
Cl10  Cl    Cl    0.123985 0.261960 0.189837 -0.518718
O12   O     O_3   0.155411 0.102617 0.233156 -0.611771
C68   C     C_3   0.208296 0.157891 0.348490 0.051188
H56   H     H_    0.182858 0.099642 0.376891 0.103379
H57   H     H_    0.193892 0.225963 0.383240 0.165792
H58   H     H_    0.296322 0.194430 0.380391 0.197376
O13   O     O_3   0.858310 0.302144 0.605386 -0.664596
C69   C     C_3   0.869934 0.268449 0.511784 -0.324657
H59   H     H_    0.822792 0.284341 0.452630 0.186764
H60   H     H_    0.955323 0.305629 0.530950 0.174844
H61   H     H_    0.835223 0.178322 0.470637 0.181176
O14   O     O_3   0.650964 0.160134 0.846902 -0.625844
C70   C     C_3   0.537967 0.096307 0.779252 -0.147328
H62   H     H_    0.511727 0.008825 0.729936 0.153974
H63   H     H_    0.506170 0.126412 0.726022 0.169023
H64   H     H_    0.501078 0.100382 0.832315 0.184591

loop_
_geom_bond_atom_site_label_1
_geom_bond_atom_site_label_2
_ccdc_geom_bond_type
C21   C26   S    
C19   Cl4   S    
C68   H56   S    
C4    C53   A    
O13   C69   S    
C3    C23   A    
O3    C59   S    
C51   H18   S    
C55   N15   A    
C52   H19   S    
C2    C12   A    
C1    O1    S    
C59   H30   S    
C5    N16   A    
N14   Ni4   S    
O5    C61   S    
C70   H63   S    
C16   C31   S    
C54   N14   A    
C58   H27   S    
C28   C29   A    
C43   H16   S    
C69   H60   S    
C8    N4    A    
C23   H10   S    
O12   C68   S    
C1    C56   A    
C24   C26   S    
N1    N15   A    
C60   H33   S    
C38   C39   A    
C55   H21   S    
C11   C14   A    
C20   C25   S    
C39   Cl9   S    
C42   H14   S    
O4    C60   S    
C18   C19   S    
C41   C42   S    
C20   H5    S    
N8    Ni3   S    
O14   C70   S    
C38   Cl8   S    
N2    N8    A    
N7    Ni4   S    
C8    H2    S    
C6    C15   A    
O8    C64   S    
C67   H53   S    
C42   H15   S    
C13   N8    A    
C53   N13   A    
C67   H54   S    
C51   Cl10  S    
C43   O9    S    
C6    O2    S    
N2    Ni2   S    
C29   C30   A    
C66   H51   S    
N10   Ni3   S    
C44   C52   S    
C68   H57   S    
C21   C22   S    
C11   Cl2   S    
N4    Ni4   S    
C64   H46   S    
C36   C41   A    
C59   H29   S    
C58   H28   S    
C44   C46   A    
C70   H64   S    
C9    Cl1   S    
C63   H43   S    
C4    C34   A    
C51   C52   S    
O9    C65   S    
C66   H52   S    
C2    C54   A    
C65   H49   S    
C17   C49   S    
C39   C40   A    
C47   O10   S    
C27   C35   S    
C48   O11   S    
C3    C45   A    
C57   H25   S    
C18   Cl3   S    
N6    Ni1   S    
C20   H8    S    
C62   H39   S    
C26   H7    S    
N1    Ni1   S    
C37   C38   A    
C26   Cl6   S    
C4    C22   S    
N7    N16   A    
C6    N2    A    
C47   C48   A    
C19   O5    S    
N9    Ni2   S    
C55   C56   A    
C57   H24   S    
C50   C51   S    
C66   H50   S    
C67   H55   S    
C15   C24   S    
C24   C25   S    
C21   Cl5   S    
C45   N12   A    
C63   H42   S    
C21   O6    S    
C5    C14   A    
C35   O8    S    
C61   H37   S    
C29   H9    S    
C9    C17   A    
C40   C41   A    
C7    N3    A    
N10   N12   A    
C3    C40   S    
C49   C50   A    
C68   H58   S    
C23   N10   A    
C13   C15   A    
O11   C67   S    
C1    N1    A    
C64   H45   S    
C60   H34   S    
C62   H40   S    
N11   N13   A    
C42   C43   S    
C18   O4    S    
N15   Ni3   S    
N3    N6    A    
C61   H36   S    
O6    C62   S    
C58   H26   S    
C44   C50   A    
C52   O12   S    
C46   C47   A    
C36   C37   A    
C12   N9    A    
C27   C32   A    
C18   C22   S    
C31   C32   A    
C7    C16   A    
C30   H11   S    
C20   C22   S    
O7    C63   S    
C45   O13   S    
O2    C58   S    
C9    N5    A    
N12   Ni2   S    
C63   H41   S    
C60   H32   S    
C8    C17   A    
O1    C57   S    
N11   Ni4   S    
C32   C33   S    
C54   O14   S    
C65   H48   S    
C62   H38   S    
C5    H22   S    
C34   N11   A    
C13   O3    S    
C70   H62   S    
C10   C16   A    
C65   H47   S    
C14   C37   S    
C33   O7    S    
C30   C31   A    
N3    Ni3   S    
C11   N7    A    
C48   C49   A    
N5    Ni2   S    
C10   N6    A    
C57   H23   S    
C33   C35   S    
C19   C24   S    
C25   H6    S    
N16   Ni1   S    
C25   Cl7   S    
C34   H17   S    
N13   Ni1   S    
C53   H20   S    
C12   H4    S    
C35   H13   S    
N4    N5    A    
C69   H59   S    
C46   C56   S    
C27   C28   A    
C64   H44   S    
C36   C43   S    
C2    C28   S    
O10   C66   S    
N9    N14   A    
C10   H3    S    
C7    H1    S    
C59   H31   S    
C33   H12   S    
C61   H35   S    
C69   H61   S    
