data_mof_unit_18609.cif
_audit_creation_date              2013-03-05T15:42:15-0500
_audit_creation_method            fapswitch 2.2
_symmetry_space_group_name_H-M    P1
_symmetry_Int_Tables_number       1
_space_group_crystal_system       triclinic
_cell_length_a                    11.541597
_cell_length_b                    11.585882
_cell_length_c                    19.445557
_cell_angle_alpha                 90.989276
_cell_angle_beta                  90.708698
_cell_angle_gamma                 60.408544
_cell_volume                      2260.73808488

loop_
_atom_site_label
_atom_site_type_symbol
_atom_site_description
_atom_site_fract_x
_atom_site_fract_y
_atom_site_fract_z
_atom_type_partial_charge
O1    O     O_R   0.267740 0.231960 0.575440 -0.474288
O2    O     O_R   0.527280 0.186640 0.570530 -0.495037
C1    C     C_R   0.641158 0.117340 0.598859 0.554866
O3    O     O_R   0.728090 0.003450 0.576380 -0.480119
O4    O     O_R   0.682970 0.789190 0.570490 -0.472720
C2    C     C_R   0.613059 0.745477 0.598336 0.570061
O5    O     O_R   0.499290 0.771880 0.575530 -0.495114
O6    O     O_R   0.285330 0.030870 0.569730 -0.487644
C3    C     C_R   0.240998 0.145321 0.597927 0.572061
O7    O     O_R   0.270980 0.227080 0.423890 -0.493658
O8    O     O_R   0.530280 0.182120 0.430050 -0.516965
C4    C     C_R   0.646839 0.113430 0.403136 0.567185
O9    O     O_R   0.731330 0.998570 0.424830 -0.462861
O10   O     O_R   0.685970 0.784660 0.430010 -0.465798
C5    C     C_R   0.581478 0.800500 0.394735 0.540557
O11   O     O_R   0.502530 0.767000 0.423990 -0.501625
O12   O     O_R   0.288330 0.026350 0.429250 -0.521747
C6    C     C_R   0.232323 0.146635 0.405541 0.570372
Cr1   Cr    Cr6+3 0.404720 0.198220 0.499960 1.083816
Cr2   Cr    Cr6+3 0.698290 0.897110 0.500380 1.137475
Cr3   Cr    Cr6+3 0.396970 0.904720 0.499610 1.080679
O13   O     O_3   0.499990 0.000020 0.499980 -0.317198
C7    C     C_1   0.669378 0.647041 0.860425 0.008016
C8    C     C_1   0.655627 0.683496 0.728396 -0.025659
C9    C     C_1   0.663096 0.667043 0.799845 -0.028134
C10   C     C_1   0.642566 0.703410 0.667750 0.016393
C11   C     C_1   0.126617 0.198391 0.859455 0.005725
C12   C     C_1   0.171116 0.170516 0.727509 -0.024113
C13   C     C_1   0.149966 0.182031 0.798925 -0.027850
C14   C     C_1   0.194938 0.161361 0.667056 0.019793
C15   C     C_1   0.677478 0.190893 0.861097 0.008476
C16   C     C_1   0.659221 0.167200 0.728921 -0.025994
C17   C     C_1   0.665053 0.180674 0.800394 -0.028395
C18   C     C_1   0.654351 0.149603 0.668297 0.015254
H1    H     H_    0.812868 0.705790 0.326925 0.171515
C19   C     C_R   0.650818 0.706512 0.181683 -0.000112
C20   C     C_R   0.518867 0.778177 0.203902 0.043401
C21   C     C_R   0.494223 0.792083 0.275133 0.031000
C22   C     C_R   0.729097 0.724119 0.294156 -0.127567
C23   C     C_R   0.755074 0.685022 0.226140 -0.147763
C24   C     C_R   0.412600 0.817006 0.156626 -0.066763
C25   C     C_R   0.291845 0.833942 0.178527 -0.076407
C26   C     C_R   0.273083 0.825727 0.247992 -0.090105
C27   C     C_R   0.367488 0.816049 0.296311 -0.067394
C28   C     C_R   0.600630 0.771216 0.320772 -0.000274
H2    H     H_    0.427153 0.821101 0.101964 0.113031
H3    H     H_    0.857911 0.628642 0.209834 0.146815
H4    H     H_    0.213580 0.851844 0.141836 0.116029
H5    H     H_    0.180373 0.838020 0.265070 0.110654
H6    H     H_    0.337799 0.822954 0.348878 0.176797
H7    H     H_    0.119619 0.021689 0.332067 0.174302
C29   C     C_R   0.110344 0.219765 0.202445 -0.002861
C30   C     C_R   0.130207 0.311940 0.242973 -0.023443
C31   C     C_R   0.113119 0.313507 0.314639 0.033691
C32   C     C_R   0.114888 0.106082 0.307458 -0.134703
C33   C     C_R   0.089335 0.125687 0.237056 -0.152123
C34   C     C_R   0.167638 0.401088 0.216120 -0.099094
C35   C     C_R   0.172657 0.496715 0.258520 -0.166678
C36   C     C_R   0.131712 0.511469 0.326715 -0.132141
C37   C     C_R   0.091140 0.426806 0.353899 0.236842
C38   C     C_R   0.140903 0.192679 0.345421 0.053733
H8    H     H_    0.200833 0.393626 0.163826 0.194581
H9    H     H_    0.204710 0.562192 0.237762 0.190818
C39   C     C_R   0.661820 0.183719 0.192258 -0.018155
C40   C     C_R   0.745573 0.059265 0.222059 -0.047694
C41   C     C_R   0.772699 0.054539 0.292923 0.006853
C42   C     C_R   0.574338 0.269912 0.306172 -0.126722
C43   C     C_R   0.572254 0.289839 0.235328 0.188938
C44   C     C_R   0.813143 0.942343 0.181953 -0.089205
C45   C     C_R   0.922394 0.831547 0.208756 -0.175848
C46   C     C_R   0.964133 0.836376 0.275396 -0.144218
C47   C     C_R   0.894749 0.948337 0.317520 0.235485
C48   C     C_R   0.672991 0.152100 0.335715 -0.006161
H10   H     H_    0.978601 0.744230 0.176766 0.123771
O14   O     O_R   0.821500 0.119340 0.952830 -0.509272
O15   O     O_R   0.037130 0.162530 0.957360 -0.493861
C49   C     C_R   0.081636 0.231155 0.928781 0.548213
O16   O     O_R   0.056440 0.344740 0.951340 -0.499987
O17   O     O_R   0.797900 0.560360 0.957470 -0.498666
C50   C     C_R   0.683469 0.604749 0.929760 0.532567
O18   O     O_R   0.596130 0.579390 0.952730 -0.512579
O19   O     O_R   0.639060 0.321160 0.958670 -0.493157
C51   C     C_R   0.707766 0.206394 0.930531 0.538324
O20   O     O_R   0.821240 0.124200 0.104370 -0.534430
O21   O     O_R   0.036890 0.167040 0.097840 -0.505939
C52   C     C_R   0.074954 0.241730 0.128614 0.544425
O22   O     O_R   0.056180 0.349610 0.102880 -0.524853
O23   O     O_R   0.797660 0.564870 0.097950 -0.517465
C53   C     C_R   0.680835 0.619052 0.122339 0.541179
O24   O     O_R   0.595880 0.584250 0.104270 -0.468743
O25   O     O_R   0.638830 0.325670 0.099150 -0.425656
C54   C     C_R   0.704925 0.210171 0.125804 0.552833
Cr4   Cr    Cr6+3 0.926180 0.151990 0.028120 1.019731
Cr5   Cr    Cr6+3 0.921330 0.451820 0.027470 1.027508
Cr6   Cr    Cr6+3 0.626260 0.446870 0.028710 1.095787
O26   O     O_3   0.824590 0.350230 0.028100 -0.263418
H11   H     H_    0.133437 0.587164 0.359160 0.180665
N1    N     N_R   0.031801 0.453328 0.421320 0.089201
O27   O     O_R   0.038538 0.539616 0.462520 -0.314753
O28   O     O_R   0.959793 0.400931 0.439321 -0.305926
H12   H     H_    0.497407 0.346277 0.338075 0.172713
H13   H     H_    0.784790 0.938577 0.128995 0.137816
N2    N     N_R   0.479040 0.417626 0.208719 0.085352
O29   O     O_R   0.453587 0.524337 0.243516 -0.353548
O30   O     O_R   0.407462 0.427499 0.154585 -0.374864
H14   H     H_    0.055413 0.755702 0.293145 0.128185
N3    N     N_R   0.955811 0.958039 0.381062 0.073389
O31   O     O_R   0.050875 0.852062 0.409477 -0.354467
O32   O     O_R   0.922870 0.073384 0.408634 -0.324239
H15   H     H_    0.058798 0.063299 0.209392 0.149302

loop_
_geom_bond_atom_site_label_1
_geom_bond_atom_site_label_2
_geom_bond_distance
_ccdc_geom_bond_type
C19   C53   1.449588 S    
C23   H3    1.082778 S    
C32   C33   1.395457 A    
C42   H12   1.083906 S    
O11   Cr3   2.058144 S    
C11   C13   1.201523 T    
C24   C25   1.379855 A    
Cr6   O26   1.990599 S    
C43   N2    1.434127 S    
C34   H8    1.078067 S    
O4    Cr2   1.932996 S    
C31   C37   1.418306 A    
C49   O16   1.270463 A    
O8    Cr1   1.938026 S    
C39   C43   1.418572 A    
C19   C20   1.396583 A    
C8    C10   1.198893 T    
C37   N1    1.443170 S    
O21   C52   1.284924 A    
O4    C2    1.274606 A    
O18   Cr6   2.049268 S    
C5    O11   1.293936 A    
N1    O27   1.301889 A    
O22   Cr5   2.039165 S    
C15   C51   1.421055 S    
C21   C28   1.428813 A    
O21   Cr4   1.915771 S    
C41   C47   1.420886 A    
O6    C3    1.277699 A    
C45   H10   1.082286 S    
N3    O31   1.301774 A    
C15   C17   1.198208 T    
C45   C46   1.386758 A    
C42   C48   1.401973 A    
C7    C50   1.422331 S    
C22   C28   1.405084 A    
O23   C53   1.267523 A    
C36   C37   1.392301 A    
Cr3   O13   1.982177 S    
N3    O32   1.302461 A    
C33   H15   1.081463 S    
O6    Cr3   1.941732 S    
O7    C6    1.261074 A    
O23   Cr5   1.941963 S    
O1    Cr1   2.057616 S    
C42   C43   1.398684 A    
O10   Cr2   1.925268 S    
C19   C23   1.393927 A    
Cr1   O13   1.997109 S    
O1    C3    1.272223 A    
O15   C49   1.276925 A    
O17   Cr5   1.924968 S    
C22   C23   1.378168 A    
C44   H13   1.083373 S    
C52   O22   1.269257 A    
C26   H5    1.064035 S    
C1    C18   1.421198 S    
C35   C36   1.392476 A    
C30   C31   1.408431 A    
C41   C48   1.414534 A    
O12   Cr3   1.925883 S    
C16   C18   1.198261 T    
H1    C22   1.082859 S    
C26   C27   1.392925 A    
C21   C27   1.412829 A    
C20   C21   1.407916 A    
O15   Cr4   1.936960 S    
C47   N3    1.444979 S    
O7    Cr1   2.033070 S    
C24   H2    1.083671 S    
O12   C6    1.302946 A    
N2    O30   1.301139 A    
C25   H4    1.082656 S    
C8    C9    1.401454 S    
Cr5   O26   1.982649 S    
C3    C14   1.426756 S    
Cr2   O13   1.991135 S    
O19   C51   1.280817 A    
Cr4   O26   1.997584 S    
N1    O28   1.301756 A    
C36   H11   1.079539 S    
C25   C26   1.382977 A    
C39   C54   1.480355 S    
C1    O3    1.273688 A    
O25   C54   1.283443 A    
C29   C30   1.422103 A    
O14   Cr4   2.033403 S    
C27   H6    1.071198 S    
C35   H9    1.080146 S    
C12   C13   1.405638 S    
C30   C34   1.411023 A    
O19   Cr6   1.929258 S    
O9    Cr2   2.049809 S    
O2    Cr1   1.916498 S    
C50   O18   1.268908 A    
C11   C49   1.426856 S    
O24   Cr6   2.048417 S    
O8    C4    1.289452 A    
C6    C38   1.483148 S    
C2    O5    1.268068 A    
C31   C38   1.414804 A    
C16   C17   1.400392 S    
C12   C14   1.201500 T    
O2    C1    1.277002 A    
C46   C47   1.395885 A    
O5    Cr3   2.045263 S    
C39   C40   1.409881 A    
O14   C51   1.273514 A    
C34   C35   1.393294 A    
C2    C10   1.422285 S    
O16   Cr5   2.060436 S    
C40   C44   1.409491 A    
C32   C38   1.381369 A    
C29   C52   1.479268 S    
H7    C32   1.072751 S    
O20   Cr4   2.053078 S    
C7    C9    1.198913 T    
C20   C24   1.411814 A    
C44   C45   1.384796 A    
O25   Cr6   1.931152 S    
O17   C50   1.272894 A    
O3    Cr2   2.040431 S    
C4    O9    1.275689 A    
C40   C41   1.405286 A    
C46   H14   1.064080 S    
N2    O29   1.300007 A    
C5    C28   1.466102 S    
O10   C5    1.312987 A    
O20   C54   1.283327 A    
C53   O24   1.274556 A    
C4    C48   1.474555 S    
C29   C33   1.410745 A    
