data_mof_unit_51832.cif
_audit_creation_date              2012-10-26T17:11:08-0400
_audit_creation_method            fapswitch 2.2
_symmetry_space_group_name_H-M    P1
_symmetry_Int_Tables_number       1
_space_group_crystal_system       triclinic
_cell_length_a                    27.937731
_cell_length_b                    18.676146
_cell_length_c                    16.86898
_cell_angle_alpha                 90.05902
_cell_angle_beta                  62.671852
_cell_angle_gamma                 90.176533
_cell_volume                      7819.33204039

loop_
_atom_site_label
_atom_site_type_symbol
_atom_type_description
_atom_site_fract_x
_atom_site_fract_y
_atom_site_fract_z
_atom_type_partial_charge
C1    C     C_R   0.293361 0.725751 0.330061 0.800822
C2    C     C_R   0.465564 0.129760 0.447796 -0.224953
C3    C     C_R   0.925938 0.096221 0.066936 0.811875
C4    C     C_R   0.425926 0.403631 0.067010 0.812881
C5    C     C_R   0.574306 0.596034 0.932793 0.811655
C6    C     C_R   0.573856 0.403235 0.933098 0.809271
C7    C     C_R   0.426026 0.596369 0.066836 0.812066
C8    C     C_R   0.048998 0.500835 0.505669 0.016567
C9    C     C_R   0.951754 0.499666 0.491918 0.015951
C10   C     C_R   0.558659 0.000894 0.473305 0.020001
C11   C     C_R   0.465890 0.000641 0.446460 0.020738
C12   C     C_R   0.013864 0.560433 0.536710 0.043214
C13   C     C_R   0.473624 0.873294 0.418237 -0.214039
C14   C     C_R   0.986955 0.440148 0.460615 0.043011
C15   C     C_R   0.964593 0.559307 0.531104 0.046683
C16   C     C_R   0.036210 0.441225 0.466374 0.045654
C17   C     C_R   0.529143 0.064502 0.484346 0.044012
C18   C     C_R   0.494853 0.936398 0.435756 0.043337
C19   C     C_R   0.486607 0.065566 0.461061 0.044328
C20   C     C_R   0.543892 0.937896 0.442620 0.044801
C21   C     C_R   0.130610 0.439608 0.490432 0.059441
C22   C     C_R   0.869800 0.560562 0.508329 0.061179
C23   C     C_R   0.886233 0.437426 0.455767 0.064023
C24   C     C_R   0.540960 0.124142 0.523230 -0.232367
C25   C     C_R   0.114137 0.562783 0.542902 0.062753
C26   C     C_R   0.634233 0.937819 0.478523 0.059076
C27   C     C_R   0.390171 0.066120 0.444483 0.059635
C28   C     C_R   0.391603 0.935069 0.438465 0.061159
C29   C     C_R   0.618204 0.063492 0.522718 0.061051
C30   C     C_R   0.174078 0.436738 0.512205 -0.124242
C31   C     C_R   0.826063 0.563315 0.487289 -0.124558
C32   C     C_R   0.833976 0.435483 0.460860 -0.131265
C33   C     C_R   0.166150 0.564566 0.538664 -0.130043
C34   C     C_R   0.675026 0.936064 0.507143 -0.119688
C35   C     C_R   0.074158 0.385328 0.432019 -0.214792
C36   C     C_R   0.336399 0.065674 0.454832 -0.127259
C37   C     C_R   0.336943 0.934694 0.452753 -0.128691
C38   C     C_R   0.666996 0.064482 0.530629 -0.128774
C39   C     C_R   0.192798 0.500193 0.531776 -0.279419
C40   C     C_R   0.807209 0.499826 0.468100 -0.278541
C41   C     C_R   0.692042 0.999864 0.529263 -0.282656
C42   C     C_R   0.311069 0.000053 0.459034 -0.279357
C43   C     C_R   0.097678 0.500957 0.513545 0.075143
C44   C     C_R   0.902862 0.499355 0.484699 0.076393
C45   C     C_R   0.603555 0.000625 0.491966 0.072456
C46   C     C_R   0.926546 0.615038 0.565960 -0.215596
C47   C     C_R   0.415737 0.000521 0.443180 0.076678
C48   C     C_R   0.623973 0.880005 0.434519 -0.188678
C49   C     C_R   0.420354 0.129461 0.433929 -0.187134
C50   C     C_R   0.423686 0.872934 0.418368 -0.190248
C51   C     C_R   0.583532 0.122863 0.544263 -0.182147
C52   C     C_R   0.120101 0.384647 0.443768 -0.188791
C53   C     C_R   0.880413 0.615503 0.554862 -0.186968
C54   C     C_R   0.922094 0.379895 0.423070 -0.186991
C55   C     C_R   0.078364 0.620435 0.575156 -0.190281
C56   C     C_3   0.234240 0.677009 0.792856 -0.391358
C57   C     C_R   0.971183 0.381117 0.425273 -0.209294
C58   C     C_3   0.205836 0.613635 0.773553 -0.326252
C59   C     C_3   0.243206 0.549192 0.737552 -0.844028
C60   C     C_3   0.731850 0.269906 0.225071 -0.381870
C61   C     C_3   0.682791 0.223134 0.284183 -0.285686
C62   C     C_3   0.633519 0.268897 0.339890 -0.827009
C63   C     C_3   0.756694 0.688455 0.208952 -0.391889
C64   C     C_3   0.783052 0.620584 0.222708 -0.314400
C65   C     C_3   0.742277 0.559684 0.261525 -0.842723
C66   C     C_3   0.238327 0.315922 0.793527 -0.378279
C67   C     C_3   0.298950 0.299252 0.751028 -0.298164
C68   C     C_R   0.029574 0.619479 0.572068 -0.223532
C69   C     C_3   0.332449 0.362969 0.697331 -0.845223
C70   C     C_3   0.735080 0.178172 0.792842 -0.390332
C71   C     C_3   0.706781 0.114329 0.774209 -0.326780
C72   C     C_3   0.744317 0.050003 0.738642 -0.844747
C73   C     C_3   0.225846 0.756254 0.231216 -0.384926
C74   C     C_3   0.181890 0.703620 0.292578 -0.297466
C75   C     C_3   0.129114 0.742136 0.350269 -0.809369
C76   C     C_3   0.257274 0.187773 0.208701 -0.391398
C77   C     C_3   0.283940 0.120293 0.222673 -0.317074
C78   C     C_3   0.243449 0.059111 0.261665 -0.838730
C79   C     C_R   0.210520 0.751069 0.962079 0.091708
C80   C     C_3   0.738610 0.815628 0.793359 -0.370843
C81   C     C_3   0.799167 0.798511 0.750805 -0.305374
C82   C     C_3   0.832934 0.861463 0.695561 -0.844313
C83   C     C_R   0.775426 0.215590 0.043358 0.100811
C84   C     C_R   0.782092 0.765927 0.041635 0.095216
C85   C     C_R   0.703771 0.268754 0.671175 0.801952
C86   C     C_R   0.219144 0.234487 0.955920 0.114853
C87   C     C_R   0.711717 0.253242 0.961144 0.092509
C88   C     C_R   0.273956 0.712325 0.044488 0.096526
C89   C     C_R   0.282110 0.265688 0.041742 0.095288
C90   C     C_R   0.719133 0.734453 0.955922 0.115596
C91   C     C_R   0.197497 0.689777 0.016026 -0.194876
C92   C     C_R   0.789065 0.275330 0.986987 -0.196468
C93   C     C_R   0.735271 0.805442 0.061537 -0.178219
C94   C     C_R   0.265242 0.193791 0.937582 -0.194774
C95   C     C_R   0.698253 0.193041 0.016897 -0.194479
C96   C     C_R   0.703911 0.731043 0.671219 0.801813
C97   C     C_R   0.287001 0.773299 0.990220 -0.191935
C98   C     C_R   0.235436 0.305473 0.061395 -0.177788
C99   C     C_R   0.765380 0.694016 0.937334 -0.195974
C100  C     C_R   0.229493 0.670044 0.056300 -0.177592
C101  C     C_R   0.757477 0.293865 0.945787 -0.175103
C102  C     C_R   0.703920 0.789845 0.018739 -0.196647
C103  C     C_R   0.296940 0.209779 0.979646 -0.198573
C104  C     C_R   0.730394 0.173841 0.057060 -0.177822
C105  C     C_R   0.255598 0.792349 0.948878 -0.175516
C106  C     C_R   0.204083 0.290011 0.018551 -0.196895
C107  C     C_R   0.295826 0.269454 0.328791 0.782886
C108  C     C_R   0.797072 0.710137 0.979361 -0.199065
C109  C     C_R   0.140186 0.821024 0.947241 -0.229453
C110  C     C_R   0.851857 0.162493 0.057184 -0.229666
C111  C     C_R   0.855586 0.828587 0.055328 -0.229769
C112  C     C_R   0.145650 0.170057 0.943336 -0.233943
C113  C     C_R   0.640797 0.322087 0.946814 -0.229760
C114  C     C_R   0.351323 0.661466 0.057536 -0.229514
C115  C     C_R   0.355582 0.328527 0.055363 -0.229443
C116  C     C_R   0.645644 0.670039 0.943339 -0.233654
C117  C     C_R   0.116834 0.849021 0.895971 -0.065304
C118  C     C_R   0.793893 0.226853 0.329664 0.797432
C119  C     C_R   0.879820 0.145096 0.105451 -0.061974
C120  C     C_R   0.881642 0.851492 0.104760 -0.065126
C121  C     C_R   0.118905 0.147701 0.894667 -0.063600
C122  C     C_R   0.617032 0.349370 0.895829 -0.065341
C123  C     C_R   0.379605 0.644764 0.105518 -0.061944
C124  C     C_R   0.381645 0.351483 0.104774 -0.065027
C125  C     C_R   0.618912 0.647683 0.894657 -0.064039
C126  C     C_R   0.137106 0.828595 0.806909 -0.259722
C127  C     C_R   0.860906 0.169264 0.192719 -0.263355
C128  C     C_R   0.862593 0.828804 0.192713 -0.259070
C129  C     C_R   0.203731 0.768685 0.671187 0.799142
C130  C     C_R   0.137431 0.170798 0.806961 -0.254184
C131  C     C_R   0.637107 0.328617 0.806909 -0.259014
C132  C     C_R   0.360645 0.668931 0.192767 -0.264087
C133  C     C_R   0.362615 0.328807 0.192729 -0.262113
C134  C     C_R   0.637452 0.670769 0.806943 -0.254742
C135  C     C_R   0.178664 0.778418 0.769059 -0.090377
C136  C     C_R   0.813427 0.209026 0.234187 -0.092689
C137  C     C_R   0.819115 0.781390 0.231406 -0.090683
C138  C     C_R   0.180433 0.218895 0.768435 -0.103474
C139  C     C_R   0.678873 0.278741 0.768981 -0.090805
C140  C     C_R   0.203903 0.231056 0.671220 0.817511
C141  C     C_R   0.312148 0.706421 0.235220 -0.091763
C142  C     C_R   0.319214 0.281277 0.231382 -0.087444
C143  C     C_R   0.680469 0.718844 0.768413 -0.100024
C144  C     C_R   0.197700 0.742985 0.824304 0.078013
C145  C     C_R   0.784191 0.226513 0.185205 0.069484
C146  C     C_R   0.796353 0.751475 0.177799 0.074709
C147  C     C_R   0.203169 0.248790 0.821707 0.069325
C148  C     C_R   0.698343 0.243974 0.824048 0.077542
C149  C     C_R   0.281430 0.720567 0.187773 0.072359
C150  C     C_R   0.296587 0.251153 0.177706 0.075518
C151  C     C_R   0.795802 0.769485 0.328796 0.795288
C152  C     C_R   0.703228 0.748695 0.821674 0.067086
C153  C     C_R   0.180754 0.769271 0.911850 0.039397
C154  C     C_R   0.804419 0.202041 0.096183 0.039185
C155  C     C_R   0.812761 0.780143 0.091514 0.037598
C156  C     C_R   0.187977 0.219361 0.907101 0.040845
C157  C     C_R   0.681620 0.270730 0.911299 0.038982
C158  C     C_R   0.302684 0.698391 0.097684 0.039321
C159  C     C_R   0.312858 0.279915 0.091504 0.036679
C160  C     C_R   0.687998 0.719290 0.907080 0.039816
C161  C     C_R   0.196545 0.631837 0.528400 0.790597
C162  C     C_R   0.579109 0.879160 0.419264 -0.218284
C163  C     C_R   0.803498 0.368162 0.471459 0.817097
C164  C     C_R   0.799416 0.630837 0.485527 0.815615
C165  C     C_R   0.200628 0.369176 0.514302 0.817782
C166  C     C_R   0.696896 0.131503 0.525935 0.793980
C167  C     C_R   0.303792 0.868180 0.471040 0.817905
C168  C     C_R   0.303449 0.131744 0.472177 0.809524
C169  C     C_R   0.700854 0.869025 0.513301 0.817432
C170  C     C_R   0.925937 0.903617 0.067000 0.812455
C171  C     C_R   0.074306 0.096036 0.932794 0.811589
C172  C     C_R   0.073816 0.903156 0.933134 0.809053
Cu1   Cu    Cu3+1 0.209920 0.785290 0.495070 0.911823
Cu2   Cu    Cu3+1 0.504760 0.500000 0.075850 0.932300
Cu3   Cu    Cu3+1 0.995240 0.000000 0.924150 0.935104
Cu4   Cu    Cu3+1 0.004760 0.000000 0.075850 0.934794
Cu5   Cu    Cu3+1 0.790080 0.214710 0.504930 0.926043
Cu6   Cu    Cu3+1 0.790080 0.785290 0.504930 0.918443
Cu7   Cu    Cu3+1 0.209920 0.214710 0.495070 0.921422
Cu8   Cu    Cu3+1 0.709920 0.285290 0.495070 0.910573
Cu9   Cu    Cu3+1 0.290080 0.714710 0.504930 0.921083
Cu10  Cu    Cu3+1 0.290080 0.285290 0.504930 0.911949
Cu11  Cu    Cu3+1 0.709920 0.714710 0.495070 0.918025
Cu12  Cu    Cu3+1 0.495240 0.500000 0.924150 0.935095
H1    H     H_    0.229630 0.499941 0.538269 0.192597
H2    H     H_    0.852084 0.658093 0.587390 0.161753
H3    H     H_    0.219504 0.201765 0.268697 0.214715
H4    H     H_    0.243216 0.173135 0.159194 0.198293
H5    H     H_    0.823647 0.872839 0.639460 0.263731
H6    H     H_    0.824639 0.909977 0.737978 0.247963
H7    H     H_    0.876388 0.848243 0.667579 0.228987
H8    H     H_    0.811179 0.787228 0.803670 0.217522
H9    H     H_    0.808728 0.750422 0.707518 0.221798
H10   H     H_    0.728721 0.848818 0.748284 0.207182
H11   H     H_    0.728238 0.850952 0.852008 0.177977
H12   H     H_    0.913695 0.334147 0.392098 0.162268
H13   H     H_    0.086530 0.666083 0.606550 0.165270
H14   H     H_    0.573909 0.832433 0.386354 0.134083
H15   H     H_    0.485298 0.180568 0.443626 0.138116
H16   H     H_    0.493994 0.822514 0.406698 0.136788
H17   H     H_    0.515945 0.171453 0.541733 0.141284
H18   H     H_    0.070129 0.341113 0.394557 0.133277
H19   H     H_    0.930547 0.659194 0.603533 0.133529
H20   H     H_    0.995364 0.333838 0.399793 0.135059
H21   H     H_    0.770177 0.500041 0.462234 0.192039
H22   H     H_    0.005561 0.666959 0.596978 0.137270
H23   H     H_    0.266429 0.839246 0.906350 0.139150
H24   H     H_    0.719657 0.127351 0.100194 0.129424
H25   H     H_    0.832656 0.678604 0.964574 0.138713
H26   H     H_    0.168452 0.321503 0.033534 0.131591
H27   H     H_    0.768674 0.339846 0.901738 0.139511
H28   H     H_    0.219046 0.622794 0.098110 0.130170
H29   H     H_    0.332416 0.178055 0.965019 0.139009
H30   H     H_    0.668175 0.821136 0.033894 0.132433
H31   H     H_    0.163375 0.656767 0.025303 0.137737
H32   H     H_    0.726418 0.999612 0.542751 0.189995
H33   H     H_    0.823416 0.308321 0.976575 0.138546
H34   H     H_    0.722969 0.848009 0.110569 0.136154
H35   H     H_    0.277094 0.150576 0.889461 0.138090
H36   H     H_    0.663649 0.160453 0.027721 0.137337
H37   H     H_    0.320797 0.806803 0.981467 0.138535
H38   H     H_    0.223261 0.348168 0.110246 0.134987
H39   H     H_    0.777357 0.650922 0.889034 0.136922
H40   H     H_    0.127592 0.840191 0.014568 0.160550
H41   H     H_    0.865929 0.143437 0.989424 0.162800
H42   H     H_    0.867749 0.849431 0.988835 0.161765
H43   H     H_    0.269551 0.999845 0.470781 0.192078
H44   H     H_    0.134099 0.148689 0.009391 0.160672
H45   H     H_    0.628362 0.341556 0.013972 0.160336
H46   H     H_    0.365955 0.643466 0.989236 0.162722
H47   H     H_    0.367679 0.349429 0.988917 0.162045
H48   H     H_    0.634071 0.648699 0.009414 0.160722
H49   H     H_    0.121501 0.853887 0.765804 0.182690
H50   H     H_    0.882598 0.155017 0.229642 0.180520
H51   H     H_    0.880782 0.850116 0.232342 0.184010
H52   H     H_    0.119081 0.149598 0.767522 0.183356
H53   H     H_    0.621174 0.353408 0.765975 0.182794
H54   H     H_    0.651117 0.835302 0.408200 0.170070
H55   H     H_    0.383090 0.656306 0.228953 0.179840
H56   H     H_    0.380754 0.350211 0.232387 0.182872
H57   H     H_    0.619097 0.649580 0.767504 0.183714
H58   H     H_    0.278950 0.563261 0.673885 0.258965
H59   H     H_    0.256696 0.531122 0.786773 0.245100
H60   H     H_    0.221444 0.504367 0.724776 0.237539
H61   H     H_    0.169958 0.597841 0.836276 0.207265
H62   H     H_    0.191684 0.628540 0.724193 0.217305
H63   H     H_    0.273417 0.689913 0.735071 0.221507
H64   H     H_    0.245953 0.657994 0.843572 0.199953
H65   H     H_    0.411040 0.179772 0.413311 0.176989
H66   H     H_    0.641312 0.303288 0.386514 0.255308
H67   H     H_    0.623451 0.303171 0.295876 0.240132
H68   H     H_    0.598513 0.233671 0.379491 0.237043
H69   H     H_    0.672851 0.187090 0.241522 0.199369
H70   H     H_    0.691362 0.188428 0.329509 0.236903
H71   H     H_    0.735835 0.318149 0.259943 0.211315
H72   H     H_    0.723540 0.294374 0.172838 0.190381
H73   H     H_    0.709501 0.575154 0.327854 0.257016
H74   H     H_    0.724698 0.546364 0.216119 0.245253
H75   H     H_    0.762614 0.511365 0.269847 0.236869
H76   H     H_    0.412058 0.823232 0.399523 0.172522
H77   H     H_    0.816038 0.603322 0.157373 0.205620
H78   H     H_    0.801029 0.630841 0.268202 0.226591
H79   H     H_    0.719049 0.702691 0.269045 0.213748
H80   H     H_    0.742421 0.674157 0.159620 0.198718
H81   H     H_    0.323261 0.375193 0.641317 0.262236
H82   H     H_    0.323790 0.410860 0.740851 0.247423
H83   H     H_    0.375965 0.350123 0.669324 0.230610
H84   H     H_    0.310825 0.287204 0.803876 0.217173
H85   H     H_    0.308904 0.251755 0.706652 0.235056
H86   H     H_    0.228385 0.348973 0.748404 0.206570
H87   H     H_    0.587217 0.168258 0.580736 0.170770
H88   H     H_    0.227775 0.351225 0.852249 0.179144
H89   H     H_    0.779966 0.063927 0.674780 0.259237
H90   H     H_    0.757953 0.032514 0.787895 0.245461
H91   H     H_    0.722633 0.004818 0.726363 0.236677
H92   H     H_    0.670999 0.098667 0.837140 0.207402
H93   H     H_    0.692501 0.128655 0.724837 0.218227
H94   H     H_    0.774150 0.191086 0.734813 0.221527
H95   H     H_    0.746955 0.159656 0.843578 0.200113
H96   H     H_    0.134831 0.781231 0.394896 0.254901
H97   H     H_    0.114645 0.770615 0.307592 0.239205
H98   H     H_    0.148346 0.341819 0.411722 0.166518
H99   H     H_    0.098071 0.702497 0.392110 0.245527
H100  H     H_    0.174526 0.663042 0.251264 0.197342
H101  H     H_    0.194638 0.674125 0.336755 0.234958
H102  H     H_    0.226736 0.806708 0.265098 0.213682
H103  H     H_    0.213510 0.776216 0.181542 0.192955
H104  H     H_    0.210598 0.074537 0.327943 0.256770
H105  H     H_    0.225940 0.045336 0.216289 0.244890
H106  H     H_    0.264010 0.011097 0.270152 0.239049
H107  H     H_    0.317017 0.103090 0.157401 0.206058
H108  H     H_    0.301858 0.130987 0.268159 0.221662
O1    O     O_R   0.255040 0.869590 0.478480 -0.581987
O2    O     O_R   0.817950 0.203450 0.375560 -0.587805
O3    O     O_R   0.817950 0.796550 0.375560 -0.582428
O4    O     O_R   0.182050 0.203450 0.624440 -0.580277
O5    O     O_R   0.682050 0.296550 0.624440 -0.588187
O6    O     O_R   0.317950 0.703450 0.375560 -0.588888
O7    O     O_R   0.317950 0.296550 0.375560 -0.591992
O8    O     O_R   0.682050 0.703450 0.624440 -0.583238
O9    O     O_R   0.250530 0.763330 0.367210 -0.590077
O10   O     O_R   0.749470 0.236670 0.632790 -0.585348
O11   O     O_R   0.749470 0.763330 0.632790 -0.591949
O12   O     O_R   0.744960 0.130410 0.521520 -0.579584
O13   O     O_R   0.250530 0.236670 0.367210 -0.598789
O14   O     O_R   0.750530 0.263330 0.367210 -0.590487
O15   O     O_R   0.249470 0.736670 0.632790 -0.585510
O16   O     O_R   0.249470 0.263330 0.632790 -0.581993
O17   O     O_R   0.750530 0.736670 0.367210 -0.599670
O18   O     O_R   0.177260 0.690030 0.513710 -0.595444
O19   O     O_R   0.822740 0.309970 0.486290 -0.587341
O20   O     O_R   0.822740 0.690030 0.486290 -0.591146
O21   O     O_R   0.177260 0.309970 0.513710 -0.592389
O22   O     O_R   0.677260 0.190030 0.513710 -0.598625
O23   O     O_R   0.744960 0.869590 0.521520 -0.590632
O24   O     O_R   0.322740 0.809970 0.486290 -0.591499
O25   O     O_R   0.322740 0.190030 0.486290 -0.597555
O26   O     O_R   0.677260 0.809970 0.513710 -0.594113
O27   O     O_R   0.051640 0.926880 0.885090 -0.588828
O28   O     O_R   0.948360 0.073120 0.114910 -0.588433
O29   O     O_R   0.948360 0.926880 0.114910 -0.587954
O30   O     O_R   0.051640 0.073120 0.885090 -0.588191
O31   O     O_R   0.551640 0.426880 0.885090 -0.588654
O32   O     O_R   0.448360 0.573120 0.114910 -0.588236
O33   O     O_R   0.448360 0.426880 0.114910 -0.588837
O34   O     O_R   0.255040 0.130410 0.478480 -0.581619
O35   O     O_R   0.551640 0.573120 0.885090 -0.588335
O36   O     O_R   0.940620 0.926560 0.986760 -0.592547
O37   O     O_R   0.059380 0.073440 0.013240 -0.592586
O38   O     O_R   0.059380 0.926560 0.013240 -0.591332
O39   O     O_R   0.940620 0.073440 0.986760 -0.592493
O40   O     O_R   0.440620 0.426560 0.986760 -0.592123
O41   O     O_R   0.559380 0.573440 0.013240 -0.592709
O42   O     O_R   0.559380 0.426560 0.013240 -0.592014
O43   O     O_R   0.440620 0.573440 0.986760 -0.592460
O44   O     O_R   0.755040 0.369590 0.478480 -0.583611
O45   O     O_R   0.244960 0.630410 0.521520 -0.581644
O46   O     O_R   0.244960 0.369590 0.521520 -0.591413
O47   O     O_R   0.755040 0.630410 0.478480 -0.585769
O48   O     O_R   0.182050 0.796550 0.624440 -0.589452

loop_
_geom_bond_atom_site_label_1
_geom_bond_atom_site_label_2
_ccdc_geom_bond_type
C167  O1    A    
Cu2   O41   S    
C28   C47   A    
C112  H44   S    
Cu10  O25   S    
Cu12  O31   S    
C36   C42   A    
C83   C154  S    
C56   H64   S    
C124  C133  A    
C151  O3    A    
C6    O31   A    
C13   H16   S    
C132  H55   S    
C16   C35   A    
C69   H81   S    
C48   C162  A    
C106  H26   S    
C32   C163  S    
C36   C168  S    
C37   C42   A    
C126  H49   S    
C86   C156  S    
C91   H31   S    
C134  C143  A    
C161  O45   A    
C165  O21   A    
C113  C122  A    
C10   C20   A    
C105  H23   S    
C96   O11   A    
C88   C158  S    
C91   C100  A    
C117  C126  A    
C63   C146  S    
C88   C97   A    
C76   H4    S    
C97   C105  A    
C24   C51   A    
C62   H68   S    
Cu5   O2    S    
C8    C16   A    
Cu7   O4    S    
Cu12  O43   S    
Cu6   O23   S    
C78   H106  S    
Cu8   O14   S    
C139  C148  A    
C54   H12   S    
C150  C159  A    
C109  C117  A    
C72   H89   S    
C137  C146  A    
C127  C136  A    
C74   C75   S    
Cu2   Cu12  S    
C64   H77   S    
C29   C45   A    
C65   H73   S    
C134  H57   S    
C66   H86   S    
Cu4   O29   S    
C166  O12   A    
Cu3   Cu4   S    
C138  C140  S    
C13   C18   A    
C46   H19   S    
Cu9   O24   S    
C70   C148  S    
C130  C138  A    
Cu4   O38   S    
Cu11  O8    S    
C118  C136  S    
C83   C104  A    
C14   C57   A    
C61   H69   S    
C2    C19   A    
C58   H61   S    
C25   C55   A    
C7    C123  S    
C70   H94   S    
C69   H83   S    
Cu2   O32   S    
C162  H14   S    
C98   C106  A    
C170  O36   A    
C9    C15   A    
C23   C32   A    
C129  O15   A    
C117  C172  S    
C55   H13   S    
C50   H76   S    
C46   C53   A    
C94   H35   S    
C84   C93   A    
C92   H33   S    
C81   H9    S    
C62   H66   S    
Cu6   O3    S    
C93   H34   S    
C113  C157  A    
C111  C155  A    
C11   C18   A    
C82   H7    S    
C72   H91   S    
C121  C130  A    
C63   H80   S    
C25   C43   A    
C99   C108  A    
C12   C68   A    
C133  C142  A    
C171  O30   A    
C167  O24   A    
C65   H75   S    
C60   H72   S    
C4    C124  S    
C114  H46   S    
C90   C102  A    
C26   C45   A    
C87   C101  A    
C73   H102  S    
C85   O5    A    
C87   C95   A    
Cu8   O5    S    
C171  O37   A    
C149  C158  A    
C79   C91   A    
C66   C67   S    
C5    O35   A    
C116  H48   S    
C129  O48   A    
C86   C106  A    
C168  O34   A    
C78   H104  S    
C89   C159  S    
C99   H39   S    
C24   H17   S    
C31   C164  S    
C164  O47   A    
C2    H15   S    
C38   C41   A    
Cu9   O45   S    
C166  O22   A    
Cu1   O1    S    
C87   C157  S    
C59   H60   S    
C67   H85   S    
C53   H2    S    
C79   C153  S    
C76   C150  S    
C8    C12   A    
C20   C162  A    
C10   C45   A    
C34   C169  S    
C3    C119  S    
C114  C123  A    
C133  H56   S    
C151  O17   A    
C116  C125  A    
C172  O27   A    
C68   H22   S    
C145  C154  A    
C122  C131  A    
C29   C51   A    
C27   C47   A    
C132  C141  A    
Cu2   O42   S    
C40   H21   S    
C140  O16   A    
Cu5   O19   S    
C118  O2    A    
Cu6   O20   S    
C168  O25   A    
C30   C165  S    
C110  C119  A    
C48   H54   S    
C113  H45   S    
C164  O20   A    
C75   H96   S    
C112  C121  A    
C82   H5    S    
C107  O7    A    
C67   H84   S    
C28   C37   A    
C98   H38   S    
C130  H52   S    
Cu5   O10   S    
C56   C58   S    
C30   C39   A    
C148  C157  A    
C61   C62   S    
C165  O46   A    
C131  C139  A    
Cu1   Cu9   S    
C13   C50   A    
Cu10  O46   S    
C112  C156  A    
C5    C125  S    
C161  O18   A    
C15   C46   A    
C27   C49   A    
C25   C33   A    
C54   C57   A    
C119  C127  A    
C125  C134  A    
C73   C74   S    
C90   C99   A    
C11   C47   A    
C8    C43   A    
C77   H108  S    
C55   C68   A    
Cu3   O39   S    
C37   C167  S    
C77   C78   S    
C101  H27   S    
C11   C19   A    
C71   H93   S    
C59   H58   S    
C72   H90   S    
C116  C160  A    
Cu1   O9    S    
C123  C132  A    
C64   H78   S    
C31   C40   A    
C114  C158  A    
Cu8   O44   S    
C102  H30   S    
C146  C155  A    
C127  H50   S    
C70   C71   S    
C109  C153  A    
Cu6   Cu11  S    
C26   C48   A    
Cu7   Cu10  S    
C49   H65   S    
C128  H51   S    
C85   O10   A    
C74   H100  S    
C34   C41   A    
C81   C82   S    
Cu3   O27   S    
C56   H63   S    
C4    O40   A    
Cu4   O28   S    
C58   H62   S    
C69   H82   S    
Cu2   O33   S    
C74   H101  S    
C58   C59   S    
Cu5   O12   S    
C23   C44   A    
C115  C159  A    
C60   C61   S    
C170  O29   A    
C9    C14   A    
C77   H107  S    
C1    O6    A    
Cu3   O30   S    
C12   C15   A    
C95   H36   S    
C3    O28   A    
C147  C156  A    
C66   C147  S    
C88   C100  A    
C76   H3    S    
C169  O26   A    
C62   H67   S    
C126  C135  A    
C60   C145  S    
C163  O19   A    
C78   H105  S    
C38   C166  S    
C80   H11   S    
Cu7   O34   S    
C115  C124  A    
C73   C149  S    
C7    O32   A    
C111  H42   S    
C63   H79   S    
C93   C102  A    
C120  C128  A    
C35   H18   S    
C27   C36   A    
C3    O39   A    
C21   C30   A    
C89   C98   A    
Cu12  O35   S    
C64   C65   S    
C142  C150  A    
C57   H20   S    
C65   H74   S    
C96   C143  S    
C120  C170  S    
C4    O33   A    
C84   C108  A    
Cu1   O18   S    
C104  H24   S    
C90   C160  S    
Cu1   O48   S    
C1    C141  S    
C70   H95   S    
C56   C144  S    
C71   C72   S    
C35   C52   A    
Cu6   O11   S    
Cu7   O13   S    
Cu4   O37   S    
C152  C160  A    
C61   H70   S    
C51   H87   S    
C33   C161  S    
C108  H25   S    
C141  C149  A    
C42   H43   S    
C107  O13   A    
C83   C92   A    
C33   C39   A    
Cu9   O6    S    
Cu7   O21   S    
C59   H59   S    
C84   C155  S    
Cu3   O36   S    
C10   C17   A    
C5    O41   A    
C75   H99   S    
C79   C105  A    
C7    O43   A    
C96   O8    A    
C144  C153  A    
C86   C94   A    
C21   C43   A    
C28   C50   A    
C26   C34   A    
C22   C44   A    
C97   H37   S    
Cu12  O40   S    
C85   C139  S    
C115  H47   S    
C136  C145  A    
C129  C135  S    
C82   H6    S    
C1    O9    A    
Cu9   O15   S    
C71   H92   S    
C22   C53   A    
C17   C24   A    
C22   C31   A    
Cu11  O26   S    
C163  O44   A    
C76   C77   S    
C41   H32   S    
C52   H98   S    
C100  H28   S    
C60   H71   S    
C63   C64   S    
C111  C120  A    
C67   C69   S    
C29   C38   A    
C128  C137  A    
C81   H8    S    
C110  C154  A    
C2    C49   A    
C73   H103  S    
C138  C147  A    
Cu5   Cu8   S    
Cu11  O17   S    
C107  C142  S    
C109  H40   S    
C92   C101  A    
C135  C144  A    
C121  C171  S    
C14   C16   A    
C6    O42   A    
C6    C122  S    
C95   C104  A    
C169  O23   A    
C23   C54   A    
C80   C152  S    
C103  H29   S    
C143  C152  A    
C9    C44   A    
Cu10  O7    S    
C80   C81   S    
C110  H41   S    
C140  O4    A    
C80   H10   S    
C94   C103  A    
C75   H97   S    
C172  O38   A    
Cu8   O22   S    
C131  H53   S    
C118  O14   A    
C17   C19   A    
Cu10  O16   S    
C18   C20   A    
C32   C40   A    
C66   H88   S    
Cu11  O47   S    
C39   H1    S    
C137  C151  S    
C21   C52   A    
C89   C103  A    
