data_mof_unit_63297.cif
_audit_creation_date              2012-12-10T19:31:56-0500
_audit_creation_method            fapswitch 2.2
_symmetry_space_group_name_H-M    P1
_symmetry_Int_Tables_number       1
_space_group_crystal_system       triclinic
_cell_length_a                    26.271776
_cell_length_b                    24.155909
_cell_length_c                    16.567651
_cell_angle_alpha                 90.016348
_cell_angle_beta                  89.953027
_cell_angle_gamma                 90.000162
_cell_volume                      10514.1360239

loop_
_atom_site_label
_atom_site_type_symbol
_atom_type_description
_atom_site_fract_x
_atom_site_fract_y
_atom_site_fract_z
_atom_type_partial_charge
C1    C     C_R   0.075282 0.431146 0.499264 0.869963
C2    C     C_R   0.924980 0.569224 0.499468 0.873085
C3    C     C_R   0.924962 0.430806 0.500567 0.872011
C4    C     C_R   0.074881 0.569501 0.500605 0.871667
C5    C     C_R   0.575053 0.930851 0.500522 0.874961
C6    C     C_R   0.424973 0.069115 0.500487 0.875954
C7    C     C_R   0.424911 0.930910 0.499543 0.875419
C8    C     C_R   0.575031 0.069184 0.499435 0.874278
C9    C     C_R   0.987746 0.547517 0.744623 0.122103
C10   C     C_R   0.987749 0.452476 0.255467 0.124356
C11   C     C_R   0.011938 0.452411 0.744694 0.124873
C12   C     C_R   0.012079 0.547524 0.255251 0.122915
C13   C     C_R   0.512865 0.047285 0.744804 0.122030
C14   C     C_R   0.513175 0.952820 0.255145 0.121684
C15   C     C_R   0.486947 0.952741 0.744651 0.120672
C16   C     C_R   0.486586 0.047123 0.255377 0.118559
C17   C     C_R   0.999586 0.499990 0.873996 0.042822
C18   C     C_R   0.999550 0.499945 0.126030 0.042877
C19   C     C_R   0.499634 0.999998 0.874035 0.042314
C20   C     C_R   0.499659 0.000030 0.125957 0.041513
C21   C     C_1   0.999456 0.499977 0.963048 0.122224
C22   C     C_1   0.999441 0.499920 0.036981 0.122268
C23   C     C_1   0.499543 0.999999 0.963044 0.120673
C24   C     C_1   0.499551 0.000044 0.036950 0.120259
C25   C     C_R   0.165190 0.682006 0.574701 -0.091218
C26   C     C_R   0.817854 0.336913 0.428282 -0.047299
C27   C     C_R   0.832447 0.319554 0.571907 -0.088214
C28   C     C_R   0.179009 0.668027 0.430059 -0.044472
C29   C     C_R   0.832652 0.680596 0.428129 -0.088108
C30   C     C_R   0.184792 0.338581 0.567363 -0.030405
C31   C     C_R   0.178736 0.333173 0.420457 -0.101522
C32   C     C_R   0.817836 0.663211 0.571726 -0.046759
C33   C     C_R   0.683951 0.160311 0.572403 -0.047845
C34   C     C_R   0.329581 0.820753 0.432812 -0.082413
C35   C     C_R   0.313250 0.844181 0.574128 -0.049531
C36   C     C_R   0.668402 0.180260 0.429764 -0.086159
C37   C     C_R   0.311572 0.153767 0.427499 -0.035826
C38   C     C_R   0.668385 0.819810 0.570069 -0.085974
C39   C     C_R   0.684085 0.839816 0.427442 -0.047681
C40   C     C_R   0.334496 0.183996 0.563743 -0.083059
C41   C     C_R   0.134083 0.634591 0.576911 0.117063
C42   C     C_R   0.851278 0.382567 0.431609 0.017397
C43   C     C_R   0.864798 0.365919 0.575482 0.114695
C44   C     C_R   0.147000 0.621149 0.432199 0.018679
C45   C     C_R   0.864974 0.634205 0.424566 0.115020
C46   C     C_R   0.149780 0.382938 0.566917 0.021279
C47   C     C_R   0.140263 0.373684 0.420785 0.123116
C48   C     C_R   0.851258 0.617546 0.568426 0.017746
C49   C     C_R   0.649781 0.115360 0.568273 0.018035
C50   C     C_R   0.364148 0.865111 0.427107 0.112493
C51   C     C_R   0.348799 0.887809 0.568913 0.017154
C52   C     C_R   0.635162 0.134663 0.425343 0.113591
C53   C     C_R   0.347536 0.110515 0.432772 0.022486
C54   C     C_R   0.635204 0.865452 0.574538 0.113709
C55   C     C_R   0.649893 0.884757 0.431610 0.017567
C56   C     C_R   0.366434 0.137539 0.571465 0.107108
C57   C     C_R   0.119392 0.608267 0.503344 -0.118082
C58   C     C_R   0.879701 0.393144 0.502753 -0.119526
C59   C     C_R   0.879763 0.606952 0.497302 -0.118620
C60   C     C_R   0.121878 0.395310 0.495792 -0.127413
C61   C     C_R   0.620565 0.106446 0.497437 -0.117912
C62   C     C_R   0.378800 0.894457 0.498202 -0.119073
C63   C     C_R   0.379166 0.105871 0.501820 -0.120679
C64   C     C_R   0.620619 0.893639 0.502458 -0.117871
C65   C     C_R   0.187901 0.698232 0.501580 0.022988
C66   C     C_R   0.808786 0.305499 0.498615 0.020440
C67   C     C_R   0.808875 0.694635 0.501388 0.021046
C68   C     C_R   0.198717 0.313483 0.493615 0.003277
C69   C     C_R   0.692916 0.192674 0.502990 0.020075
C70   C     C_R   0.304047 0.810689 0.505983 0.018065
C71   C     C_R   0.306991 0.191949 0.491703 0.015991
C72   C     C_R   0.692970 0.807415 0.496832 0.020292
C73   C     C_1   0.228043 0.738970 0.503872 0.140995
C74   C     C_1   0.768211 0.265257 0.499902 0.138850
C75   C     C_1   0.768287 0.734863 0.500026 0.138690
C76   C     C_1   0.236577 0.270185 0.491506 0.143554
C77   C     C_1   0.733825 0.232523 0.502307 0.136557
C78   C     C_1   0.262514 0.771598 0.506274 0.134806
C79   C     C_1   0.268450 0.234508 0.489811 0.152911
C80   C     C_1   0.733893 0.767583 0.497541 0.137094
C81   C     C_R   0.985595 0.547294 0.830463 -0.001749
C82   C     C_R   0.985457 0.452694 0.169654 -0.001232
C83   C     C_R   0.013715 0.452661 0.830573 -0.002092
C84   C     C_R   0.013860 0.547234 0.169374 -0.002325
C85   C     C_R   0.514425 0.047075 0.830681 -0.003696
C86   C     C_R   0.514817 0.953083 0.169263 -0.002896
C87   C     C_R   0.484998 0.952934 0.830497 -0.002132
C88   C     C_R   0.484622 0.046932 0.169554 -0.001839
Cu1   Cu    Cu3+1 0.000000 0.500000 0.580420 1.077902
Cu2   Cu    Cu3+1 0.000000 0.500000 0.419580 1.077199
Cu3   Cu    Cu3+1 0.500000 1.000000 0.580420 1.078700
Cu4   Cu    Cu3+1 0.500000 1.000000 0.419580 1.078394
N1    N     N_R   0.000000 0.500000 0.701220 -0.199843
N2    N     N_R   0.000000 0.500000 0.298780 -0.200224
N3    N     N_R   0.500000 0.000000 0.701220 -0.200059
N4    N     N_R   0.500000 1.000000 0.298780 -0.200232
O1    O     O_R   0.054370 0.445630 0.567930 -0.566789
O2    O     O_R   0.945630 0.554370 0.432070 -0.517438
O3    O     O_R   0.945630 0.554370 0.567930 -0.570699
O4    O     O_R   0.054370 0.445630 0.432070 -0.519518
O5    O     O_R   0.945630 0.445630 0.432070 -0.571684
O6    O     O_R   0.054370 0.554370 0.567930 -0.518972
O7    O     O_R   0.054370 0.554370 0.432070 -0.568273
O8    O     O_R   0.945630 0.445630 0.567930 -0.516822
O9    O     O_R   0.554370 0.945630 0.567930 -0.519463
O10   O     O_R   0.445630 0.054370 0.432070 -0.572005
O11   O     O_R   0.445630 0.054370 0.567930 -0.517758
O12   O     O_R   0.554370 0.945630 0.432070 -0.567501
O13   O     O_R   0.445630 0.945630 0.432070 -0.518051
O14   O     O_R   0.554370 0.054370 0.567930 -0.567450
O15   O     O_R   0.554370 0.054370 0.432070 -0.520252
O16   O     O_R   0.445630 0.945630 0.567930 -0.570537
C89   C     C_2   0.173902 0.715001 0.649311 0.488811
H1    H     H_    0.181940 0.695051 0.706426 0.117833
O17   O     O_2   0.171187 0.765450 0.647606 -0.494299
C90   C     C_2   0.792759 0.321931 0.350837 0.469407
H2    H     H_    0.779316 0.353554 0.309745 0.123881
O18   O     O_2   0.788027 0.273512 0.331062 -0.514467
C91   C     C_2   0.823478 0.285355 0.645271 0.486511
H3    H     H_    0.816023 0.304414 0.703268 0.119098
O19   O     O_2   0.825303 0.234909 0.641502 -0.500779
C92   C     C_2   0.202892 0.685504 0.352656 0.469452
H4    H     H_    0.216153 0.655288 0.309190 0.125316
O20   O     O_2   0.206816 0.734492 0.335611 -0.518917
C93   C     C_2   0.823823 0.714833 0.354781 0.487585
H5    H     H_    0.816448 0.695809 0.296754 0.118756
O21   O     O_2   0.825670 0.765276 0.358603 -0.499542
C94   C     C_2   0.206752 0.318984 0.645145 0.463131
H6    H     H_    0.215358 0.347696 0.693401 0.124250
O22   O     O_2   0.214125 0.269783 0.657243 -0.529926
C95   C     C_2   0.198900 0.312244 0.342516 0.485675
H7    H     H_    0.173068 0.297061 0.296491 0.102840
O23   O     O_2   0.244442 0.314148 0.328125 -0.443095
C96   C     C_2   0.792630 0.678192 0.649146 0.470164
H8    H     H_    0.779159 0.646569 0.690251 0.123349
O24   O     O_2   0.787837 0.726612 0.668891 -0.513416
C97   C     C_2   0.709919 0.173580 0.649756 0.469478
H9    H     H_    0.723614 0.141050 0.689108 0.121669
O25   O     O_2   0.715082 0.221556 0.671445 -0.508540
C98   C     C_2   0.320175 0.784462 0.361729 0.484440
H10   H     H_    0.313821 0.801868 0.302337 0.119227
O26   O     O_2   0.320259 0.734162 0.369050 -0.505499
C99   C     C_2   0.286061 0.833475 0.651305 0.467957
H11   H     H_    0.272456 0.867311 0.688404 0.120377
O27   O     O_2   0.279734 0.786212 0.675379 -0.503487
C100  C     C_2   0.677437 0.215373 0.357334 0.488191
H12   H     H_    0.684318 0.197015 0.298679 0.118289
O28   O     O_2   0.676372 0.265780 0.362657 -0.500770
C101  C     C_2   0.278350 0.157989 0.355189 0.415284
H13   H     H_    0.262343 0.121169 0.327804 0.114077
O29   O     O_2   0.269283 0.202690 0.324267 -0.482406
C102  C     C_2   0.677285 0.784635 0.642458 0.487402
H14   H     H_    0.684054 0.802933 0.701166 0.118791
O30   O     O_2   0.676228 0.734233 0.637041 -0.501682
C103  C     C_2   0.710151 0.826604 0.350083 0.469501
H15   H     H_    0.723767 0.859163 0.310679 0.121746
O31   O     O_2   0.715482 0.778637 0.328435 -0.508819
C104  C     C_2   0.329717 0.224126 0.631707 0.488548
H16   H     H_    0.327651 0.210198 0.693714 0.117898
O32   O     O_2   0.329179 0.273901 0.618868 -0.500959
I1    I     I_    0.119780 0.599386 0.694430 -0.217001
I2    I     I_    0.849210 0.441822 0.334976 -0.322223
I3    I     I_    0.880922 0.398200 0.694112 -0.218644
I4    I     I_    0.150879 0.563349 0.334070 -0.309924
I5    I     I_    0.881205 0.601944 0.305911 -0.217582
I6    I     I_    0.149593 0.438636 0.667895 -0.318079
I7    I     I_    0.120675 0.407019 0.303728 -0.199880
I8    I     I_    0.849041 0.558272 0.665016 -0.322531
I9    I     I_    0.651613 0.054685 0.663056 -0.327175
I10   I     I_    0.384885 0.890571 0.306850 -0.213171
I11   I     I_    0.348566 0.949669 0.662312 -0.328814
I12   I     I_    0.616785 0.105302 0.305947 -0.212831
I13   I     I_    0.347159 0.047351 0.341286 -0.328553
I14   I     I_    0.617075 0.895057 0.693942 -0.214211
I15   I     I_    0.651828 0.945556 0.337002 -0.327859
I16   I     I_    0.384178 0.110992 0.692220 -0.214001
I17   I     I_    0.962464 0.619729 0.895966 -0.214906
I18   I     I_    0.962021 0.380315 0.104398 -0.220774
I19   I     I_    0.036229 0.380181 0.896486 -0.220273
I20   I     I_    0.036701 0.619583 0.103395 -0.215794
I21   I     I_    0.537614 0.119298 0.896715 -0.213905
I22   I     I_    0.538654 0.881121 0.103150 -0.213400
I23   I     I_    0.461291 0.880749 0.896064 -0.212202
I24   I     I_    0.460245 0.118901 0.104190 -0.203940
C105  C     C_2   0.975235 0.600753 0.705063 0.514888
H17   H     H_    0.941368 0.623226 0.723020 0.082212
O33   O     O_2   0.003369 0.622102 0.655699 -0.497359
C106  C     C_2   0.975732 0.399163 0.295160 0.510252
H18   H     H_    0.941680 0.376695 0.278182 0.082446
O34   O     O_2   0.004549 0.377717 0.343370 -0.503599
C107  C     C_2   0.024321 0.398975 0.705337 0.511858
H19   H     H_    0.057311 0.375663 0.724874 0.081374
O35   O     O_2   0.996966 0.378293 0.654379 -0.497950
C108  C     C_2   0.024643 0.600894 0.294573 0.513062
H20   H     H_    0.057770 0.624016 0.275061 0.082366
O36   O     O_2   0.997280 0.621728 0.345468 -0.496385
C109  C     C_2   0.526720 0.100264 0.705582 0.515175
H21   H     H_    0.560577 0.122242 0.724787 0.082401
O37   O     O_2   0.499870 0.121818 0.654698 -0.494128
C110  C     C_2   0.527106 0.899854 0.294308 0.516106
H22   H     H_    0.561038 0.877976 0.275110 0.082123
O38   O     O_2   0.500228 0.878194 0.345138 -0.492423
C111  C     C_2   0.473345 0.899822 0.705152 0.517043
H23   H     H_    0.438860 0.878358 0.722850 0.081556
O39   O     O_2   0.501061 0.877815 0.655758 -0.493909
C112  C     C_2   0.472621 0.099871 0.294940 0.519083
H24   H     H_    0.437590 0.120625 0.278204 0.084843
O40   O     O_2   0.500563 0.122413 0.343446 -0.492943

loop_
_geom_bond_atom_site_label_1
_geom_bond_atom_site_label_2
_ccdc_geom_bond_type
C3    O8    A    
Cu3   O16   S    
C108  O36   D    
C111  H23   S    
C40   C71   A    
C41   I1    S    
Cu1   O6    S    
C103  O31   D    
Cu3   O9    S    
C69   C77   S    
C76   C79   T    
C94   H6    S    
C42   C58   A    
C71   C79   S    
C53   I13   S    
C7    C62   S    
C38   C72   A    
C5    O9    A    
C90   H2    S    
C2    O2    A    
C97   O25   D    
C13   C109  S    
Cu1   O3    S    
Cu3   O14   S    
C40   C104  S    
C111  O39   D    
C98   O26   D    
C100  H12   S    
C16   C112  S    
C52   C61   A    
C101  O29   D    
C15   N3    A    
C112  O40   D    
Cu4   O13   S    
C105  O33   D    
C70   C78   S    
C10   N2    A    
C33   C49   A    
C99   H11   S    
C66   C74   S    
C4    O7    A    
Cu4   N4    S    
C65   C73   S    
C7    O16   A    
C12   C84   A    
C106  O34   D    
C38   C102  S    
C109  O37   D    
Cu1   O1    S    
C31   C95   S    
C43   C58   A    
C47   C60   A    
C29   C67   A    
Cu4   O12   S    
C39   C55   A    
C20   C24   S    
C35   C70   A    
C33   C97   S    
C110  H22   S    
C40   C56   A    
C74   C77   T    
C4    O6    A    
C4    C57   S    
C10   C106  S    
C73   C78   T    
Cu2   O4    S    
C75   C80   T    
C34   C70   A    
C17   C81   A    
C36   C52   A    
C33   C69   A    
C8    C61   S    
C37   C53   A    
C3    O5    A    
C108  H20   S    
C31   C47   A    
C21   C22   T    
C104  O32   D    
C32   C48   A    
C12   N2    A    
C51   C62   A    
C19   C85   A    
C1    O4    A    
C14   N4    A    
Cu2   N2    S    
C100  O28   D    
C91   O19   D    
C31   C68   A    
C30   C94   S    
C16   N4    A    
C49   C61   A    
C107  H19   S    
C26   C66   A    
Cu3   O11   S    
C25   C65   A    
C98   H10   S    
C14   C86   A    
C1    C60   S    
C1    O1    A    
Cu3   Cu4   S    
C112  H24   S    
C96   O24   D    
C11   C83   A    
C14   C110  S    
C10   C82   A    
C17   C21   S    
C7    O13   A    
C5    C64   S    
C20   C86   A    
C106  H18   S    
C17   C83   A    
C6    C63   S    
C19   C23   S    
C107  O35   D    
Cu2   O5    S    
C25   C89   S    
C47   I7    S    
C84   I20   S    
C18   C84   A    
C38   C54   A    
C44   C57   A    
C6    O11   A    
C55   C64   A    
C82   I18   S    
C35   C99   S    
C6    O10   A    
C56   C63   A    
C50   I10   S    
C68   C76   S    
C93   O21   D    
C55   I15   S    
C39   C72   A    
C90   O18   D    
C32   C67   A    
Cu4   O10   S    
C2    C59   S    
C102  O30   D    
C2    O3    A    
C37   C71   A    
Cu1   O8    S    
C35   C51   A    
C93   H5    S    
C50   C62   A    
C8    O15   A    
C67   C75   S    
C92   O20   D    
C95   H7    S    
C9    N1    A    
C36   C69   A    
C26   C42   A    
C48   C59   A    
C86   I22   S    
C89   H1    S    
C28   C92   S    
C36   C100  S    
C99   O27   D    
C45   C59   A    
C87   I23   S    
C85   I21   S    
C46   I6    S    
C46   C60   A    
C18   C22   S    
C12   C108  S    
C30   C46   A    
C37   C101  S    
C95   O23   D    
C94   O22   D    
C34   C50   A    
C15   C111  S    
C91   H3    S    
C42   I2    S    
Cu4   O15   S    
C96   H8    S    
C27   C91   S    
C56   I16   S    
C97   H9    S    
C39   C103  S    
C9    C105  S    
C83   I19   S    
C54   I14   S    
C51   I11   S    
C28   C65   A    
C92   H4    S    
C19   C87   A    
C81   I17   S    
C8    O14   A    
C72   C80   S    
C27   C66   A    
C30   C68   A    
C101  H13   S    
C49   I9    S    
C53   C63   A    
C11   N1    A    
C105  H17   S    
C104  H16   S    
C54   C64   A    
C20   C88   A    
C34   C98   S    
C52   I12   S    
C18   C82   A    
C28   C44   A    
C11   C107  S    
Cu1   N1    S    
C109  H21   S    
C26   C90   S    
Cu2   O7    S    
C88   I24   S    
C23   C24   T    
C41   C57   A    
C3    C58   S    
C27   C43   A    
C102  H14   S    
C13   N3    A    
Cu3   N3    S    
C110  O38   D    
C25   C41   A    
C15   C87   A    
C13   C85   A    
C103  H15   S    
C16   C88   A    
C32   C96   S    
C44   I4    S    
Cu1   Cu2   S    
C29   C93   S    
C45   I5    S    
C48   I8    S    
Cu2   O2    S    
C29   C45   A    
C9    C81   A    
C89   O17   D    
C5    O12   A    
C43   I3    S    
