data_mof_unit_8747.cif
_audit_creation_date              2012-12-10T18:19:57-0500
_audit_creation_method            fapswitch 2.2
_symmetry_space_group_name_H-M    P1
_symmetry_Int_Tables_number       1
_space_group_crystal_system       triclinic
_cell_length_a                    10.678597
_cell_length_b                    10.645577
_cell_length_c                    9.505821
_cell_angle_alpha                 89.460038
_cell_angle_beta                  90.14731
_cell_angle_gamma                 91.951827
_cell_volume                      1079.9424291

loop_
_atom_site_label
_atom_site_type_symbol
_atom_type_description
_atom_site_fract_x
_atom_site_fract_y
_atom_site_fract_z
_atom_type_partial_charge
C1    C     C_R   0.498579 0.259841 0.500231 0.830456
C2    C     C_R   0.501421 0.740159 0.499769 0.830453
C3    C     C_3   0.478341 0.956339 0.632312 -0.156121
C4    C     C_3   0.521660 0.043661 0.367687 -0.156113
C5    C     C_3   0.533819 0.609001 0.047837 0.042208
C6    C     C_3   0.466181 0.390999 0.952163 0.042208
C7    C     C_3   0.423024 0.581983 0.947060 -0.140693
C8    C     C_3   0.576976 0.418017 0.052939 -0.140693
C9    C     C_3   0.608661 0.527301 0.951442 0.201940
C10   C     C_3   0.391339 0.472699 0.048558 0.201941
C11   C     C_R   0.259981 0.497988 0.500039 0.833864
C12   C     C_R   0.740019 0.502012 0.499961 0.833869
C13   C     C_3   0.039934 0.493989 0.630991 0.183424
C14   C     C_3   0.960066 0.506011 0.369009 0.183423
C15   C     C_3   0.951786 0.393973 0.563184 -0.326123
C16   C     C_3   0.048214 0.606028 0.436816 -0.326125
C17   C     C_3   0.876459 0.502594 0.499791 -0.100007
C18   C     C_3   0.123541 0.497406 0.500209 -0.100006
C19   C     C_3   0.964219 0.601265 0.569908 0.000512
C20   C     C_3   0.035781 0.398735 0.430092 0.000513
C21   C     C_3   0.587365 0.044363 0.584706 0.204678
C22   C     C_3   0.412637 0.955637 0.415293 0.204678
C23   C     C_3   0.613804 0.964018 0.455199 -0.258616
C24   C     C_3   0.386197 0.035982 0.544800 -0.258621
C25   C     C_3   0.502447 0.876925 0.500347 -0.021337
C26   C     C_3   0.497555 0.123075 0.499652 -0.021334
Cu1   Cu    Cu3+1 0.500030 0.499990 0.643150 1.006946
Cu2   Cu    Cu3+1 0.499970 0.500010 0.356850 1.006946
H1    H     H_    0.912149 0.308582 0.616740 0.162419
H2    H     H_    0.087850 0.691418 0.383260 0.162415
H3    H     H_    0.707326 0.935177 0.420335 0.190251
H4    H     H_    0.292675 0.064823 0.579664 0.190252
H5    H     H_    0.463432 0.919670 0.740949 0.193226
H6    H     H_    0.536570 0.080330 0.259050 0.193226
H7    H     H_    0.357677 0.649237 0.899152 0.169075
H8    H     H_    0.642323 0.350763 0.100848 0.169074
N1    N     N_3   0.500090 0.499970 0.858290 -0.199326
N2    N     N_3   0.499910 0.500030 0.141710 -0.199326
O1    O     O_R   0.500060 0.316850 0.620870 -0.553812
O2    O     O_R   0.499940 0.683150 0.379130 -0.553813
O3    O     O_R   0.500000 0.316860 0.379090 -0.588289
O4    O     O_R   0.500000 0.683140 0.620910 -0.588288
O5    O     O_R   0.316880 0.499960 0.620870 -0.552954
O6    O     O_R   0.683120 0.500040 0.379130 -0.552955
O7    O     O_R   0.316830 0.499970 0.379090 -0.574125
O8    O     O_R   0.683170 0.500030 0.620910 -0.574125
N3    N     N_3   0.085139 0.487081 0.775405 -0.544960
H9    H     H_    0.007071 0.487581 0.841332 0.224165
H10   H     H_    0.123733 0.398975 0.788390 0.261692
N4    N     N_3   0.914861 0.512919 0.224596 -0.544960
H11   H     H_    0.992928 0.512419 0.158668 0.224165
H12   H     H_    0.876267 0.601026 0.211610 0.261692
C27   C     C_2   0.925105 0.715806 0.645848 0.868349
O9    O     O_2   0.953701 0.731059 0.769209 -0.585094
O10   O     O_R   0.857820 0.805975 0.573580 -0.791736
H13   H     H_    0.840070 0.880851 0.634316 0.321967
C28   C     C_2   0.074894 0.284194 0.354154 0.868349
O11   O     O_2   0.046300 0.268941 0.230792 -0.585094
O12   O     O_R   0.142175 0.194023 0.426424 -0.791736
H14   H     H_    0.159923 0.119146 0.365690 0.321966
N5    N     N_3   0.681769 0.098324 0.679313 -0.539629
H15   H     H_    0.712949 0.026041 0.744147 0.236767
H16   H     H_    0.757744 0.129647 0.617850 0.194600
N6    N     N_3   0.318233 0.901676 0.320686 -0.539617
H17   H     H_    0.287037 0.973963 0.255869 0.236760
H18   H     H_    0.242268 0.870331 0.382151 0.194597
C29   C     C_2   0.576870 0.735795 0.099105 0.896322
O13   O     O_2   0.514314 0.827369 0.073818 -0.588193
O14   O     O_R   0.689871 0.749211 0.172377 -0.771002
H19   H     H_    0.712130 0.840074 0.194835 0.329718
C30   C     C_2   0.423130 0.264205 0.900894 0.896324
O15   O     O_2   0.485686 0.172631 0.926181 -0.588196
O16   O     O_R   0.310129 0.250789 0.827623 -0.771001
H20   H     H_    0.287870 0.159926 0.805164 0.329719
N7    N     N_3   0.732321 0.558882 0.894688 -0.519042
H21   H     H_    0.786837 0.597285 0.975819 0.236621
H22   H     H_    0.773083 0.474334 0.868757 0.221854
N8    N     N_3   0.267679 0.441117 0.105312 -0.519040
H23   H     H_    0.226917 0.525666 0.131243 0.221853
H24   H     H_    0.213163 0.402715 0.024181 0.236622

loop_
_geom_bond_atom_site_label_1
_geom_bond_atom_site_label_2
_ccdc_geom_bond_type
C7    C10   S    
C21   C26   S    
C11   C18   S    
O16   H20   S    
C5    C29   S    
C10   N8    S    
N3    H10   S    
C27   O9    D    
C13   C18   S    
C22   C24   S    
Cu1   N1    S    
O14   H19   S    
N8    H24   S    
C28   O12   S    
Cu2   O2    S    
C16   H2    S    
Cu2   O3    S    
C8    H8    S    
N5    H16   S    
Cu1   O1    S    
C8    C9    S    
C22   C25   S    
C12   C17   S    
N4    H12   S    
C11   O5    A    
C21   N5    S    
C19   C27   S    
O12   H14   S    
C5    N2    S    
C14   C17   S    
C3    C24   S    
C6    C30   S    
C8    N2    S    
C15   H1    S    
C27   O10   S    
C15   C20   S    
C4    H6    S    
Cu2   O7    S    
C13   C19   S    
C29   O13   D    
C14   C20   S    
C3    C25   S    
C12   O8    A    
C5    C7    S    
C4    C23   S    
N8    H23   S    
C6    C8    S    
Cu2   O6    S    
C29   O14   S    
N6    H18   S    
N7    H21   S    
C24   H4    S    
C5    C9    S    
Cu1   O5    S    
C4    C22   S    
N3    H9    S    
Cu2   N2    S    
O10   H13   S    
C9    N1    S    
N4    H11   S    
C7    N1    S    
C6    N1    S    
N7    H22   S    
Cu1   O8    S    
C1    O3    A    
C13   C15   S    
C1    C26   S    
C14   C16   S    
C11   O7    A    
C13   N3    S    
C15   C17   S    
C7    H7    S    
C24   C26   S    
C6    C10   S    
C4    C26   S    
C10   N2    S    
N6    H17   S    
C21   C23   S    
C30   O15   D    
C12   O6    A    
Cu1   O4    S    
C28   O11   D    
C14   N4    S    
C2    O4    A    
C16   C19   S    
C17   C19   S    
C2    C25   S    
C18   C20   S    
C23   C25   S    
N5    H15   S    
C3    C21   S    
C1    O1    A    
C22   N6    S    
C2    O2    A    
C16   C18   S    
C30   O16   S    
Cu1   Cu2   S    
C3    H5    S    
C9    N7    S    
C20   C28   S    
C23   H3    S    
