data_mof_unit_12468.cif
_audit_creation_date              2012-12-10T18:06:38-0500
_audit_creation_method            fapswitch 2.2
_symmetry_space_group_name_H-M    P1
_symmetry_Int_Tables_number       1
_space_group_crystal_system       triclinic
_cell_length_a                    12.571597
_cell_length_b                    13.151917
_cell_length_c                    15.233843
_cell_angle_alpha                 83.502515
_cell_angle_beta                  99.111373
_cell_angle_gamma                 96.73964
_cell_volume                      2458.29119467

loop_
_atom_site_label
_atom_site_type_symbol
_atom_type_description
_atom_site_fract_x
_atom_site_fract_y
_atom_site_fract_z
_atom_type_partial_charge
C1    C     C_R   0.444427 0.308155 0.512531 0.864138
C2    C     C_R   0.692593 0.554086 0.932852 0.088704
C3    C     C_R   0.585267 0.571317 0.895650 0.097096
C4    C     C_R   0.436478 0.516839 0.335002 0.880758
C5    C     C_R   0.758436 0.511522 0.883660 -0.226171
C6    C     C_R   0.718125 0.481126 0.798454 -0.028399
C7    C     C_R   0.546253 0.543110 0.809805 -0.252064
C8    C     C_R   0.727436 0.925249 0.570016 -0.186566
C9    C     C_R   0.595643 0.798310 0.501284 -0.044742
C10   C     C_R   0.299697 0.165708 0.493860 -0.177235
C11   C     C_R   0.267225 0.062457 0.484992 -0.134992
C12   C     C_R   0.469771 0.601258 0.096619 0.067200
C13   C     C_R   0.344324 0.992584 0.496850 -0.193458
C14   C     C_R   0.455607 0.024926 0.522121 0.089856
C15   C     C_R   0.485335 0.126218 0.544738 0.091319
C16   C     C_R   0.557202 0.691418 0.491866 0.847500
C17   C     C_R   0.538496 0.960342 0.525383 0.087652
C18   C     C_R   0.645975 0.990995 0.564712 0.165111
C19   C     C_R   0.669957 0.086015 0.599179 -0.192158
C20   C     C_R   0.590586 0.153065 0.589245 -0.129954
C21   C     C_R   0.517603 0.866751 0.488650 -0.245606
C22   C     C_R   0.701860 0.828064 0.539659 -0.193808
C23   C     C_R   0.364542 0.627033 0.060132 0.180035
C24   C     C_R   0.409127 0.198501 0.520874 -0.110242
C25   C     C_R   0.140506 0.649372 0.619440 -0.298815
C26   C     C_R   0.761010 0.384065 0.391139 0.067665
C27   C     C_R   0.852331 0.385825 0.350020 -0.224917
C28   C     C_R   0.565736 0.488524 0.665185 0.863409
C29   C     C_R   0.946238 0.447173 0.379143 -0.008703
C30   C     C_R   0.950908 0.496389 0.458241 -0.090578
C31   C     C_R   0.852474 0.504423 0.489875 0.229618
C32   C     C_R   0.048139 0.537819 0.507261 -0.022129
C33   C     C_R   0.044590 0.605248 0.572915 0.204775
C34   C     C_R   0.551262 0.607373 0.041130 -0.035301
C35   C     C_R   0.945480 0.624182 0.593764 -0.253381
C36   C     C_R   0.851004 0.571146 0.555189 -0.164622
C37   C     C_R   0.148831 0.507514 0.499176 -0.075066
C38   C     C_R   0.238341 0.622457 0.602961 0.013794
C39   C     C_R   0.406806 0.549422 0.239747 -0.068494
C40   C     C_R   0.610835 0.499968 0.759772 -0.142998
C41   C     C_R   0.284146 0.621313 0.115327 -0.183229
C42   C     C_R   0.305758 0.583986 0.205192 -0.158750
C43   C     C_R   0.486556 0.556633 0.184596 -0.253691
C44   C     C_2   0.665661 0.315757 0.358144 0.970670
C45   C     C_R   0.517007 0.607704 0.948185 0.080828
C46   C     C_2   0.029561 0.470885 0.318633 0.436613
C47   C     C_2   0.789336 0.425867 0.755725 0.918586
C48   C     C_2   0.712797 0.645528 0.161069 0.398052
C49   C     C_R   0.413725 0.639358 0.912459 -0.209101
C50   C     C_R   0.339994 0.652700 0.968392 -0.216235
C51   C     C_R   0.663825 0.606376 0.074298 -0.032689
C52   C     C_R   0.732687 0.577859 0.019639 -0.178562
H1    H     H_    0.260774 0.675046 0.939211 0.148795
H2    H     H_    0.612238 0.226002 0.617023 0.201331
H3    H     H_    0.313799 0.656689 0.637187 0.129667
H4    H     H_    0.463356 0.551779 0.781619 0.166511
H5    H     H_    0.941403 0.675135 0.644064 0.158796
H6    H     H_    0.139734 0.702744 0.668523 0.145437
H7    H     H_    0.157530 0.447314 0.459070 0.128877
H8    H     H_    0.848103 0.342880 0.292604 0.197855
H9    H     H_    0.778326 0.583264 0.578454 0.196999
H10   H     H_    0.817606 0.572462 0.045216 0.192893
H11   H     H_    0.204147 0.643452 0.088591 0.149383
H12   H     H_    0.840202 0.497365 0.913697 0.175809
H13   H     H_    0.243456 0.581272 0.247127 0.164568
H14   H     H_    0.561385 0.523994 0.210044 0.211822
H15   H     H_    0.388425 0.654799 0.841554 0.137039
H16   H     H_    0.543650 0.286667 0.258402 0.341153
H17   H     H_    0.085432 0.540043 0.323817 0.052493
H18   H     H_    0.940700 0.413852 0.732316 0.347916
H19   H     H_    0.667415 0.690286 0.194864 0.070641
H20   H     H_    0.763161 0.774906 0.550232 0.149471
H21   H     H_    0.750633 0.109512 0.631989 0.162018
H22   H     H_    0.809508 0.947430 0.600584 0.138533
H23   H     H_    0.439351 0.843138 0.452373 0.149091
H24   H     H_    0.239706 0.220285 0.477015 0.163437
H25   H     H_    0.314330 0.913587 0.487967 0.135509
H26   H     H_    0.182581 0.037119 0.465179 0.151310
N1    N     N_R   0.239390 0.551900 0.544730 -0.098301
N2    N     N_R   0.759950 0.448600 0.455730 -0.161453
O1    O     O_R   0.374950 0.371210 0.521360 -0.612701
O2    O     O_R   0.605742 0.340892 0.274753 -0.816946
O3    O     O_2   0.035386 0.414789 0.261277 -0.569074
O4    O     O_2   0.752602 0.349582 0.717669 -0.643576
O5    O     O_R   0.900219 0.457847 0.763532 -0.816025
O6    O     O_2   0.804525 0.629105 0.195419 -0.567563
O7    O     O_R   0.542050 0.338030 0.492790 -0.585186
O8    O     O_R   0.368720 0.526070 0.390200 -0.618578
O9    O     O_R   0.535820 0.492890 0.361630 -0.596105
O10   O     O_R   0.457950 0.661970 0.507210 -0.616758
O11   O     O_R   0.625050 0.628790 0.478640 -0.635622
O12   O     O_R   0.464180 0.507110 0.638370 -0.613752
O13   O     O_R   0.631280 0.473930 0.609800 -0.613104
O14   O     O_2   0.645461 0.232654 0.399902 -0.626827
Zn1   Zn    Zn3+2 0.388420 0.522150 0.519080 0.937449
Zn2   Zn    Zn3+2 0.611580 0.477850 0.480920 0.976048

loop_
_geom_bond_atom_site_label_1
_geom_bond_atom_site_label_2
_ccdc_geom_bond_type
C1    O7    A    
C16   O10   A    
C27   C29   A    
C41   C42   A    
C19   C20   A    
C26   C44   S    
C31   N2    A    
C37   N1    A    
C12   C23   A    
C34   C51   A    
C47   O5    S    
C9    C16   S    
C12   C43   A    
C3    C7    A    
C27   H8    S    
C30   C31   A    
O1    Zn1   S    
C9    C22   A    
C38   N1    A    
C28   C40   S    
C1    O1    A    
C18   C19   A    
C46   H17   S    
O11   Zn2   S    
C10   H24   S    
C48   C51   S    
C38   H3    S    
C35   C36   A    
C42   H13   S    
C8    C22   A    
C7    C40   A    
N2    Zn2   S    
O8    Zn1   S    
C13   C14   A    
C14   C17   A    
C7    H4    S    
C22   H20   S    
C39   C42   A    
C15   C20   A    
C13   H25   S    
C50   H1    S    
C6    C47   S    
C51   C52   A    
C19   H21   S    
C20   H2    S    
C23   C50   A    
C39   C43   A    
C10   C24   A    
C32   C37   A    
C3    C45   A    
O12   Zn1   S    
C8    C18   A    
C5    H12   S    
C28   O13   A    
N1    Zn1   S    
C29   C30   A    
C11   H26   S    
C25   C38   A    
C4    C39   S    
C45   C49   A    
O7    Zn2   S    
C8    H22   S    
C17   C18   A    
C26   C27   A    
C28   O12   A    
C34   C45   A    
C47   O4    D    
C37   H7    S    
C2    C52   A    
C16   O11   A    
C15   C24   A    
O13   Zn2   S    
C48   O6    D    
C2    C5    A    
C25   H6    S    
C41   H11   S    
C48   H19   S    
C12   C34   A    
C36   H9    S    
C4    O9    A    
C49   H15   S    
C14   C15   A    
O10   Zn1   S    
C4    O8    A    
C21   H23   S    
C44   O2    S    
C23   C41   A    
C29   C46   S    
C35   H5    S    
H16   O2    S    
C32   C33   A    
O9    Zn2   S    
C2    C3    A    
C52   H10   S    
C30   C32   A    
C11   C13   A    
C9    C21   A    
C5    C6    A    
C43   H14   S    
C33   C35   A    
C6    C40   A    
C26   N2    A    
C44   O14   D    
C10   C11   A    
C46   O3    D    
C1    C24   S    
C49   C50   A    
C31   C36   A    
H18   O5    S    
C25   C33   A    
C17   C21   A    
