data_mof_unit_62500.cif
_audit_creation_date              2012-12-10T18:05:24-0500
_audit_creation_method            fapswitch 2.2
_symmetry_space_group_name_H-M    P1
_symmetry_Int_Tables_number       1
_space_group_crystal_system       triclinic
_cell_length_a                    30.708682
_cell_length_b                    30.755846
_cell_length_c                    23.513618
_cell_angle_alpha                 89.906123
_cell_angle_beta                  130.689204
_cell_angle_gamma                 89.99485
_cell_volume                      16839.2895102

loop_
_atom_site_label
_atom_site_type_symbol
_atom_type_description
_atom_site_fract_x
_atom_site_fract_y
_atom_site_fract_z
_atom_type_partial_charge
C1    C     C_R   0.809516 0.809326 0.500178 0.792166
C2    C     C_R   0.190952 0.809370 0.500643 0.792172
C3    C     C_R   0.309073 0.309375 0.499403 0.792287
C4    C     C_R   0.690506 0.309326 0.499861 0.795559
C5    C     C_R   0.443346 0.749260 0.885478 0.137200
C6    C     C_R   0.557623 0.749849 0.114548 0.138963
C7    C     C_R   0.942267 0.249413 0.885447 0.139355
C8    C     C_R   0.056321 0.249084 0.114525 0.138058
C9    C     C_1   0.483594 0.749418 0.966202 -0.049166
C10   C     C_1   0.517318 0.749623 0.033825 -0.048758
C11   C     C_1   0.982411 0.249261 0.966172 -0.051881
C12   C     C_1   0.016058 0.249152 0.033798 -0.051133
C13   C     C_R   0.864324 0.836188 0.464199 0.106622
C14   C     C_R   0.097997 0.843114 0.446686 0.070542
C15   C     C_R   0.402067 0.342996 0.553490 0.070290
C16   C     C_R   0.635850 0.336145 0.536055 0.106760
C17   C     C_R   0.844801 0.842138 0.503216 -0.048829
C18   C     C_R   0.157905 0.843095 0.500285 -0.048131
C19   C     C_R   0.342155 0.343111 0.499848 -0.047985
C20   C     C_R   0.655281 0.342161 0.496922 -0.048160
C21   C     C_R   0.862881 0.879073 0.548764 -0.181215
C22   C     C_R   0.185799 0.879018 0.548515 -0.174776
C23   C     C_R   0.314273 0.379183 0.451679 -0.175443
C24   C     C_R   0.637217 0.379220 0.451401 -0.183429
C25   C     C_R   0.895400 0.911145 0.548978 -0.181143
C26   C     C_R   0.153721 0.911234 0.548910 -0.185501
C27   C     C_R   0.346358 0.411416 0.451347 -0.186074
C28   C     C_R   0.604769 0.411318 0.451273 -0.188862
C29   C     C_R   0.908313 0.907084 0.501795 -0.053983
C30   C     C_R   0.093493 0.908606 0.498757 -0.062058
C31   C     C_R   0.406588 0.408658 0.501507 -0.061911
C32   C     C_R   0.591905 0.407155 0.498508 -0.054650
C33   C     C_R   0.895183 0.868256 0.463082 0.071798
C34   C     C_R   0.066402 0.876046 0.444445 0.118840
C35   C     C_R   0.433676 0.375941 0.555791 0.118050
C36   C     C_R   0.605036 0.368234 0.537233 0.074218
C37   C     C_3   0.867103 0.859765 0.383163 -0.449229
C38   C     C_3   0.018629 0.846246 0.420346 -0.491416
C39   C     C_3   0.481461 0.346086 0.579893 -0.491152
C40   C     C_3   0.633229 0.359581 0.617203 -0.451928
C41   C     C_3   0.833147 0.823944 0.384206 -0.230310
C42   C     C_3   0.053666 0.809520 0.423577 -0.221396
C43   C     C_3   0.446415 0.309354 0.576602 -0.221208
C44   C     C_3   0.667136 0.323740 0.616097 -0.228412
C45   C     C_R   0.677811 0.750076 0.355483 0.765521
C46   C     C_R   0.322384 0.749825 0.644521 0.787856
C47   C     C_R   0.177567 0.249851 0.355478 0.788118
C48   C     C_R   0.822242 0.249938 0.644515 0.781589
C49   C     C_R   0.049085 0.720760 0.154237 0.016797
C50   C     C_R   0.952788 0.722161 0.845833 0.014882
C51   C     C_R   0.550215 0.219719 0.154259 0.012261
C52   C     C_R   0.451249 0.220495 0.845771 0.015302
C53   C     C_R   0.089249 0.721142 0.233123 -0.154095
C54   C     C_R   0.912544 0.722572 0.766949 -0.101467
C55   C     C_R   0.590303 0.220189 0.233142 -0.143813
C56   C     C_R   0.410921 0.220913 0.766889 -0.153919
C57   C     C_R   0.136020 0.750020 0.272504 -0.085807
C58   C     C_R   0.864443 0.750258 0.727489 -0.049788
C59   C     C_R   0.636157 0.249894 0.272508 -0.084501
C60   C     C_R   0.364184 0.249927 0.727491 -0.085117
C61   C     C_R   0.142421 0.778787 0.232010 -0.179677
C62   C     C_R   0.856873 0.777879 0.767905 -0.172236
C63   C     C_R   0.641745 0.279384 0.232004 -0.186186
C64   C     C_R   0.357985 0.278800 0.767964 -0.182418
C65   C     C_R   0.102861 0.778769 0.153768 -0.139774
C66   C     C_R   0.896510 0.777833 0.846139 -0.134368
C67   C     C_R   0.602224 0.279308 0.153758 -0.142033
C68   C     C_R   0.397715 0.278754 0.846202 -0.141230
C69   C     C_R   0.056274 0.750056 0.114564 0.054138
C70   C     C_R   0.944360 0.750250 0.885420 0.057547
C71   C     C_R   0.556517 0.249794 0.114571 0.055863
C72   C     C_R   0.444269 0.249903 0.885421 0.054800
C73   C     C_1   0.016821 0.750935 0.033759 -0.078303
C74   C     C_1   0.983800 0.750991 0.966221 -0.077502
C75   C     C_1   0.516997 0.250696 0.033765 -0.079172
C76   C     C_1   0.483873 0.250727 0.966224 -0.079329
C77   C     C_R   0.679392 0.631290 0.557586 0.017225
C78   C     C_R   0.397264 0.650919 0.556874 0.131728
C79   C     C_R   0.102756 0.150871 0.442759 0.130420
C80   C     C_R   0.897152 0.150687 0.557142 0.129692
C81   C     C_R   0.655691 0.658043 0.496230 -0.162097
C82   C     C_R   0.339882 0.657702 0.495673 -0.166200
C83   C     C_R   0.160043 0.157682 0.504154 -0.166422
C84   C     C_R   0.839900 0.157714 0.495709 -0.166300
C85   C     C_R   0.596706 0.652462 0.432360 -0.030048
C86   C     C_R   0.313563 0.630367 0.432208 -0.039462
C87   C     C_R   0.186285 0.130329 0.567758 -0.039487
C88   C     C_R   0.813708 0.130648 0.431975 -0.041928
C89   C     C_R   0.690588 0.690819 0.499662 0.784504
C90   C     C_R   0.308809 0.690804 0.499203 0.781135
C91   C     C_R   0.191139 0.190801 0.500694 0.781155
C92   C     C_R   0.808826 0.190806 0.499240 0.780554
C93   C     C_R   0.565012 0.619806 0.434089 -0.172999
C94   C     C_R   0.347133 0.597737 0.434185 -0.168972
C95   C     C_R   0.152734 0.097685 0.565753 -0.173379
C96   C     C_R   0.847272 0.098024 0.433930 -0.166764
C97   C     C_R   0.591175 0.593479 0.498369 -0.129222
C98   C     C_R   0.405581 0.591894 0.498407 -0.142334
C99   C     C_R   0.094366 0.091842 0.501377 -0.143497
C100  C     C_R   0.905589 0.091922 0.498391 -0.145591
C101  C     C_R   0.648541 0.600848 0.558950 0.097393
C102  C     C_R   0.428432 0.619183 0.558757 0.120860
C103  C     C_R   0.071598 0.119120 0.440865 0.118292
C104  C     C_R   0.928313 0.118962 0.558987 0.116244
C105  C     C_3   0.698051 0.585873 0.636254 -0.493567
C106  C     C_3   0.481874 0.630348 0.636032 -0.449351
C107  C     C_3   0.018241 0.130332 0.363434 -0.445467
C108  C     C_3   0.981585 0.129807 0.636587 -0.443215
C109  C     C_3   0.733422 0.620859 0.634819 -0.186876
C110  C     C_3   0.446045 0.666766 0.633799 -0.245646
C111  C     C_3   0.054051 0.166760 0.365674 -0.247337
C112  C     C_3   0.945763 0.166218 0.634383 -0.248142
C113  C     C_R   0.440135 0.559271 0.499790 0.814161
C114  C     C_R   0.559263 0.559665 0.499824 0.811953
C115  C     C_R   0.940139 0.059281 0.499787 0.814682
C116  C     C_R   0.059831 0.059262 0.500120 0.812576
C117  C     C_R   0.940390 0.940730 0.500179 0.798599
C118  C     C_R   0.059551 0.940614 0.499914 0.797357
C119  C     C_R   0.440490 0.440622 0.500183 0.797854
C120  C     C_R   0.559676 0.440749 0.499921 0.796521
C121  C     C_R   0.822389 0.750083 0.644501 0.805244
C122  C     C_R   0.177730 0.750043 0.355498 0.772938
C123  C     C_R   0.322320 0.250005 0.644502 0.772979
C124  C     C_R   0.677769 0.250008 0.355499 0.773033
C125  C     C_R   0.451524 0.777021 0.845954 -0.151161
C126  C     C_R   0.547877 0.776292 0.153670 -0.132800
C127  C     C_R   0.951323 0.276628 0.846264 -0.147731
C128  C     C_R   0.048144 0.276968 0.153835 -0.151300
C129  C     C_R   0.412239 0.777173 0.767543 -0.204906
C130  C     C_R   0.586987 0.776456 0.232108 -0.154691
C131  C     C_R   0.912294 0.276849 0.767835 -0.186749
C132  C     C_R   0.087523 0.277211 0.232260 -0.206050
C133  C     C_R   0.364147 0.749517 0.727578 -0.048991
C134  C     C_R   0.636396 0.750088 0.272440 -0.043391
C135  C     C_R   0.863641 0.249780 0.727557 -0.051364
C136  C     C_R   0.135695 0.249527 0.272423 -0.049228
C137  C     C_R   0.356459 0.721563 0.767852 -0.155204
C138  C     C_R   0.645825 0.723662 0.232548 -0.199368
C139  C     C_R   0.854966 0.222502 0.767502 -0.183449
C140  C     C_R   0.143369 0.221458 0.232351 -0.154858
C141  C     C_R   0.395818 0.721483 0.846285 -0.142293
C142  C     C_R   0.606680 0.723583 0.154143 -0.150289
C143  C     C_R   0.894039 0.222361 0.845912 -0.147555
C144  C     C_R   0.103931 0.221287 0.153935 -0.144037
Cu1   Cu    Cu3+1 0.780910 0.719080 0.500000 0.968429
Cu2   Cu    Cu3+1 0.219090 0.719080 0.500000 0.982502
Cu3   Cu    Cu3+1 0.280910 0.219080 0.500000 0.983594
Cu4   Cu    Cu3+1 0.719090 0.219080 0.500000 0.982785
Cu5   Cu    Cu3+1 0.719070 0.780890 0.500010 0.976434
Cu6   Cu    Cu3+1 0.280930 0.780890 0.499990 0.957721
Cu7   Cu    Cu3+1 0.219070 0.280890 0.500010 0.953326
Cu8   Cu    Cu3+1 0.780930 0.280890 0.499990 0.962770
Cu9   Cu    Cu3+1 0.462710 0.500000 0.425470 0.984911
Cu10  Cu    Cu3+1 0.537290 0.500000 0.574530 0.959752
Cu11  Cu    Cu3+1 0.962710 0.000000 0.425470 0.972033
Cu12  Cu    Cu3+1 0.037290 1.000000 0.574530 0.978458
H1    H     H_    0.844822 0.790745 0.379427 0.127899
H2    H     H_    0.033143 0.795428 0.367632 0.122957
H3    H     H_    0.466922 0.295099 0.632529 0.123012
H4    H     H_    0.655501 0.290540 0.620975 0.128504
H5    H     H_    0.084063 0.698784 0.263967 0.195186
H6    H     H_    0.918654 0.701117 0.736166 0.190683
H7    H     H_    0.585805 0.197230 0.264001 0.198234
H8    H     H_    0.415949 0.198472 0.736060 0.195344
H9    H     H_    0.177984 0.801402 0.260736 0.163274
H10   H     H_    0.820239 0.799525 0.739125 0.155929
H11   H     H_    0.676596 0.302644 0.260728 0.159928
H12   H     H_    0.322455 0.301525 0.739223 0.162040
H13   H     H_    0.520102 0.615023 0.385601 0.203103
H14   H     H_    0.327717 0.576900 0.385931 0.202694
H15   H     H_    0.172100 0.076852 0.614138 0.202579
H16   H     H_    0.827945 0.077393 0.385472 0.205979
H17   H     H_    0.691186 0.592158 0.676488 0.197233
H18   H     H_    0.495556 0.603718 0.676751 0.226727
H19   H     H_    0.004759 0.103729 0.322915 0.227686
H20   H     H_    0.994902 0.103002 0.676884 0.227542
H21   H     H_    0.711144 0.552087 0.636730 0.207449
H22   H     H_    0.516046 0.642862 0.636467 0.175637
H23   H     H_    0.983923 0.142837 0.362714 0.177335
H24   H     H_    0.016036 0.142334 0.637599 0.177941
H25   H     H_    0.320003 0.699804 0.738846 0.166146
H26   H     H_    0.683467 0.703060 0.261839 0.156794
H27   H     H_    0.817970 0.201285 0.738253 0.161521
H28   H     H_    0.179878 0.199665 0.261504 0.166221
H29   H     H_    0.389113 0.699822 0.876341 0.143275
H30   H     H_    0.614669 0.703016 0.124415 0.137361
H31   H     H_    0.886613 0.201163 0.875688 0.139351
H32   H     H_    0.110645 0.199538 0.124054 0.141621
H33   H     H_    0.908053 0.939931 0.583072 0.156380
H34   H     H_    0.175791 0.937646 0.588832 0.159587
H35   H     H_    0.324288 0.437934 0.411428 0.159248
H36   H     H_    0.592088 0.440182 0.417150 0.151806
H37   H     H_    0.841047 0.887844 0.345855 0.236981
H38   H     H_    0.012937 0.844129 0.462424 0.210291
H39   H     H_    0.487178 0.344101 0.537838 0.210501
H40   H     H_    0.659303 0.387580 0.654442 0.234483
O1    O     O_R   0.821190 0.768980 0.500000 -0.594161
O2    O     O_R   0.178810 0.768980 0.500000 -0.580040
O3    O     O_R   0.321190 0.268980 0.500000 -0.579857
O4    O     O_R   0.678810 0.268980 0.500000 -0.591894
O5    O     O_R   0.486270 0.545120 0.562900 -0.582974
O6    O     O_R   0.513730 0.545120 0.437100 -0.589376
O7    O     O_R   0.986270 0.045120 0.562900 -0.582231
O8    O     O_R   0.013730 0.045120 0.437100 -0.580232
O9    O     O_R   0.923420 0.954920 0.437060 -0.582732
O10   O     O_R   0.076580 0.954920 0.562940 -0.578541
O11   O     O_R   0.423420 0.454920 0.437060 -0.578094
O12   O     O_R   0.576580 0.454920 0.562940 -0.585954
O13   O     O_R   0.986330 0.954940 0.562940 -0.583063
O14   O     O_R   0.013670 0.954940 0.437060 -0.585001
O15   O     O_R   0.486330 0.454940 0.562940 -0.585348
O16   O     O_R   0.513670 0.454940 0.437060 -0.581361
O17   O     O_R   0.768960 0.821170 0.500020 -0.567475
O18   O     O_R   0.231040 0.821170 0.499980 -0.584274
O19   O     O_R   0.268960 0.321170 0.500020 -0.584617
O20   O     O_R   0.731040 0.321170 0.499980 -0.569467
O21   O     O_R   0.721730 0.723890 0.391250 -0.593495
O22   O     O_R   0.278270 0.723890 0.608750 -0.572153
O23   O     O_R   0.221730 0.223890 0.391250 -0.572034
O24   O     O_R   0.778270 0.223890 0.608750 -0.584009
O25   O     O_R   0.669500 0.776090 0.391270 -0.581135
O26   O     O_R   0.330500 0.776090 0.608730 -0.593414
O27   O     O_R   0.169500 0.276090 0.391270 -0.593578
O28   O     O_R   0.830500 0.276090 0.608730 -0.583502
O29   O     O_R   0.731010 0.678810 0.499990 -0.572041
O30   O     O_R   0.268990 0.678810 0.500010 -0.570192
O31   O     O_R   0.231010 0.178810 0.499990 -0.568955
O32   O     O_R   0.768990 0.178810 0.500010 -0.566810
O33   O     O_R   0.678790 0.731000 0.500010 -0.589969
O34   O     O_R   0.321210 0.731000 0.499990 -0.587348
O35   O     O_R   0.178790 0.231000 0.500010 -0.589375
O36   O     O_R   0.821210 0.231000 0.499990 -0.590646
O37   O     O_R   0.830470 0.723890 0.608750 -0.581462
O38   O     O_R   0.169530 0.723890 0.391250 -0.596620
O39   O     O_R   0.330470 0.223890 0.608750 -0.596113
O40   O     O_R   0.669530 0.223890 0.391250 -0.586870
O41   O     O_R   0.778250 0.776080 0.608760 -0.590617
O42   O     O_R   0.221750 0.776080 0.391240 -0.581912
O43   O     O_R   0.278250 0.276080 0.608760 -0.582955
O44   O     O_R   0.721750 0.276080 0.391240 -0.588450
O45   O     O_R   0.423360 0.545090 0.437020 -0.589247
O46   O     O_R   0.576640 0.545090 0.562980 -0.584270
O47   O     O_R   0.923360 0.045090 0.437020 -0.589997
O48   O     O_R   0.076640 0.045090 0.562980 -0.593154
H41   H     H_    0.488213 0.798621 0.875742 0.140343
H42   H     H_    0.510028 0.796762 0.123556 0.142836
H43   H     H_    0.988544 0.297692 0.876328 0.140934
H44   H     H_    0.011394 0.298594 0.123872 0.139640
C145  C     C_2   0.000182 0.689754 0.114229 0.364139
H45   H     H_    0.968860 0.689064 0.053436 0.088789
O49   O     O_2   0.994188 0.664453 0.148765 -0.532134
C146  C     C_2   0.003038 0.692351 0.885930 0.372757
H46   H     H_    0.034449 0.691666 0.946724 0.086901
O50   O     O_2   0.010060 0.668046 0.851469 -0.525291
C147  C     C_2   0.502317 0.187808 0.114271 0.374738
H47   H     H_    0.471074 0.187026 0.053478 0.085423
O51   O     O_2   0.497085 0.161844 0.148823 -0.521871
C148  C     C_2   0.500098 0.189329 0.885798 0.365720
H48   H     H_    0.531534 0.188600 0.946589 0.086482
O52   O     O_2   0.505915 0.163936 0.851281 -0.529746
H49   H     H_    0.108685 0.801250 0.123664 0.146929
H50   H     H_    0.889724 0.799371 0.876178 0.142580
H51   H     H_    0.607372 0.302386 0.123642 0.143866
H52   H     H_    0.392045 0.301317 0.876290 0.145919
C149  C     C_2   0.568352 0.679332 0.363743 0.384602
H53   H     H_    0.592633 0.703069 0.360267 0.065947
O53   O     O_2   0.517284 0.675177 0.309808 -0.534344
C150  C     C_2   0.252381 0.636105 0.363747 0.400404
H54   H     H_    0.226901 0.662200 0.360063 0.065464
O54   O     O_2   0.229573 0.611740 0.310184 -0.528752
C151  C     C_2   0.247371 0.136065 0.636386 0.396981
H55   H     H_    0.272830 0.162160 0.640055 0.065787
O55   O     O_2   0.270118 0.111697 0.690102 -0.529806
C152  C     C_2   0.752660 0.136646 0.363298 0.401931
H56   H     H_    0.727175 0.162684 0.359741 0.063182
O56   O     O_2   0.729973 0.112560 0.309422 -0.524394
C153  C     C_2   0.752649 0.657480 0.688781 0.402204
H57   H     H_    0.721805 0.674960 0.688547 0.073759
O57   O     O_2   0.803223 0.667672 0.733551 -0.540296
C154  C     C_2   0.436270 0.660842 0.688335 0.403483
H58   H     H_    0.447055 0.687051 0.726413 0.062956
O58   O     O_2   0.416648 0.627001 0.690682 -0.519073
C155  C     C_2   0.064061 0.160877 0.311391 0.405927
H59   H     H_    0.053069 0.187044 0.272998 0.063333
O59   O     O_2   0.084066 0.127104 0.309560 -0.518006
C156  C     C_2   0.935485 0.160053 0.688371 0.409056
H60   H     H_    0.946027 0.186153 0.726498 0.063344
O60   O     O_2   0.915694 0.126145 0.690194 -0.518170
H61   H     H_    0.419528 0.798997 0.738306 0.159811
H62   H     H_    0.578433 0.797140 0.261076 0.163292
H63   H     H_    0.920282 0.298181 0.738833 0.161358
H64   H     H_    0.080249 0.299117 0.261348 0.159227
H65   H     H_    0.767435 0.607328 0.635646 0.192096
H66   H     H_    0.459849 0.700136 0.633554 0.128507
H67   H     H_    0.040085 0.200125 0.365633 0.127574
H68   H     H_    0.959838 0.199594 0.634718 0.128007
H69   H     H_    0.851038 0.883458 0.582853 0.154565
H70   H     H_    0.232242 0.881057 0.588100 0.154230
H71   H     H_    0.267830 0.381329 0.412073 0.153815
H72   H     H_    0.649006 0.383673 0.417249 0.152690
H73   H     H_    0.898064 0.846885 0.377765 0.168922
H74   H     H_    0.978577 0.853580 0.362344 0.182257
H75   H     H_    0.521500 0.353256 0.637911 0.181775
H76   H     H_    0.602330 0.346713 0.622728 0.169496
C157  C     C_2   0.769155 0.831632 0.331745 0.400859
H77   H     H_    0.740202 0.805538 0.295371 0.059097
O61   O     O_2   0.749340 0.866590 0.329858 -0.513290
C158  C     C_2   0.073228 0.775735 0.482615 0.462600
H78   H     H_    0.064694 0.741670 0.467064 0.054292
O62   O     O_2   0.098373 0.786044 0.547564 -0.523439
C159  C     C_2   0.426880 0.275741 0.517545 0.462782
H79   H     H_    0.435400 0.241632 0.533066 0.055087
O63   O     O_2   0.401768 0.286240 0.452615 -0.523847
C160  C     C_2   0.731122 0.331296 0.668418 0.396347
H80   H     H_    0.760108 0.305115 0.704780 0.060557
O64   O     O_2   0.750896 0.366243 0.670204 -0.521362

loop_
_geom_bond_atom_site_label_1
_geom_bond_atom_site_label_2
_ccdc_geom_bond_type
C99   C103  A    
C147  O51   D    
C133  C137  A    
C55   C59   A    
C47   C136  S    
C126  H42   S    
C48   C135  S    
C77   C101  A    
C86   C150  S    
C136  C140  A    
Cu2   O38   S    
C135  C139  A    
Cu5   O25   S    
C118  O10   A    
C24   H72   S    
C95   C99   A    
C92   O36   A    
C3    O19   A    
C151  H55   S    
C29   C33   A    
C100  C104  A    
C152  H56   S    
Cu2   Cu6   S    
Cu3   O3    S    
C115  O7    A    
C70   C74   S    
Cu5   O41   S    
C3    C19   S    
C113  O5    A    
Cu12  O10   S    
C16   C44   S    
C49   C69   A    
C130  C134  A    
C100  C115  S    
C51   C71   A    
C116  O8    A    
C25   C29   A    
C38   H74   S    
C27   C31   A    
C120  O12   A    
C28   C32   A    
Cu5   O17   S    
C99   C116  S    
C62   C66   A    
Cu4   O4    S    
C160  H80   S    
C98   C102  A    
Cu1   O29   S    
C17   C21   A    
C37   H37   S    
C19   C23   A    
C75   C76   T    
C13   C33   A    
C52   C72   A    
C78   C82   A    
C68   C72   A    
C52   C148  S    
C80   C112  S    
C50   C54   A    
C129  C133  A    
C122  O38   A    
C150  O54   D    
C2    O18   A    
C83   C91   S    
Cu10  O5    S    
C50   C146  S    
C59   C124  S    
C47   O27   A    
C107  H23   S    
Cu12  O13   S    
C90   O30   A    
C84   C88   A    
C105  H21   S    
Cu11  O9    S    
Cu6   O34   S    
C67   H51   S    
C57   C61   A    
C30   C118  S    
C56   H8    S    
C59   C63   A    
C46   O26   A    
C131  H63   S    
C60   C64   A    
C50   C70   A    
C55   H7    S    
C94   H14   S    
C156  O60   D    
C66   C70   A    
C47   O23   A    
C49   C53   A    
C51   C55   A    
C138  H26   S    
C127  C131  A    
Cu2   O22   S    
C61   C65   A    
Cu11  Cu12  S    
C94   C98   A    
C103  C107  S    
C146  H46   S    
C120  O16   A    
C116  O48   A    
C4    O20   A    
Cu9   O45   S    
Cu4   O32   S    
C7    C143  A    
Cu1   O1    S    
Cu8   O20   S    
C145  H45   S    
C109  H65   S    
C21   H69   S    
C64   C68   A    
C43   H3    S    
C137  H25   S    
Cu12  O48   S    
C139  C143  A    
C8    C128  A    
Cu7   O35   S    
C157  O61   D    
C87   C95   A    
C9    C10   T    
C8    C12   S    
C63   H11   S    
C105  H17   S    
C153  H57   S    
C79   C103  A    
C158  O62   D    
C141  H29   S    
C123  O43   A    
C111  H67   S    
C30   C34   A    
C154  H58   S    
C78   C110  S    
Cu3   O31   S    
C48   O28   A    
C91   O35   A    
C124  O40   A    
Cu2   O2    S    
C60   C123  S    
Cu3   Cu7   S    
C5    C9    S    
C125  C129  A    
C132  C136  A    
C54   C58   A    
C77   C109  S    
C149  O53   D    
C62   H10   S    
C26   C30   A    
C159  O63   D    
C49   C145  S    
C93   C97   A    
C68   H52   S    
C105  C109  S    
C114  O46   A    
C18   C22   A    
C107  C111  S    
C65   H49   S    
Cu4   Cu8   S    
C14   C34   A    
Cu9   O16   S    
C109  C153  S    
C119  O15   A    
C13   C17   A    
Cu5   O33   S    
C117  O13   A    
C148  H48   S    
C15   C43   S    
C25   H33   S    
C16   C36   A    
C122  O42   A    
C96   C100  A    
Cu7   O27   S    
C61   H9    S    
C37   C41   S    
Cu10  O12   S    
C40   C44   S    
C56   C60   A    
C5    C125  A    
C155  H59   S    
C90   O34   A    
Cu7   O19   S    
C84   C92   S    
C7    C127  A    
C97   C114  S    
Cu12  O7    S    
C106  H22   S    
C81   C85   A    
C147  H47   S    
Cu8   O36   S    
Cu11  O47   S    
C58   C62   A    
C83   C87   A    
C88   C96   A    
C46   O22   A    
Cu1   O37   S    
C78   C102  A    
C73   C74   T    
C125  H41   S    
C80   C84   A    
C51   C147  S    
C13   C41   S    
C42   H2    S    
C15   C19   A    
C110  H66   S    
C93   H13   S    
C140  H28   S    
C80   C104  A    
C117  O9    A    
C144  H32   S    
C124  O44   A    
C2    C18   S    
C126  C130  A    
C160  O64   D    
C21   C25   A    
C57   C122  S    
Cu9   O11   S    
C114  O6    A    
C69   C73   S    
C6    C142  A    
C81   C89   S    
C34   C38   S    
Cu6   O26   S    
C22   H70   S    
C111  C155  S    
C110  C154  S    
C1    O1    A    
C112  H68   S    
C24   C28   A    
C6    C126  A    
C138  C142  A    
C53   C57   A    
C98   C113  S    
Cu2   O30   S    
C82   C86   A    
C33   C37   S    
C38   H38   S    
C42   C158  S    
C35   C39   S    
Cu10  O15   S    
C77   C81   A    
C106  H18   S    
Cu4   O24   S    
C31   C119  S    
C41   H1    S    
C121  O37   A    
Cu8   O28   S    
C1    O17   A    
C44   H4    S    
C31   C35   A    
C127  H43   S    
C32   C36   A    
C104  C108  S    
C23   H71   S    
C146  O50   D    
Cu9   O6    S    
C48   O24   A    
C137  C141  A    
C58   C121  S    
C91   O31   A    
C1    C17   S    
Cu11  O14   S    
C140  C144  A    
C89   O29   A    
C6    C10   S    
Cu7   O43   S    
C82   C90   S    
C45   O25   A    
C64   H12   S    
C46   C133  S    
C79   C83   A    
C107  H19   S    
C65   C69   A    
C108  H20   S    
C41   C157  S    
C67   C71   A    
C108  C112  S    
Cu1   O21   S    
C150  H54   S    
C92   O32   A    
C157  H77   S    
C22   C26   A    
C66   H50   S    
C95   H15   S    
Cu1   Cu5   S    
Cu3   O39   S    
C159  H79   S    
Cu10  O46   S    
C155  O59   D    
C45   O21   A    
C14   C18   A    
C72   C76   S    
C26   H34   S    
C7    C11   S    
C45   C134  S    
C43   C159  S    
C154  O58   D    
C38   C42   S    
C131  C135  A    
C156  H60   S    
C37   H73   S    
C108  H24   S    
C39   H75   S    
C40   H76   S    
C88   C152  S    
C86   C94   A    
C87   C151  S    
C27   H35   S    
C20   C24   A    
Cu6   O42   S    
C3    O3    A    
C132  H64   S    
C23   C27   A    
C149  H53   S    
C152  O56   D    
C16   C20   A    
C14   C42   S    
C129  H61   S    
C112  C156  S    
C32   C120  S    
C28   H36   S    
C15   C35   A    
C101  C105  S    
C142  H30   S    
C63   C67   A    
C145  O49   D    
C128  H44   S    
C85   C149  S    
C36   C40   S    
C39   C43   S    
C29   C117  S    
Cu4   O40   S    
C148  O52   D    
C39   H39   S    
C5    C141  A    
C85   C93   A    
Cu8   O44   S    
C4    O4    A    
C130  H62   S    
C8    C144  A    
C54   H6    S    
C115  O47   A    
C113  O45   A    
C153  O57   D    
C123  O39   A    
C119  O11   A    
Cu11  O8    S    
C139  H27   S    
C158  H78   S    
C40   H40   S    
C151  O55   D    
C128  C132  A    
C2    O2    A    
C143  H31   S    
C44   C160  S    
C134  C138  A    
C11   C12   T    
C4    C20   S    
C79   C111  S    
C118  O14   A    
C71   C75   S    
C53   H5    S    
C121  O41   A    
C102  C106  S    
Cu6   O18   S    
Cu3   O23   S    
C106  C110  S    
C96   H16   S    
C89   O33   A    
Cu9   Cu10  S    
C97   C101  A    
C52   C56   A    
