data_mof_unit_67870.cif
_audit_creation_date              2013-03-05T15:41:51-0500
_audit_creation_method            fapswitch 2.2
_symmetry_space_group_name_H-M    P1
_symmetry_Int_Tables_number       1
_space_group_crystal_system       triclinic
_cell_length_a                    7.975236
_cell_length_b                    8.720168
_cell_length_c                    10.590084
_cell_angle_alpha                 92.579935
_cell_angle_beta                  84.159009
_cell_angle_gamma                 93.076196
_cell_volume                      731.031980274

loop_
_atom_site_label
_atom_site_type_symbol
_atom_site_description
_atom_site_fract_x
_atom_site_fract_y
_atom_site_fract_z
_atom_type_partial_charge
O1    O     O_R   0.389250 0.738570 0.508410 -0.624567
O2    O     O_R   0.610750 0.261430 0.491590 -0.611084
O3    O     O_R   0.678390 0.711620 0.486450 -0.641875
O4    O     O_R   0.321610 0.288380 0.513550 -0.652780
C1    C     C_R   0.543564 0.793046 0.494621 0.874570
C2    C     C_R   0.456160 0.206709 0.503178 0.943352
O5    O     O_R   0.355460 0.513510 0.697030 -0.629944
O6    O     O_R   0.644540 0.486490 0.302970 -0.633501
O7    O     O_R   0.644600 0.486560 0.675070 -0.586854
O8    O     O_R   0.355400 0.513440 0.324930 -0.648200
C3    C     C_R   0.500206 0.504029 0.741909 0.877277
C4    C     C_R   0.501404 0.504023 0.258721 0.875718
Zn1   Zn    Zn3+2 0.306940 0.517990 0.514670 0.933381
Zn2   Zn    Zn3+2 0.693060 0.482010 0.485330 0.965397
N1    N     N_2   0.950320 0.457950 0.465730 0.036855
N2    N     N_2   0.049680 0.542050 0.534270 0.009433
C5    C     C_3   0.384512 0.600121 0.974258 0.215609
C6    C     C_3   0.622431 0.421661 0.027762 0.240701
C7    C     C_3   0.536030 0.652413 0.044983 0.193338
C8    C     C_3   0.469627 0.368781 0.958368 0.230323
C9    C     C_3   0.504294 0.510177 0.124513 -0.160436
C10   C     C_3   0.500836 0.510045 0.877185 -0.174904
C11   C     C_3   0.348692 0.457477 0.054615 -0.266872
C12   C     C_3   0.656028 0.565052 0.947090 -0.295838
H1    H     H_    0.223450 0.415120 0.098771 0.178559
H2    H     H_    0.780937 0.606390 0.904068 0.179029
C13   C     C_2   0.560888 0.955381 0.513994 -0.059763
C14   C     C_2   0.437703 0.044768 0.482754 -0.015998
N3    N     N_2   0.562453 0.806992 0.096691 -0.306929
H3    H     H_    0.480056 0.831846 0.174608 0.208616
C15   C     C_3   0.734168 0.855370 0.113920 -0.842040
H4    H     H_    0.789350 0.774729 0.174724 0.257650
H5    H     H_    0.737978 0.972003 0.160539 0.252686
H6    H     H_    0.807313 0.861470 0.019516 0.252144
N4    N     N_2   0.431233 0.213944 0.913762 -0.312594
H7    H     H_    0.350773 0.207104 0.843210 0.222197
C16   C     C_3   0.380223 0.110513 0.014938 -0.820861
H8    H     H_    0.246066 0.124920 0.051031 0.229518
H9    H     H_    0.460444 0.130062 0.094640 0.271853
H10   H     H_    0.395980 0.992294 0.977845 0.266719
N5    N     N_2   0.260845 0.701216 0.941419 -0.302815
H11   H     H_    0.311474 0.784927 0.881446 0.216737
C17   C     C_3   0.143657 0.753585 0.045284 -0.824332
H12   H     H_    0.084346 0.857079 0.017213 0.234061
H13   H     H_    0.207901 0.785530 0.131368 0.247382
H14   H     H_    0.045201 0.661374 0.067927 0.255902
N6    N     N_2   0.758942 0.333928 0.061365 -0.311311
H15   H     H_    0.850934 0.404319 0.099004 0.243514
C18   C     C_3   0.829434 0.229367 0.963359 -0.813078
H16   H     H_    0.945679 0.182677 0.992814 0.223576
H17   H     H_    0.861657 0.288711 0.872666 0.261839
H18   H     H_    0.737837 0.131745 0.950677 0.288174
N7    N     N_2   0.026633 0.373246 0.364477 -0.238140
H19   H     H_    0.144073 0.340787 0.375380 0.291728
C19   C     C_3   0.926642 0.242945 0.319829 -0.739425
H20   H     H_    0.998906 0.182982 0.238737 0.205878
H21   H     H_    0.808621 0.276827 0.287738 0.291004
H22   H     H_    0.894739 0.161683 0.395889 0.234192
N8    N     N_2   0.964667 0.641125 0.619148 -0.208171
H23   H     H_    0.931705 0.736829 0.576687 0.235987
C20   C     C_3   0.047043 0.679331 0.731061 -0.702931
H24   H     H_    0.973783 0.764353 0.791735 0.193745
H25   H     H_    0.173759 0.732940 0.704946 0.256209
H26   H     H_    0.054672 0.574011 0.784892 0.271868
N9    N     N_2   0.693463 0.014049 0.586106 -0.283664
H27   H     H_    0.809324 0.990018 0.540833 0.226236
C21   C     C_3   0.679841 0.964694 0.715366 -0.800983
H28   H     H_    0.790173 0.013386 0.761649 0.241413
H29   H     H_    0.680663 0.837635 0.718485 0.236729
H30   H     H_    0.561609 0.003412 0.767557 0.263698
N10   N     N_2   0.305356 0.989859 0.408525 -0.315042
H31   H     H_    0.329607 0.897989 0.346561 0.230110
C22   C     C_3   0.140458 0.979152 0.477787 -0.770580
H32   H     H_    0.049601 0.921100 0.416210 0.220446
H33   H     H_    0.097461 0.094327 0.508819 0.259466
H34   H     H_    0.144509 0.914618 0.564375 0.250691

loop_
_geom_bond_atom_site_label_1
_geom_bond_atom_site_label_2
_geom_bond_distance
_ccdc_geom_bond_type
C19   H20   1.110957 S    
C6    C9    1.530901 S    
C22   H33   1.103903 S    
C22   H32   1.110692 S    
N4    H7    1.031032 S    
O7    Zn2   2.006212 S    
C6    N6    1.445673 S    
N6    C18   1.440724 S    
N7    H19   1.011969 S    
O5    C3    1.300293 A    
C5    C11   1.536466 S    
O1    C1    1.291711 A    
N1    N7    1.381987 S    
C7    C9    1.526029 S    
C12   H2    1.101706 S    
C16   H10   1.095553 S    
N1    N2    1.303603 D    
N5    H11   1.028195 S    
O4    Zn1   2.011345 S    
C20   H25   1.104695 S    
C1    C13   1.422570 S    
C8    N4    1.437918 S    
C2    C14   1.421012 S    
N6    H15   1.031059 S    
C18   H17   1.111997 S    
C15   H5    1.110681 S    
C6    C12   1.542326 S    
N3    H3    1.023959 S    
N8    H23   1.024297 S    
N5    C17   1.443341 S    
O2    C2    1.293874 A    
N7    C19   1.442804 S    
N8    C20   1.430617 S    
C21   H28   1.106231 S    
O4    C2    1.312154 A    
N10   C22   1.439747 S    
N9    C21   1.445209 S    
C4    C9    1.422493 S    
C21   H29   1.110344 S    
N2    N8    1.372211 S    
C20   H26   1.110112 S    
C17   H12   1.106884 S    
C16   H8    1.110627 S    
C13   N9    1.426168 S    
O7    C3    1.301374 A    
C15   H4    1.111073 S    
C8    C11   1.541538 S    
O6    C4    1.296202 A    
C18   H18   1.104212 S    
C15   H6    1.106961 S    
C17   H13   1.108193 S    
O3    Zn2   2.011345 S    
O8    C4    1.301209 A    
C8    C10   1.528858 S    
N9    H27   1.024287 S    
C19   H21   1.092124 S    
C22   H34   1.101373 S    
C10   C12   1.549456 S    
C19   H22   1.098177 S    
C14   N10   1.429001 S    
O1    Zn1   2.000561 S    
C7    N3    1.444920 S    
O6    Zn2   2.010308 S    
N4    C16   1.444267 S    
O3    C1    1.313519 A    
O8    Zn1   2.006212 S    
C3    C10   1.431701 S    
C5    C10   1.531609 S    
C21   H30   1.104479 S    
C9    C11   1.547336 S    
C7    C12   1.541481 S    
N10   H31   1.026285 S    
N3    C15   1.438276 S    
C5    C7    1.524287 S    
C6    C8    1.526195 S    
C11   H1    1.110692 S    
C20   H24   1.109549 S    
O2    Zn2   2.000561 S    
C17   H14   1.109912 S    
C5    N5    1.435814 S    
O5    Zn1   2.010310 S    
C16   H9    1.111778 S    
C18   H16   1.110562 S    
Zn1   N2    2.062090 S    
C13   C14   1.361527 D    
Zn2   N1    2.062090 S    
