data_mof_unit_12492.cif
_audit_creation_date              2012-12-10T18:49:55-0500
_audit_creation_method            fapswitch 2.2
_symmetry_space_group_name_H-M    P1
_symmetry_Int_Tables_number       1
_space_group_crystal_system       triclinic
_cell_length_a                    10.982171
_cell_length_b                    10.06784
_cell_length_c                    11.106674
_cell_angle_alpha                 90.167138
_cell_angle_beta                  94.53962
_cell_angle_gamma                 89.475144
_cell_volume                      1224.12189794

loop_
_atom_site_label
_atom_site_type_symbol
_atom_type_description
_atom_site_fract_x
_atom_site_fract_y
_atom_site_fract_z
_atom_type_partial_charge
C1    C     C_R   0.259949 0.500365 0.498467 0.913283
C2    C     C_3   0.620732 0.472751 0.931721 0.082984
C3    C     C_R   0.059656 0.380612 0.488465 -0.085939
C4    C     C_R   0.060348 0.622998 0.492549 -0.011900
C5    C     C_R   0.933615 0.386682 0.465596 -0.017224
C6    C     C_R   0.935882 0.623134 0.506569 -0.001378
C7    C     C_R   0.871169 0.503168 0.492222 -0.029169
C8    C     C_R   0.126129 0.501152 0.495740 -0.164232
C9    C     C_R   0.590017 0.071334 0.564260 -0.100939
C10   C     C_R   0.583501 0.929493 0.574518 -0.109318
C11   C     C_R   0.418538 0.930356 0.425938 0.184178
C12   C     C_R   0.416136 0.072219 0.428254 0.186975
C13   C     C_R   0.498419 0.500283 0.257599 0.938036
C14   C     C_R   0.739189 0.500320 0.498218 1.009266
C15   C     C_R   0.485929 0.499370 0.739690 0.947372
C16   C     C_3   0.431418 0.642544 0.068363 0.068774
C17   C     C_3   0.405425 0.379552 0.067911 0.100111
C18   C     C_3   0.420352 0.637436 0.921859 -0.226543
C19   C     C_3   0.394709 0.372267 0.919544 -0.264423
C20   C     C_3   0.632550 0.491928 0.077510 -0.219703
C21   C     C_3   0.493594 0.501969 0.119348 -0.059881
C22   C     C_3   0.479542 0.496399 0.876440 -0.211127
N1    N     N_R   0.499970 0.857200 0.499970 -0.136025
N2    N     N_R   0.499970 0.142800 0.499970 -0.151876
O1    O     O_R   0.316750 0.614620 0.499990 -0.609104
O2    O     O_R   0.316750 0.385380 0.499990 -0.613502
O3    O     O_R   0.499970 0.614670 0.314790 -0.679693
O4    O     O_R   0.499970 0.385330 0.314790 -0.577554
O5    O     O_R   0.683220 0.614710 0.500010 -0.554295
O6    O     O_R   0.683220 0.385290 0.500010 -0.589145
O7    O     O_R   0.500010 0.614660 0.685200 -0.576274
O8    O     O_R   0.500010 0.385340 0.685200 -0.539906
Zn1   Zn    Zn3+2 0.499980 0.653120 0.500000 1.027690
Zn2   Zn    Zn3+2 0.499980 0.346880 0.500000 1.043953
N3    N     N_3   0.503932 0.762088 0.108890 -0.404053
H1    H     H_    0.516298 0.781649 0.200178 0.221921
H2    H     H_    0.458893 0.848910 0.077519 0.184371
N4    N     N_3   0.450239 0.252739 0.120708 -0.406868
H3    H     H_    0.534247 0.224392 0.094841 0.251397
H4    H     H_    0.389277 0.176537 0.095871 0.210125
N5    N     N_3   0.331856 0.865738 0.344647 -0.429770
H5    H     H_    0.343980 0.764871 0.352984 0.245685
H6    H     H_    0.351183 0.889927 0.257241 0.127561
N6    N     N_3   0.324072 0.140070 0.352577 -0.397570
H7    H     H_    0.345208 0.239213 0.345584 0.251742
H8    H     H_    0.324374 0.103923 0.264856 0.164003
N7    N     N_3   0.310031 0.662496 0.113625 -0.416421
H9    H     H_    0.278889 0.760430 0.102014 0.232883
H10   H     H_    0.305359 0.636345 0.203429 0.194977
N8    N     N_3   0.285226 0.400140 0.118531 -0.454540
H11   H     H_    0.240186 0.311349 0.133606 0.237065
H12   H     H_    0.223544 0.459413 0.066893 0.271446
C23   C     C_2   0.287406 0.657111 0.861134 0.940996
O9    O     O_2   0.273283 0.677220 0.752098 -0.519762
O10   O     O_R   0.181537 0.649027 0.923020 -0.796854
H13   H     H_    0.103657 0.662667 0.868865 0.364204
C24   C     C_2   0.259784 0.377138 0.866903 0.928385
O11   O     O_2   0.233287 0.423702 0.766737 -0.587077
O12   O     O_R   0.172649 0.297647 0.916966 -0.791706
H14   H     H_    0.089958 0.301001 0.869386 0.369483
C25   C     C_2   0.485397 0.761204 0.876018 0.991919
O13   O     O_2   0.593333 0.777757 0.902669 -0.533427
O14   O     O_R   0.420004 0.863528 0.814487 -0.757831
H15   H     H_    0.475027 0.938044 0.794022 0.356020
C26   C     C_2   0.423525 0.232794 0.860688 0.994674
O15   O     O_2   0.478832 0.142633 0.914166 -0.678306
O16   O     O_R   0.372994 0.203400 0.743473 -0.673787
H16   H     H_    0.390271 0.110822 0.714062 0.354299
C27   C     C_2   0.707245 0.613756 0.128034 0.981282
O17   O     O_2   0.751030 0.696136 0.064125 -0.540436
O18   O     O_R   0.731460 0.626994 0.252848 -0.811469
H17   H     H_    0.780972 0.708883 0.276134 0.353946
C28   C     C_2   0.717406 0.381958 0.135881 0.817414
O19   O     O_2   0.821265 0.370269 0.103826 -0.628722
O20   O     O_R   0.682593 0.296994 0.225204 -0.765898
H18   H     H_    0.729020 0.209496 0.226747 0.341640
N9    N     N_3   0.704346 0.562712 0.874073 -0.317431
H19   H     H_    0.709712 0.536452 0.783546 0.213496
H20   H     H_    0.793926 0.546064 0.910749 0.225253
N10   N     N_3   0.659665 0.337566 0.896045 -0.388794
H21   H     H_    0.753046 0.333043 0.883390 0.236828
H22   H     H_    0.649126 0.264269 0.958807 0.223709
C29   C     C_2   0.113660 0.247023 0.511046 0.975089
O21   O     O_2   0.162893 0.220602 0.610395 -0.518282
O22   O     O_R   0.097079 0.147455 0.423966 -0.836582
H23   H     H_    0.129079 0.058870 0.455897 0.375028
C30   C     C_2   0.110453 0.750477 0.456478 0.907758
O23   O     O_2   0.164574 0.822240 0.531403 -0.555594
O24   O     O_R   0.081607 0.793432 0.337847 -0.809781
H24   H     H_    0.103522 0.889108 0.323825 0.362325
N11   N     N_3   0.870565 0.280636 0.402463 -0.389482
H25   H     H_    0.910808 0.267655 0.320984 0.258460
H26   H     H_    0.883344 0.192865 0.450290 0.242226
N12   N     N_3   0.875300 0.746763 0.529684 -0.385674
H27   H     H_    0.920091 0.791466 0.605752 0.232264
H28   H     H_    0.878904 0.810362 0.455909 0.211865
C31   C     C_2   0.699651 0.139272 0.619094 1.028196
O25   O     O_2   0.689263 0.237664 0.680626 -0.595210
O26   O     O_R   0.815145 0.081298 0.611934 -0.847075
H29   H     H_    0.882082 0.131768 0.660249 0.350940
C32   C     C_2   0.663683 0.867206 0.675275 0.989277
O27   O     O_2   0.688592 0.750345 0.675583 -0.580685
O28   O     O_R   0.710174 0.943369 0.774199 -0.767331
H30   H     H_    0.773497 0.894076 0.829050 0.392792

loop_
_geom_bond_atom_site_label_1
_geom_bond_atom_site_label_2
_ccdc_geom_bond_type
O10   H13   S    
C16   C21   S    
C1    C8    S    
N5    H6    S    
C28   O19   D    
N3    H1    S    
C4    C8    A    
C31   O25   D    
C15   O8    A    
N7    H10   S    
C4    C30   S    
C23   O9    D    
C19   C24   S    
C32   O27   D    
N3    H2    S    
C15   C22   S    
C16   N3    S    
N4    H3    S    
C24   O12   S    
C26   O16   S    
O5    Zn1   S    
C27   O18   S    
N5    H5    S    
C25   O14   S    
C18   C23   S    
O2    Zn2   S    
C7    C14   S    
N7    H9    S    
N1    Zn1   S    
C2    C22   S    
N8    H12   S    
O7    Zn1   S    
C13   O4    A    
C11   N5    S    
C9    C10   A    
N9    H19   S    
N9    H20   S    
O4    Zn2   S    
O12   H14   S    
C32   O28   S    
C1    O1    A    
C28   O20   S    
C27   O17   D    
C14   O6    A    
C16   N7    S    
C31   O26   S    
N6    H8    S    
C23   O10   S    
O6    Zn2   S    
C2    C20   S    
O16   H16   S    
C19   C22   S    
N10   H22   S    
C3    C8    A    
N11   H25   S    
C5    C7    A    
C6    N12   S    
O22   H23   S    
N2    Zn2   S    
O8    Zn2   S    
O20   H18   S    
N11   H26   S    
C29   O21   D    
N8    H11   S    
C13   C21   S    
N12   H27   S    
C18   C25   S    
N12   H28   S    
C5    N11   S    
C4    C6    A    
C29   O22   S    
C30   O24   S    
C3    C29   S    
C1    O2    A    
C20   C27   S    
C14   O5    A    
O28   H30   S    
N6    H7    S    
C9    C31   S    
C18   C22   S    
C10   C32   S    
N10   H21   S    
C3    C5    A    
C17   N8    S    
C11   C12   A    
C9    N2    A    
C15   O7    A    
C6    C7    A    
C10   N1    A    
C12   N2    A    
O26   H29   S    
O18   H17   S    
C12   N6    S    
C2    N9    S    
N4    H4    S    
C24   O11   D    
C11   N1    A    
C17   C19   S    
C20   C28   S    
C19   C26   S    
C17   N4    S    
C25   O13   D    
C17   C21   S    
C2    N10   S    
O14   H15   S    
C20   C21   S    
C30   O23   D    
C16   C18   S    
C26   O15   D    
O3    Zn1   S    
C13   O3    A    
O24   H24   S    
O1    Zn1   S    
