data_mof_unit_61362.cif
_audit_creation_date              2012-12-10T21:32:47-0500
_audit_creation_method            fapswitch 2.2
_symmetry_space_group_name_H-M    P1
_symmetry_Int_Tables_number       1
_space_group_crystal_system       triclinic
_cell_length_a                    11.545467
_cell_length_b                    16.193959
_cell_length_c                    16.676834
_cell_angle_alpha                 87.412042
_cell_angle_beta                  90.517692
_cell_angle_gamma                 92.762649
_cell_volume                      3111.14082853

loop_
_atom_site_label
_atom_site_type_symbol
_atom_type_description
_atom_site_fract_x
_atom_site_fract_y
_atom_site_fract_z
_atom_type_partial_charge
Br1   Br    Br    0.722605 0.431758 0.079995 -0.348791
Br2   Br    Br    0.280562 0.570355 0.920450 -0.348927
Br3   Br    Br    0.700270 0.102547 0.578425 -0.371690
Br4   Br    Br    0.420286 0.899263 0.343371 -0.314377
Br5   Br    Br    0.663391 0.698974 0.647214 -0.339250
Br6   Br    Br    0.291840 0.301564 0.383993 -0.339145
C1    C     C_R   0.498464 0.488576 0.653096 0.977782
C2    C     C_R   0.473247 0.108004 0.494535 0.170682
C3    C     C_R   0.579727 0.846478 0.566088 -0.251519
C4    C     C_R   0.382505 0.154298 0.460806 -0.249577
C5    C     C_R   0.575723 0.758729 0.567105 0.326612
C6    C     C_R   0.395332 0.241783 0.453832 0.341889
C7    C     C_R   0.718157 0.500089 0.500334 0.991944
C8    C     C_R   0.281842 0.499900 0.499794 0.993512
C9    C     C_1   0.838584 0.500254 0.500394 -0.077280
C10   C     C_1   0.161415 0.499697 0.499805 -0.069100
C11   C     C_1   0.940707 0.500094 0.500251 0.057430
C12   C     C_R   0.501576 0.511435 0.346907 0.978007
C13   C     C_1   0.059291 0.499808 0.499974 0.060161
C14   C     C_R   0.489599 0.479681 0.740013 -0.214534
C15   C     C_R   0.510928 0.520483 0.260023 -0.219091
C16   C     C_R   0.404969 0.523353 0.779609 -0.135888
C17   C     C_R   0.596564 0.477568 0.220621 -0.140061
C18   C     C_R   0.397161 0.515363 0.863291 0.240586
C19   C     C_R   0.605019 0.485927 0.136977 0.240843
C20   C     C_R   0.472900 0.464369 0.906204 0.239947
C21   C     C_R   0.529075 0.536650 0.093945 0.238372
C22   C     C_R   0.550772 0.417625 0.866976 -0.195966
C23   C     C_R   0.562039 0.425495 0.783924 -0.082947
C24   C     C_R   0.450291 0.582766 0.133034 -0.192111
C25   C     C_2   0.678919 0.425523 0.266197 1.009197
C26   C     C_2   0.323104 0.575953 0.734213 1.011179
C27   C     C_2   0.655171 0.380475 0.746156 0.976260
C28   C     C_2   0.344308 0.618780 0.253568 0.961510
C29   C     C_2   0.637428 0.891626 0.631623 1.065304
C30   C     C_2   0.272308 0.111989 0.435030 1.034167
C31   C     C_R   0.438297 0.574447 0.216009 -0.079575
C32   C     C_R   0.462370 0.759640 0.448024 -0.106371
C33   C     C_R   0.572319 0.240004 0.526061 -0.093415
C34   C     C_R   0.471486 0.846505 0.441354 0.218554
C35   C     C_R   0.570539 0.152979 0.526915 0.211105
C36   C     C_R   0.527249 0.891446 0.502390 0.159553
H1    H     H_    0.608455 0.379292 0.902310 0.220957
H2    H     H_    0.193200 0.017651 0.377813 0.372958
H3    H     H_    0.392455 0.620891 0.097607 0.222166
H4    H     H_    0.643722 0.273667 0.554226 0.191402
H5    H     H_    0.418779 0.725765 0.401187 0.192665
H6    H     H_    0.745352 0.313257 0.284312 0.365243
H7    H     H_    0.258619 0.688836 0.715949 0.363218
H8    H     H_    0.778721 0.380157 0.661339 0.349695
H9    H     H_    0.220195 0.618176 0.338065 0.348636
H10   H     H_    0.621704 0.971650 0.719634 0.380411
N1    N     N_2   0.480662 0.466304 0.989790 -0.107183
N2    N     N_2   0.521662 0.534707 0.010350 -0.104932
N3    N     N_R   0.513820 0.716920 0.509720 -0.139743
N4    N     N_R   0.486180 0.283080 0.490280 -0.143202
N5    N     N_2   0.547158 0.979649 0.494763 -0.062460
N6    N     N_2   0.457294 0.018984 0.500891 -0.060903
O1    O     O_R   0.495050 0.422540 0.612660 -0.612360
O2    O     O_R   0.686469 0.342276 0.249024 -0.717274
O3    O     O_2   0.261081 0.546265 0.682060 -0.648727
O4    O     O_R   0.317210 0.659393 0.751132 -0.716196
O5    O     O_2   0.679910 0.312180 0.773597 -0.567262
O6    O     O_R   0.717473 0.416964 0.681226 -0.807744
O7    O     O_2   0.318925 0.686959 0.226190 -0.562159
O8    O     O_R   0.282019 0.581793 0.318271 -0.808288
O9    O     O_2   0.740011 0.882823 0.646822 -0.529570
O10   O     O_R   0.573731 0.944759 0.675844 -0.741258
O11   O     O_2   0.179509 0.139396 0.452797 -0.553208
O12   O     O_R   0.504950 0.577460 0.387340 -0.622813
O13   O     O_R   0.273900 0.040667 0.391326 -0.720384
O14   O     O_R   0.503930 0.561840 0.618900 -0.579262
O15   O     O_R   0.496070 0.438160 0.381100 -0.580794
O16   O     O_R   0.661110 0.430350 0.496870 -0.612844
O17   O     O_R   0.338890 0.569650 0.503130 -0.606523
O18   O     O_R   0.669990 0.569650 0.503110 -0.588039
O19   O     O_R   0.330010 0.430350 0.496890 -0.582929
O20   O     O_2   0.740026 0.455535 0.318656 -0.647483
Zn1   Zn    Zn3+2 0.494070 0.406980 0.495830 1.042820
Zn2   Zn    Zn3+2 0.505930 0.593020 0.504170 1.038388

loop_
_geom_bond_atom_site_label_1
_geom_bond_atom_site_label_2
_ccdc_geom_bond_type
C12   O12   A    
C12   C15   S    
H8    O6    S    
C24   H3    S    
C28   O8    S    
C21   N2    S    
C33   C35   A    
N1    N2    D    
C3    C36   A    
N4    Zn1   S    
C16   C26   S    
C22   C23   A    
C18   C20   A    
C26   O3    D    
Br5   C5    S    
C27   O6    S    
Br6   C6    S    
C28   C31   S    
C23   C27   S    
C36   N5    S    
H2    O13   S    
C8    O19   A    
C2    N6    S    
C32   N3    A    
Br4   C34   S    
O17   Zn2   S    
H10   O10   S    
C30   O13   S    
C34   C36   A    
C21   C24   A    
Br1   C19   S    
C28   O7    D    
C1    O1    A    
H6    O2    S    
C14   C23   A    
O19   Zn1   S    
O12   Zn2   S    
C2    C35   A    
O1    Zn1   S    
C1    O14   A    
C24   C31   A    
H9    O8    S    
C17   C25   S    
C25   O2    S    
C33   N4    A    
C7    O18   A    
C29   O9    D    
C27   O5    D    
O15   Zn1   S    
C3    C5    A    
C32   H5    S    
C6    N4    A    
C4    C6    A    
C33   H4    S    
C14   C16   A    
C12   O15   A    
O16   Zn1   S    
C7    C9    S    
Br2   C18   S    
C8    C10   S    
C20   N1    S    
C5    N3    A    
C30   O11   D    
C25   O20   D    
C9    C11   T    
Br3   C35   S    
H7    O4    S    
O18   Zn2   S    
C19   C21   A    
C22   H1    S    
C20   C22   A    
C8    O17   A    
C15   C17   A    
C26   O4    S    
O14   Zn2   S    
C32   C34   A    
N3    Zn2   S    
N5    N6    D    
C29   O10   S    
C10   C13   T    
C11   C13   S    
C16   C18   A    
C17   C19   A    
C15   C31   A    
C7    O16   A    
C2    C4    A    
C1    C14   S    
C3    C29   S    
C4    C30   S    
