data_mof_unit_66320.cif
_audit_creation_date              2013-03-05T16:11:11-0500
_audit_creation_method            fapswitch 2.2
_symmetry_space_group_name_H-M    P1
_symmetry_Int_Tables_number       1
_space_group_crystal_system       triclinic
_cell_length_a                    44.190646
_cell_length_b                    30.453253
_cell_length_c                    30.387292
_cell_angle_alpha                 89.798591
_cell_angle_beta                  133.517511
_cell_angle_gamma                 90.134295
_cell_volume                      29654.4289716

loop_
_atom_site_label
_atom_site_type_symbol
_atom_site_description
_atom_site_fract_x
_atom_site_fract_y
_atom_site_fract_z
_atom_type_partial_charge
O1    O     O_R   0.500000 0.962790 0.564270 -0.560735
O2    O     O_R   0.500000 0.962790 0.435730 -0.581308
O3    O     O_R   0.000000 0.462790 0.564270 -0.559473
O4    O     O_R   1.000000 0.462790 0.435730 -0.581032
O5    O     O_R   0.499990 0.037210 0.564290 -0.572717
O6    O     O_R   0.500010 0.037210 0.435710 -0.576309
O7    O     O_R   0.999990 0.537210 0.564290 -0.573758
O8    O     O_R   0.000010 0.537210 0.435710 -0.576813
C1    C     C_R   0.501162 0.999924 0.586232 0.781293
C2    C     C_R   0.500392 0.000173 0.415255 0.811091
C3    C     C_R   0.001159 0.499924 0.586229 0.781975
C4    C     C_R   0.000391 0.500174 0.415254 0.809978
O9    O     O_R   0.439720 0.962790 0.439720 -0.570839
O10   O     O_R   0.560280 0.962790 0.560280 -0.579752
O11   O     O_R   0.939720 0.462790 0.439720 -0.568284
O12   O     O_R   0.060280 0.462790 0.560280 -0.579386
O13   O     O_R   0.439710 0.037210 0.439740 -0.565831
O14   O     O_R   0.560290 0.037210 0.560260 -0.549180
O15   O     O_R   0.939710 0.537210 0.439740 -0.567642
O16   O     O_R   0.060290 0.537210 0.560260 -0.549028
C5    C     C_R   0.420092 0.000008 0.420075 0.809803
C6    C     C_R   0.579910 0.000006 0.579944 0.805957
C7    C     C_R   0.920091 0.500006 0.420078 0.809016
C8    C     C_R   0.079909 0.500006 0.579941 0.805547
Cu1   Cu    Cu3+1 0.500000 0.955930 0.500000 1.048947
Cu2   Cu    Cu3+1 0.000000 0.455930 0.500000 1.052732
Cu3   Cu    Cu3+1 0.500000 0.044060 0.500000 1.068885
Cu4   Cu    Cu3+1 1.000000 0.544060 0.500000 1.066283
C9    C     C_3   0.275524 0.955612 0.292285 -0.630462
C10   C     C_3   0.724378 0.976824 0.683022 -0.626830
C11   C     C_3   0.775540 0.452711 0.279284 -0.631173
C12   C     C_3   0.224439 0.478895 0.682194 -0.631594
C13   C     C_3   0.274843 0.038881 0.307559 0.570148
C14   C     C_3   0.725142 0.050882 0.724994 0.559255
C15   C     C_3   0.774819 0.528152 0.317180 0.570262
C16   C     C_3   0.225113 0.550922 0.727542 0.563489
C17   C     C_3   0.225438 0.036418 0.260475 -0.000660
C18   C     C_3   0.774527 0.050503 0.770994 -0.006708
C19   C     C_3   0.725415 0.525098 0.269296 -0.001835
C20   C     C_3   0.274518 0.550790 0.773527 -0.000877
H1    H     H_    0.288939 0.947204 0.338090 0.281178
H2    H     H_    0.710820 0.991197 0.639306 0.279399
H3    H     H_    0.788949 0.435641 0.321488 0.281472
H4    H     H_    0.210949 0.494686 0.639229 0.280704
H5    H     H_    0.213246 0.068326 0.235722 0.214209
H6    H     H_    0.786729 0.066829 0.813301 0.230180
H7    H     H_    0.713210 0.559195 0.253933 0.211952
H8    H     H_    0.286730 0.565708 0.816573 0.216626
C21   C     C_1   0.124665 0.000092 0.124941 -0.020215
C22   C     C_1   0.875326 0.000419 0.875099 -0.013039
C23   C     C_1   0.624664 0.499918 0.124937 -0.020315
C24   C     C_1   0.375335 0.500496 0.875131 -0.022450
C25   C     C_3   0.291535 0.001332 0.292837 -0.100491
C26   C     C_3   0.708476 0.001880 0.708356 -0.075885
C27   C     C_3   0.791533 0.500890 0.293206 -0.100001
C28   C     C_3   0.208464 0.501950 0.708563 -0.101083
C29   C     C_3   0.226293 0.952998 0.241406 0.628079
C30   C     C_3   0.773623 0.973863 0.731620 0.600788
C31   C     C_3   0.726309 0.450619 0.227713 0.628477
C32   C     C_3   0.273672 0.475977 0.730792 0.626103
C33   C     C_3   0.208524 0.000122 0.210709 -0.187873
C34   C     C_3   0.791460 0.001512 0.789656 -0.152492
C35   C     C_3   0.708522 0.499410 0.210667 -0.187789
C36   C     C_3   0.291473 0.501829 0.789997 -0.185598
C37   C     C_3   0.225216 0.013442 0.180002 0.583576
C38   C     C_3   0.775081 0.980920 0.818027 0.600342
C39   C     C_3   0.725215 0.525397 0.185525 0.584266
C40   C     C_3   0.274858 0.479357 0.817245 0.581831
C41   C     C_3   0.274047 0.008336 0.227806 0.214758
C42   C     C_3   0.726057 0.976688 0.766849 0.140630
C43   C     C_3   0.774049 0.520829 0.231970 0.214172
C44   C     C_3   0.226029 0.474819 0.765776 0.217819
C45   C     C_1   0.162288 0.000070 0.163295 0.185642
C46   C     C_1   0.837700 0.000870 0.836867 0.256734
C47   C     C_1   0.662287 0.499664 0.163265 0.185268
C48   C     C_1   0.337712 0.501044 0.837001 0.185510
C49   C     C_1   0.337714 0.000503 0.338229 0.079220
C50   C     C_1   0.662292 0.000682 0.662350 0.086330
C51   C     C_1   0.837713 0.500351 0.338413 0.079273
C52   C     C_1   0.162285 0.500707 0.662446 0.082221
C53   C     C_1   0.375336 0.000107 0.375504 -0.109992
C54   C     C_1   0.624669 0.000133 0.624743 -0.104553
C55   C     C_1   0.875335 0.500078 0.375582 -0.109899
C56   C     C_1   0.124664 0.500138 0.624779 -0.101225
H9    H     H_    0.282299 0.978590 0.216466 0.091250
H10   H     H_    0.717589 0.941321 0.754309 0.103385
H11   H     H_    0.782322 0.497755 0.213096 0.090449
H12   H     H_    0.217802 0.439637 0.751812 0.097395
H13   H     H_    0.289488 0.929835 0.284957 0.194198
H14   H     H_    0.710430 0.943350 0.668922 0.195220
H15   H     H_    0.789522 0.433919 0.265601 0.192955
H16   H     H_    0.210526 0.445453 0.666494 0.195364
C57   C     C_R   0.522127 0.967400 0.725847 -0.053488
C58   C     C_R   0.518977 0.033323 0.315067 -0.113373
C59   C     C_R   0.022124 0.467405 0.725845 -0.051482
C60   C     C_R   0.018950 0.533339 0.315040 -0.114370
H17   H     H_    0.538519 0.942334 0.760859 0.180025
H18   H     H_    0.533096 0.059831 0.310540 0.193279
H19   H     H_    0.038526 0.442348 0.760868 0.180671
H20   H     H_    0.033046 0.559860 0.310490 0.192983
C61   C     C_R   0.524403 0.967222 0.682231 0.401469
C62   C     C_R   0.518269 0.035449 0.360147 0.395174
C63   C     C_R   0.024404 0.467230 0.682232 0.402581
C64   C     C_R   0.018238 0.535465 0.360116 0.394556
C65   C     C_R   0.502683 0.999968 0.636154 -0.149953
C66   C     C_R   0.500421 0.000482 0.366826 -0.128663
C67   C     C_R   0.002672 0.499966 0.636142 -0.149412
C68   C     C_R   0.000421 0.500481 0.366825 -0.129074
C69   C     C_R   0.481199 0.033184 0.637248 -0.203789
C70   C     C_R   0.482959 0.964607 0.326922 -0.223458
C71   C     C_R   0.981167 0.533168 0.637214 -0.202449
C72   C     C_R   0.982989 0.464590 0.326951 -0.224082
H21   H     H_    0.464549 0.058580 0.602731 0.193657
H22   H     H_    0.468956 0.937572 0.330843 0.184288
H23   H     H_    0.964506 0.558555 0.602685 0.191938
H24   H     H_    0.969008 0.437541 0.330894 0.184725
C73   C     C_R   0.480200 0.033553 0.682048 -0.056756
C74   C     C_R   0.482700 0.963559 0.280851 -0.129073
C75   C     C_R   0.980164 0.533535 0.682010 -0.055898
C76   C     C_R   0.982732 0.463541 0.280882 -0.128937
H25   H     H_    0.463317 0.059333 0.681980 0.179890
H26   H     H_    0.468503 0.936034 0.249828 0.186028
H27   H     H_    0.963267 0.559306 0.681929 0.179165
H28   H     H_    0.968558 0.436003 0.249882 0.186383
C77   C     C_R   0.500412 0.000531 0.726229 0.146691
C78   C     C_R   0.500706 0.997926 0.274885 -0.000531
C79   C     C_R   0.000392 0.500525 0.726209 0.146521
C80   C     C_R   0.000709 0.497924 0.274888 -0.000347
C81   C     C_R   0.479869 0.966778 0.777001 0.299173
C82   C     C_R   0.524678 0.967269 0.226832 0.352295
C83   C     C_R   0.979860 0.466772 0.776995 0.299801
C84   C     C_R   0.024694 0.467278 0.226847 0.352200
C85   C     C_R   0.479650 0.966958 0.823257 0.192188
C86   C     C_R   0.523609 0.967542 0.179639 0.270913
C87   C     C_R   0.979648 0.466952 0.823257 0.191964
C88   C     C_R   0.023623 0.467550 0.179651 0.270768
C89   C     C_R   0.499848 0.001097 0.866448 -0.307672
C90   C     C_R   0.500006 0.999558 0.133357 -0.412460
C91   C     C_R   0.999845 0.501093 0.866445 -0.307547
C92   C     C_R   0.000007 0.499556 0.133357 -0.412402
C93   C     C_R   0.519533 0.035838 0.862837 0.283241
C94   C     C_R   0.476324 0.030766 0.133369 0.383641
C95   C     C_R   0.019522 0.535837 0.862823 0.283430
C96   C     C_R   0.976313 0.530754 0.133359 0.383518
C97   C     C_R   0.519734 0.035295 0.816599 0.372248
C98   C     C_R   0.474876 0.028662 0.177784 0.417957
C99   C     C_R   0.019715 0.535295 0.816576 0.372570
C100  C     C_R   0.974865 0.528648 0.177774 0.417902
C101  C     C_R   0.499671 0.001069 0.773935 -0.108284
C102  C     C_R   0.499823 0.997605 0.225653 -0.263126
C103  C     C_R   0.999654 0.501065 0.773917 -0.108422
C104  C     C_R   0.999827 0.497603 0.225656 -0.262953
O17   O     O_R   0.000000 0.935850 0.037210 -0.586664
O18   O     O_R   0.000000 0.935850 0.962790 -0.587308
O19   O     O_R   0.500000 0.435850 0.037210 -0.586818
O20   O     O_R   0.500000 0.435850 0.962790 -0.586773
C105  C     C_R   1.000000 0.914979 0.000064 0.825184
C106  C     C_R   0.500004 0.414979 0.000068 0.827017
O21   O     O_R   0.060280 0.000140 0.097490 -0.558397
O22   O     O_R   0.939720 0.000140 0.902510 -0.557284
O23   O     O_R   0.560280 0.500140 0.097490 -0.563030
O24   O     O_R   0.439720 0.500140 0.902510 -0.553761
O25   O     O_R   0.060280 0.000120 0.023100 -0.556297
O26   O     O_R   0.939720 0.000120 0.976900 -0.555215
O27   O     O_R   0.560280 0.500120 0.023100 -0.551280
O28   O     O_R   0.439720 0.500120 0.976900 -0.565038
C107  C     C_R   0.079926 0.000088 0.079980 0.827490
C108  C     C_R   0.920070 0.000092 0.920022 0.820543
C109  C     C_R   0.579926 0.500081 0.079980 0.828752
C110  C     C_R   0.420073 0.500096 0.920026 0.826717
Cu5   Cu    Cu3+1 0.000000 0.000140 0.044060 1.125170
Cu6   Cu    Cu3+1 0.000000 0.000140 0.955940 1.126395
Cu7   Cu    Cu3+1 0.500000 0.500140 0.044060 1.115065
Cu8   Cu    Cu3+1 0.500000 0.500140 0.955940 1.130374
O29   O     O_R   0.999990 0.064430 0.037200 -0.548494
O30   O     O_R   0.000010 0.064430 0.962800 -0.544137
O31   O     O_R   0.499990 0.564430 0.037200 -0.550113
O32   O     O_R   0.500010 0.564430 0.962800 -0.543385
C111  C     C_R   0.999989 0.085031 0.999919 0.907045
C112  C     C_R   0.499988 0.585031 0.999917 0.907715
O33   O     O_R   0.465110 0.064280 0.965140 -0.592376
O34   O     O_R   0.534890 0.064280 0.034860 -0.591995
O35   O     O_R   0.965110 0.564280 0.965140 -0.592471
O36   O     O_R   0.034890 0.564280 0.034860 -0.592067
C113  C     C_R   0.499999 0.085287 0.000027 0.784977
C114  C     C_R   0.999998 0.585287 0.000026 0.784918
O37   O     O_R   0.465110 0.999980 0.900850 -0.548606
O38   O     O_R   0.534890 0.999980 0.099150 -0.551140
O39   O     O_R   0.965110 0.499980 0.900850 -0.548750
O40   O     O_R   0.034890 0.499980 0.099150 -0.551267
O41   O     O_R   0.534890 0.999980 0.970630 -0.567392
O42   O     O_R   0.465110 0.999980 0.029370 -0.564855
O43   O     O_R   0.034890 0.499980 0.970630 -0.567086
O44   O     O_R   0.965110 0.499980 0.029370 -0.564825
C115  C     C_R   0.499965 0.000265 0.914870 0.866314
C116  C     C_R   0.500012 0.999963 0.085098 0.863407
C117  C     C_R   0.999965 0.500264 0.914870 0.866324
C118  C     C_R   0.000012 0.499962 0.085098 0.863354
Cu9   Cu    Cu3+1 0.458680 0.999980 0.958690 1.142555
Cu10  Cu    Cu3+1 0.541320 0.999980 0.041310 1.138436
Cu11  Cu    Cu3+1 0.958680 0.499980 0.958690 1.142344
Cu12  Cu    Cu3+1 0.041320 0.499980 0.041310 1.138649
O45   O     O_R   0.465110 0.935690 0.965100 -0.531453
O46   O     O_R   0.534890 0.935690 0.034900 -0.530010
O47   O     O_R   0.965110 0.435690 0.965100 -0.531467
O48   O     O_R   0.034890 0.435690 0.034900 -0.529959
C119  C     C_R   0.500007 0.914499 0.999909 0.947316
C120  C     C_R   0.000007 0.414499 0.999910 0.947262
C121  C     C_R   0.994185 0.797354 0.954745 0.437043
C122  C     C_R   0.005790 0.797201 0.045823 0.438275
C123  C     C_R   0.494191 0.297354 0.954754 0.437247
C124  C     C_R   0.505817 0.297203 0.045849 0.438787
C125  C     C_R   0.994339 0.843452 0.955120 -0.243749
C126  C     C_R   0.005637 0.843311 0.045304 -0.240022
C127  C     C_R   0.494343 0.343451 0.955127 -0.242523
C128  C     C_R   0.505662 0.343313 0.045327 -0.238739
H29   H     H_    0.989876 0.861168 0.920042 0.177364
H30   H     H_    0.010104 0.860926 0.080321 0.178521
H31   H     H_    0.489872 0.361167 0.920040 0.177480
H32   H     H_    0.510136 0.360928 0.080350 0.178415
C129  C     C_R   0.999989 0.866597 0.000173 -0.106513
C130  C     C_R   0.500000 0.366597 0.000185 -0.106323
C131  C     C_R   0.999985 0.774417 0.000316 0.107806
C132  C     C_R   0.500001 0.274418 0.000333 0.107030
C133  C     C_R   0.538087 0.202758 0.042852 0.342362
C134  C     C_R   0.461903 0.202813 0.957799 0.346357
C135  C     C_R   0.038077 0.702760 0.042846 0.343276
C136  C     C_R   0.961894 0.702809 0.957779 0.346226
C137  C     C_R   0.537468 0.156797 0.042455 -0.212984
C138  C     C_R   0.462525 0.156858 0.957955 -0.213196
C139  C     C_R   0.037461 0.656800 0.042453 -0.213415
C140  C     C_R   0.962520 0.656854 0.957940 -0.213599
H33   H     H_    0.566589 0.139037 0.074934 0.211986
H34   H     H_    0.433405 0.139141 0.925394 0.212163
H35   H     H_    0.066583 0.639042 0.074939 0.211918
H36   H     H_    0.933403 0.639134 0.925375 0.212096
C141  C     C_R   0.499998 0.133660 0.000133 -0.149773
C142  C     C_R   0.999995 0.633659 0.000128 -0.149812
C143  C     C_R   0.499995 0.226025 0.000374 -0.041505
C144  C     C_R   0.999983 0.726025 0.000359 -0.041563
C145  C     C_R   0.025018 0.202122 0.994857 -0.094210
C146  C     C_R   0.974825 0.202049 0.004158 -0.093589
C147  C     C_R   0.525045 0.702120 0.994913 -0.094962
C148  C     C_R   0.474789 0.702045 0.004092 -0.094298
H37   H     H_    0.044681 0.220222 0.991832 0.200415
H38   H     H_    0.955160 0.220092 0.007098 0.200461
H39   H     H_    0.544730 0.720220 0.991933 0.200075
H40   H     H_    0.455100 0.720087 0.006987 0.200473
C149  C     C_R   0.026280 0.156343 0.996667 0.289205
C150  C     C_R   0.973571 0.156274 0.002561 0.287061
C151  C     C_R   0.526309 0.656341 0.996728 0.288315
C152  C     C_R   0.473533 0.656270 0.002491 0.288791
C153  C     C_R   0.999946 0.133059 0.999708 -0.264146
C154  C     C_R   0.499942 0.633057 0.999704 -0.264705
C155  C     C_R   0.999938 0.224882 0.999490 0.077071
C156  C     C_R   0.499933 0.724879 0.999485 0.077438
C157  C     C_R   0.462726 0.796026 0.953761 0.231205
C158  C     C_R   0.537285 0.795887 0.045278 0.235477
C159  C     C_R   0.962726 0.296026 0.953779 0.231526
C160  C     C_R   0.037293 0.295888 0.045263 0.234999
C161  C     C_R   0.462467 0.842055 0.954527 0.227729
C162  C     C_R   0.537604 0.841927 0.044719 0.229974
C163  C     C_R   0.962466 0.342054 0.954544 0.227821
C164  C     C_R   0.037609 0.341928 0.044705 0.229971
C165  C     C_R   0.500029 0.865642 0.999731 -0.326736
C166  C     C_R   0.000031 0.365643 0.999732 -0.326571
C167  C     C_R   0.499984 0.773062 0.999502 -0.198882
C168  C     C_R   0.999988 0.273064 0.999504 -0.198803
N1    N     N_R   0.208824 0.937823 0.266353 0.211846
O49   O     O_R   0.170457 0.923786 0.229348 -0.252567
O50   O     O_R   0.231635 0.933162 0.324341 -0.246540
N2    N     N_R   0.790933 0.989817 0.706731 0.208613
O51   O     O_R   0.829370 0.980318 0.735091 -0.252222
O52   O     O_R   0.767913 0.008569 0.653743 -0.245940
N3    N     N_R   0.708835 0.424237 0.246760 0.212163
O53   O     O_R   0.670473 0.410366 0.205766 -0.252344
O54   O     O_R   0.731642 0.409984 0.302086 -0.245184
N4    N     N_R   0.291048 0.493722 0.706715 0.210000
O55   O     O_R   0.329422 0.484463 0.734534 -0.246903
O56   O     O_R   0.268149 0.514113 0.654832 -0.248104
O57   O     O_3   0.213420 0.921755 0.196870 -0.636290
H41   H     H_    0.232945 0.921294 0.191154 0.344652
O58   O     O_3   0.786590 0.929547 0.748504 -0.638597
H42   H     H_    0.767030 0.912694 0.747745 0.345984
O59   O     O_3   0.713459 0.429452 0.175684 -0.636866
H43   H     H_    0.732995 0.436046 0.170840 0.343953
O60   O     O_3   0.286614 0.431536 0.745786 -0.637549
H44   H     H_    0.267157 0.413989 0.744601 0.347020
O61   O     O_3   0.214670 0.057548 0.159837 -0.652328
H45   H     H_    0.184175 0.058818 0.123695 0.361275
O62   O     O_3   0.787128 0.008568 0.865186 -0.658814
H46   H     H_    0.782771 0.992592 0.888973 0.359662
O63   O     O_3   0.714643 0.570376 0.178032 -0.652184
H47   H     H_    0.684156 0.573144 0.142410 0.363444
O64   O     O_3   0.285425 0.505236 0.864747 -0.658826
H48   H     H_    0.315930 0.502382 0.900223 0.350085
O65   O     O_3   0.548959 0.935443 0.687519 -0.682752
H49   H     H_    0.559464 0.946763 0.669558 0.331832
O66   O     O_3   0.536729 0.071045 0.398306 -0.669251
H50   H     H_    0.514164 0.086820 0.391351 0.350093
O67   O     O_3   0.048976 0.435463 0.687538 -0.680418
H51   H     H_    0.059472 0.446786 0.669567 0.332276
O68   O     O_3   0.036664 0.571081 0.398240 -0.670027
H52   H     H_    0.014079 0.586839 0.391253 0.349551
O69   O     O_3   0.461437 0.933648 0.734273 -0.664354
H53   H     H_    0.455093 0.908257 0.747143 0.387740
O70   O     O_3   0.549586 0.936117 0.272174 -0.627928
H54   H     H_    0.553818 0.943617 0.307703 0.353117
O71   O     O_3   0.961431 0.433637 0.734273 -0.662486
H55   H     H_    0.955095 0.408245 0.747153 0.388199
O72   O     O_3   0.049616 0.436140 0.272204 -0.627637
H56   H     H_    0.053854 0.443650 0.307735 0.353117
N5    N     N_R   0.459238 0.932397 0.826751 0.138611
O73   O     O_R   0.480545 0.907170 0.874419 -0.347153
O74   O     O_R   0.419247 0.926367 0.782485 -0.247891
N6    N     N_R   0.545834 0.934216 0.178087 0.189358
O75   O     O_R   0.526274 0.909915 0.130054 -0.344469
O76   O     O_R   0.584633 0.925604 0.226187 -0.205664
N7    N     N_R   0.959241 0.432389 0.826760 0.138677
O77   O     O_R   0.980551 0.407168 0.874434 -0.346721
O78   O     O_R   0.919251 0.426353 0.782496 -0.247080
N8    N     N_R   0.045860 0.434233 0.178112 0.189463
O79   O     O_R   0.026309 0.409924 0.130088 -0.344192
O80   O     O_R   0.084662 0.425638 0.226213 -0.205382
O81   O     O_3   0.538229 0.070919 0.902694 -0.693423
H57   H     H_    0.528274 0.072889 0.923446 0.331348
O82   O     O_3   0.453889 0.063987 0.090669 -0.618158
H58   H     H_    0.465412 0.069757 0.072551 0.320103
O83   O     O_3   0.038219 0.570921 0.902676 -0.693457
H59   H     H_    0.028273 0.572887 0.923440 0.331266
O84   O     O_3   0.953867 0.563967 0.090648 -0.618721
H60   H     H_    0.965395 0.569748 0.072539 0.320042
O85   O     O_3   0.539359 0.067615 0.811654 -0.688215
H61   H     H_    0.552889 0.089223 0.844803 0.396821
O86   O     O_3   0.449151 0.058416 0.173136 -0.631286
H62   H     H_    0.443999 0.048855 0.198624 0.335232
O87   O     O_3   0.039332 0.567618 0.811618 -0.687956
H63   H     H_    0.052861 0.589228 0.844765 0.396844
O88   O     O_3   0.949128 0.558389 0.173113 -0.632552
H64   H     H_    0.943973 0.548818 0.198595 0.334543
O89   O     O_3   0.988768 0.773998 0.910842 -0.679362
H65   H     H_    0.985124 0.794910 0.882401 0.349390
O90   O     O_3   0.011216 0.773692 0.089804 -0.676317
H66   H     H_    0.014865 0.794509 0.118182 0.351171
O91   O     O_3   0.488766 0.273996 0.910845 -0.678870
H67   H     H_    0.485116 0.294908 0.882398 0.349736
O92   O     O_3   0.511254 0.273695 0.089841 -0.675624
H68   H     H_    0.514911 0.294512 0.118224 0.351536
N9    N     N_R   0.577580 0.225057 0.086315 0.154990
O93   O     O_R   0.584954 0.260963 0.071700 -0.304072
O94   O     O_R   0.608040 0.206890 0.138589 -0.276848
N10   N     N_R   0.422412 0.225169 0.914448 0.152675
O95   O     O_R   0.415064 0.260845 0.929222 -0.316363
O96   O     O_R   0.391932 0.207250 0.862110 -0.285100
N11   N     N_R   0.077566 0.725064 0.086312 0.154245
O97   O     O_R   0.084942 0.760966 0.071696 -0.308316
O98   O     O_R   0.108024 0.706901 0.138592 -0.279584
N12   N     N_R   0.922401 0.725161 0.914418 0.152577
O99   O     O_R   0.915047 0.760838 0.929182 -0.316321
O100  O     O_R   0.891928 0.707239 0.862079 -0.285768
N13   N     N_R   0.055625 0.134269 0.997965 0.153737
O101  O     O_R   0.079204 0.103170 0.037320 -0.354803
O102  O     O_R   0.063759 0.149953 0.967151 -0.280755
N14   N     N_R   0.944199 0.134130 0.001300 0.155739
O103  O     O_R   0.920662 0.103056 0.962098 -0.330020
O104  O     O_R   0.935999 0.149728 0.031958 -0.277834
N15   N     N_R   0.555688 0.634266 0.998099 0.153537
O105  O     O_R   0.579243 0.603163 0.037461 -0.358371
O106  O     O_R   0.563875 0.649956 0.967353 -0.281834
N16   N     N_R   0.444131 0.634123 0.001161 0.154884
O107  O     O_R   0.420622 0.603039 0.961959 -0.335269
O108  O     O_R   0.435877 0.649725 0.031750 -0.281275
N17   N     N_R   0.425004 0.772626 0.905611 0.164007
O109  O     O_R   0.424685 0.743675 0.873898 -0.268135
O110  O     O_R   0.390782 0.780401 0.892999 -0.228695
N18   N     N_R   0.575012 0.772321 0.093205 0.162108
O111  O     O_R   0.575449 0.743178 0.125062 -0.280375
O112  O     O_R   0.609120 0.780139 0.105467 -0.237990
N19   N     N_R   0.924998 0.272624 0.905648 0.163952
O113  O     O_R   0.924664 0.243668 0.873923 -0.268096
O114  O     O_R   0.890787 0.280401 0.893065 -0.228736
N20   N     N_R   0.075026 0.272323 0.093171 0.162453
O115  O     O_R   0.075481 0.243176 0.125041 -0.277393
O116  O     O_R   0.109122 0.280146 0.105403 -0.235818
N21   N     N_R   0.423909 0.864400 0.907519 0.187471
O117  O     O_R   0.401256 0.877698 0.917732 -0.263834
O118  O     O_R   0.407816 0.863699 0.852118 -0.196967
N22   N     N_R   0.576278 0.864121 0.091525 0.187376
O119  O     O_R   0.598401 0.878129 0.080581 -0.265774
O120  O     O_R   0.593089 0.862387 0.147290 -0.200426
N23   N     N_R   0.923904 0.364398 0.907548 0.187425
O121  O     O_R   0.901263 0.377696 0.917783 -0.263692
O122  O     O_R   0.907800 0.363704 0.852141 -0.196619
N24   N     N_R   0.076287 0.364123 0.091497 0.187324
O123  O     O_R   0.098395 0.378134 0.080529 -0.264739
O124  O     O_R   0.093111 0.362393 0.147268 -0.199752
O125  O     O_3   0.284754 0.080302 0.298996 -0.618349
H69   H     H_    0.315526 0.082607 0.326935 0.371293
O126  O     O_3   0.715266 0.070763 0.755823 -0.623088
H70   H     H_    0.684497 0.070698 0.728722 0.370836
O127  O     O_3   0.784712 0.573039 0.320900 -0.619722
H71   H     H_    0.815484 0.576067 0.349602 0.370582
O128  O     O_3   0.215228 0.568787 0.759291 -0.620742
H72   H     H_    0.184460 0.568495 0.732194 0.369853
N25   N     N_R   0.294455 0.035910 0.371343 0.146685
O129  O     O_R   0.287979 0.002479 0.390704 -0.271628
O130  O     O_R   0.317157 0.068122 0.408842 -0.271278
N26   N     N_R   0.705499 0.077007 0.669591 0.149825
O131  O     O_R   0.711992 0.068046 0.634848 -0.265090
O132  O     O_R   0.682776 0.111188 0.656179 -0.250466
N27   N     N_R   0.794428 0.513022 0.378426 0.147571
O133  O     O_R   0.787956 0.473755 0.387448 -0.268172
O134  O     O_R   0.817124 0.539817 0.424356 -0.274105
N28   N     N_R   0.205436 0.578716 0.673417 0.150469
O135  O     O_R   0.211865 0.571710 0.638213 -0.264849
O136  O     O_R   0.182738 0.612418 0.661683 -0.251564
N29   N     N_R   0.209101 0.034574 0.289587 0.178429
O137  O     O_R   0.219634 0.065748 0.327161 -0.204851
O138  O     O_R   0.176042 0.011807 0.266277 -0.266536
N30   N     N_R   0.790840 0.078472 0.751369 0.177371
O139  O     O_R   0.780254 0.119750 0.740144 -0.189470
O140  O     O_R   0.823947 0.067442 0.762437 -0.263304
N31   N     N_R   0.709072 0.510661 0.296119 0.177933
O141  O     O_R   0.719586 0.533047 0.341350 -0.208139
O142  O     O_R   0.676023 0.486078 0.266063 -0.269153
N32   N     N_R   0.290793 0.580362 0.755158 0.181766
O143  O     O_R   0.280200 0.621616 0.745820 -0.191333
O144  O     O_R   0.323875 0.570349 0.765673 -0.256760
O145  O     O_3   0.293111 0.044785 0.226555 -0.629623
H73   H     H_    0.287282 0.042462 0.188716 0.349135
O146  O     O_3   0.707243 0.991849 0.786982 -0.655347
H74   H     H_    0.710351 0.968168 0.812406 0.330308
O147  O     O_3   0.793096 0.561468 0.241688 -0.627531
H75   H     H_    0.787269 0.568149 0.204439 0.350264
O148  O     O_3   0.207006 0.487767 0.786389 -0.631450
H76   H     H_    0.212878 0.464318 0.814204 0.350981
O149  O     O_3   0.207231 0.986298 0.129569 -0.730076
H77   H     H_    0.216773 0.997365 0.110030 0.347494
O150  O     O_3   0.793481 0.939229 0.843000 -0.719297
H78   H     H_    0.780643 0.925712 0.856672 0.320453
O151  O     O_3   0.707253 0.508370 0.128775 -0.726167
H79   H     H_    0.716788 0.527093 0.113453 0.349220
O152  O     O_3   0.292890 0.437396 0.840699 -0.732892
H80   H     H_    0.283404 0.425743 0.860091 0.347737

loop_
_geom_bond_atom_site_label_1
_geom_bond_atom_site_label_2
_geom_bond_distance
_ccdc_geom_bond_type
N8    O80   1.301166 A    
C89   C115  1.467988 S    
C149  C153  1.417534 A    
N27   O134  1.302351 A    
C94   C98   1.395743 A    
C16   O128  1.415229 S    
C83   C103  1.404357 A    
O62   H46   0.992453 S    
C64   C68   1.418504 A    
C160  C164  1.402270 A    
C25   C41   1.562831 S    
C70   C74   1.392622 A    
C9    H13   1.113229 S    
O87   H63   0.989225 S    
O67   H51   0.989450 S    
C85   C89   1.411403 A    
C145  H37   1.083803 S    
C6    C54   1.434319 S    
N30   O139  1.302034 A    
C159  C163  1.402178 A    
C59   H19   1.083909 S    
C155  C168  1.467293 S    
C30   N2    1.478365 S    
C11   C31   1.580449 S    
C92   C118  1.466645 S    
C98   C102  1.418649 A    
C81   O69   1.384249 S    
O30   C111  1.293159 A    
C59   C63   1.396591 A    
N2    O51   1.302358 A    
C28   C44   1.562745 S    
O4    C4    1.301247 A    
C96   O84   1.383445 S    
C94   O82   1.383447 S    
O83   H59   0.988524 S    
C88   C92   1.411165 A    
C150  C153  1.417483 A    
Cu9   Cu10  2.648237 S    
O19   C106  1.297339 A    
N28   O136  1.302428 A    
C82   C86   1.401956 A    
O27   C109  1.294080 A    
C122  O90   1.381647 S    
O35   Cu11  1.968978 S    
O26   C108  1.294005 A    
C145  C149  1.394742 A    
C57   C61   1.396594 A    
C72   C76   1.392620 A    
C133  C143  1.417274 A    
O16   Cu4   1.943233 S    
O85   H61   0.989223 S    
O44   Cu11  1.962962 S    
C121  C125  1.403880 A    
O7    Cu4   1.964278 S    
N6    O75   1.300903 A    
O34   C113  1.288134 A    
C87   C91   1.411410 A    
C38   O150  1.413242 S    
C61   O65   1.379735 S    
C30   O58   1.416640 S    
C124  O92   1.381645 S    
C50   C54   1.205772 T    
O32   C112  1.293150 A    
O68   H52   0.990518 S    
C26   C42   1.562965 S    
C29   N1    1.478473 S    
C40   C44   1.572833 S    
N10   O95   1.301237 A    
C20   N32   1.478578 S    
O22   Cu6   1.943152 S    
O9    C5    1.296185 A    
O25   Cu6   1.942715 S    
Cu5   Cu6   2.677728 S    
C77   C101  1.472541 S    
C81   C85   1.412281 A    
C119  C165  1.487879 S    
N26   O132  1.302409 A    
C14   C26   1.585039 S    
N1    O50   1.301545 A    
O8    Cu4   1.965737 S    
C157  C161  1.402183 A    
C137  C141  1.400147 A    
C62   O66   1.373727 S    
C19   H7    1.113316 S    
O39   C117  1.284635 A    
C20   H8    1.113336 S    
C60   C64   1.393316 A    
O33   C113  1.288170 A    
C134  C143  1.417296 A    
O42   Cu9   1.962962 S    
O3    Cu2   1.964863 S    
C134  N10   1.441421 S    
C29   C33   1.591639 S    
C75   H27   1.083365 S    
C42   O146  1.408180 S    
C31   C35   1.591627 S    
C16   N28   1.483829 S    
C32   C36   1.591649 S    
O20   C106  1.296858 A    
N25   O129  1.300344 A    
C12   H16   1.113230 S    
Cu5   O29   1.968145 S    
C135  C144  1.417279 A    
C32   N4    1.478490 S    
O21   C107  1.293460 A    
C106  C130  1.473390 S    
C138  H34   1.083080 S    
C151  N15   1.438255 S    
O22   C108  1.293646 A    
O3    C3    1.297938 A    
N24   O123  1.301201 A    
O86   H62   0.988639 S    
C33   C37   1.588490 S    
C58   C62   1.393323 A    
N32   O143  1.302040 A    
C63   C67   1.421291 A    
O16   C8    1.295656 A    
C27   C43   1.562864 S    
C18   C34   1.588174 S    
C135  C139  1.399771 A    
N7    O78   1.301034 A    
N9    O93   1.301236 A    
C157  C167  1.406695 A    
C31   O59   1.416576 S    
O127  H71   0.992455 S    
C38   C42   1.577572 S    
O145  H73   0.993023 S    
C81   C101  1.404363 A    
C10   C26   1.555733 S    
C93   O81   1.384825 S    
C36   C40   1.588673 S    
C164  N24   1.433313 S    
C136  C144  1.417289 A    
C22   C46   1.205927 T    
N5    O74   1.301033 A    
O38   Cu10  1.964092 S    
C1    C65   1.471504 S    
O126  H70   0.992433 S    
C140  H36   1.083081 S    
N14   O103  1.301311 A    
C17   N29   1.478510 S    
C74   H26   1.083271 S    
C159  C168  1.406689 A    
C79   C103  1.472537 S    
C99   O87   1.384888 S    
C91   C95   1.419287 A    
C80   C104  1.469531 S    
O2    C2    1.301244 A    
C113  C141  1.473118 S    
N14   O104  1.301387 A    
N22   O119  1.301206 A    
C82   C102  1.418258 A    
C160  C168  1.406721 A    
C70   H22   1.083241 S    
O8    C4    1.295461 A    
O23   C109  1.293464 A    
C105  C129  1.473399 S    
C146  C155  1.395562 A    
C39   O63   1.414444 S    
C158  C162  1.402278 A    
C29   O57   1.416577 S    
N29   O138  1.300108 A    
N18   O112  1.301088 A    
O61   H45   0.992706 S    
C36   C48   1.482077 S    
C147  C151  1.394745 A    
C34   C38   1.585470 S    
O13   Cu3   1.943274 S    
O41   Cu10  1.962968 S    
C162  N22   1.433313 S    
C126  H30   1.083143 S    
O35   C114  1.288156 A    
O40   Cu12  1.964092 S    
C151  C154  1.417514 A    
O27   Cu8   1.942715 S    
C134  C138  1.399744 A    
C135  N11   1.441422 S    
C99   C103  1.405504 A    
O5    C1    1.297678 A    
O63   H47   0.992704 S    
C121  O89   1.381696 S    
O146  H74   0.993073 S    
C84   C88   1.401955 A    
C83   O71   1.384248 S    
C150  N14   1.438219 S    
C37   O149  1.411390 S    
N12   O100  1.301510 A    
O15   Cu4   1.943274 S    
N22   O120  1.300777 A    
N11   O98   1.301512 A    
C38   O62   1.414802 S    
O28   C110  1.293924 A    
C11   H15   1.113248 S    
C22   C108  1.433896 S    
C123  O91   1.381697 S    
C2    C66   1.472509 S    
O33   Cu9   1.968978 S    
C57   H17   1.083910 S    
C72   H24   1.083244 S    
C41   H9    1.117609 S    
C15   O127  1.415173 S    
N23   O122  1.300660 A    
N11   O97   1.301233 A    
C65   C69   1.404933 A    
C9    H1    1.102812 S    
O14   C6    1.295692 A    
C67   C71   1.404929 A    
C10   H2    1.102863 S    
C128  H32   1.083145 S    
C40   O152  1.411428 S    
C24   C48   1.205836 T    
O1    Cu1   1.964863 S    
C93   C97   1.411330 A    
C28   C52   1.480304 S    
C11   C27   1.555276 S    
O10   C6    1.296274 A    
N30   O140  1.300114 A    
O64   H48   0.992709 S    
O125  H69   0.992443 S    
C78   C102  1.469531 S    
C87   N7    1.435046 S    
O44   C118  1.284366 A    
C35   C47   1.482024 S    
C120  C166  1.487873 S    
C60   H20   1.083942 S    
C84   O72   1.384585 S    
C137  H33   1.083080 S    
O41   C115  1.285148 A    
C14   O126  1.415252 S    
C18   H6    1.113236 S    
C111  C153  1.462582 S    
N2    O52   1.301564 A    
O58   H42   0.990751 S    
Cu11  O47   1.968637 S    
N4    O55   1.302354 A    
C138  C141  1.400081 A    
C139  H35   1.083083 S    
N21   O118  1.300661 A    
C73   C77   1.398151 A    
O149  H77   0.993283 S    
Cu6   O30   1.969602 S    
C75   C79   1.398151 A    
C30   C34   1.591654 S    
N20   O115  1.301319 A    
N3    O53   1.302368 A    
C85   N5    1.435043 S    
C52   C56   1.205712 T    
C162  C165  1.421328 A    
C69   C73   1.392190 A    
N19   O113  1.301325 A    
N31   O142  1.300101 A    
N13   O102  1.301385 A    
O20   Cu8   1.968149 S    
C146  H38   1.083808 S    
O21   Cu5   1.943151 S    
C139  C142  1.400134 A    
O42   C116  1.284363 A    
N17   O110  1.301073 A    
C124  C132  1.406013 A    
O48   C120  1.290796 A    
C82   O70   1.384586 S    
C58   H18   1.083939 S    
C40   O64   1.414461 S    
C60   C80   1.397247 A    
N6    O76   1.301168 A    
O65   H49   0.989446 S    
C125  C129  1.403078 A    
N15   O105  1.301314 A    
N10   O96   1.301508 A    
C145  C155  1.395615 A    
Cu8   O32   1.969602 S    
C96   C100  1.395734 A    
C43   O147  1.408055 S    
N8    O79   1.300903 A    
C13   N25   1.483860 S    
N1    O49   1.302364 A    
Cu9   O45   1.968637 S    
C95   O83   1.384827 S    
C159  N19   1.438852 S    
N16   O107  1.301313 A    
C19   N31   1.478525 S    
O70   H54   0.988024 S    
C146  C150  1.394647 A    
C100  C104  1.418648 A    
O34   Cu10  1.968933 S    
O18   C105  1.296862 A    
C90   C94   1.415501 A    
O92   H68   0.991638 S    
C112  C154  1.462539 S    
C44   O148  1.408158 S    
C33   C45   1.482040 S    
Cu7   Cu8   2.677728 S    
C133  C137  1.399773 A    
C147  C156  1.395627 A    
C68   C72   1.405749 A    
O37   Cu9   1.964095 S    
C98   O86   1.384214 S    
C15   C19   1.586632 S    
O150  H78   0.993096 S    
C161  C165  1.421065 A    
O59   H43   0.990604 S    
C16   C28   1.585750 S    
C126  C129  1.403017 A    
C127  H31   1.083139 S    
C27   C51   1.480297 S    
O88   H64   0.988641 S    
O24   C110  1.293645 A    
O46   C119  1.290806 A    
C49   C53   1.205718 T    
O1    C1    1.297947 A    
N15   O106  1.301384 A    
C11   H3    1.102834 S    
C43   H11   1.117639 S    
C156  C167  1.467330 S    
C15   N27   1.483861 S    
C64   O68   1.373724 S    
C149  N13   1.438240 S    
N28   O135  1.300405 A    
C121  C131  1.405848 A    
C12   C32   1.580340 S    
C24   C110  1.433706 S    
C127  C130  1.403074 A    
C95   C99   1.411335 A    
C136  C140  1.399739 A    
O40   C118  1.285118 A    
C152  C154  1.417472 A    
N21   O117  1.301192 A    
C37   O61   1.414425 S    
C89   C93   1.419286 A    
O28   Cu7   1.942718 S    
C122  C131  1.406013 A    
C92   C96   1.415498 A    
O6    C2    1.295458 A    
N16   O108  1.301382 A    
C76   C80   1.398098 A    
C39   O151  1.411403 S    
C32   O60   1.416604 S    
C160  N20   1.438750 S    
C97   O85   1.384892 S    
O82   H58   0.989079 S    
O84   H60   0.989080 S    
C51   C55   1.205731 T    
N5    O73   1.300853 A    
C37   C41   1.572864 S    
C123  C132  1.405848 A    
C18   N30   1.478643 S    
N32   O144  1.300138 A    
O36   C114  1.288142 A    
O2    Cu1   1.963406 S    
C39   C43   1.572862 S    
O10   Cu1   1.942987 S    
O17   C105  1.297338 A    
O81   H57   0.988523 S    
C57   C77   1.399603 A    
O43   Cu12  1.962968 S    
N7    O77   1.300856 A    
C59   C79   1.399605 A    
N26   O131  1.300370 A    
C164  C166  1.421337 A    
O69   H53   0.988568 S    
N27   O133  1.300364 A    
C14   N26   1.483923 S    
C34   C46   1.482174 S    
C90   C116  1.466648 S    
C13   O125  1.415182 S    
C12   C28   1.555181 S    
C10   H14   1.113147 S    
C97   C101  1.405506 A    
C23   C109  1.433660 S    
C26   C50   1.480452 S    
O13   C5    1.295723 A    
C163  C166  1.421062 A    
C123  C127  1.403876 A    
O90   H66   0.991640 S    
C13   C25   1.585488 S    
Cu11  Cu12  2.648237 S    
O15   C7    1.295775 A    
O128  H72   0.992424 S    
O66   H50   0.990512 S    
N29   O137  1.302017 A    
N23   O121  1.301188 A    
O71   H55   0.988571 S    
C163  N23   1.433012 S    
C41   O145  1.408066 S    
C71   C75   1.392192 A    
N3    O54   1.301570 A    
C23   C47   1.205818 T    
C21   C107  1.433668 S    
C147  H39   1.083802 S    
C83   C87   1.412286 A    
C131  C144  1.473714 S    
N25   O130  1.302338 A    
O43   C117  1.285155 A    
N19   O114  1.301070 A    
C152  N16   1.438233 S    
O23   Cu7   1.943151 S    
C100  O88   1.384211 S    
C73   H25   1.083363 S    
C114  C142  1.473112 S    
O60   H44   0.990677 S    
C31   N3    1.478503 S    
C88   N8    1.437217 S    
C69   H21   1.083418 S    
O19   Cu7   1.969604 S    
C161  N21   1.433015 S    
C4    C68   1.472521 S    
N9    O94   1.301511 A    
O5    Cu3   1.964278 S    
C140  C142  1.400086 A    
O9    Cu1   1.942945 S    
C158  C167  1.406737 A    
C44   H12   1.117615 S    
C58   C78   1.397249 A    
C61   C65   1.421288 A    
C35   C39   1.588501 S    
O4    Cu2   1.963406 S    
O36   Cu12  1.968933 S    
C15   C27   1.585431 S    
C124  C128  1.404213 A    
C16   C20   1.586736 S    
N31   O141  1.302052 A    
C158  N18   1.438745 S    
O11   Cu2   1.942945 S    
O29   C111  1.293042 A    
O72   H56   0.988025 S    
O39   Cu11  1.964095 S    
O57   H41   0.990599 S    
C122  C126  1.404212 A    
O45   C119  1.291086 A    
C125  H29   1.083138 S    
O25   C107  1.294087 A    
Cu10  O46   1.968674 S    
O7    C3    1.297680 A    
O6    Cu3   1.965737 S    
Cu7   O31   1.968145 S    
O31   C112  1.293028 A    
C148  H40   1.083811 S    
O17   Cu5   1.969604 S    
C12   H4    1.102868 S    
O18   Cu6   1.968149 S    
C157  N17   1.438851 S    
N24   O124  1.300778 A    
C5    C53   1.434256 S    
C3    C67   1.471493 S    
C25   C49   1.480274 S    
C7    C55   1.434284 S    
N4    O56   1.301611 A    
C42   H10   1.117979 S    
C86   N6    1.437212 S    
N18   O111  1.301320 A    
C13   C17   1.586629 S    
C66   C70   1.405745 A    
O47   C120  1.291092 A    
N20   O116  1.301086 A    
C148  C152  1.394658 A    
O37   C115  1.284640 A    
C14   C18   1.586079 S    
O14   Cu3   1.943233 S    
C9    C29   1.580409 S    
O12   Cu2   1.942987 S    
C86   C90   1.411159 A    
C17   C33   1.586988 S    
C91   C117  1.467999 S    
O24   Cu8   1.943152 S    
Cu1   Cu3   2.683845 S    
C19   C35   1.587037 S    
N13   O101  1.301315 A    
Cu2   Cu4   2.683845 S    
C20   C36   1.586993 S    
C136  N12   1.441422 S    
C8    C56   1.434214 S    
O152  H80   0.993412 S    
N17   O109  1.301323 A    
O151  H79   0.993311 S    
C9    C25   1.555203 S    
C84   C104  1.418257 A    
C10   C30   1.580800 S    
O11   C7    1.296146 A    
C133  N9    1.441435 S    
C62   C66   1.418504 A    
C21   C45   1.205823 T    
N12   O99   1.301234 A    
C132  C143  1.473711 S    
C128  C130  1.403011 A    
O148  H76   0.993103 S    
C148  C156  1.395584 A    
C63   O67   1.379733 S    
O38   C116  1.285126 A    
O12   C8    1.296259 A    
O147  H75   0.993065 S    
Cu12  O48   1.968674 S    
O89   H65   0.991642 S    
O26   Cu5   1.942718 S    
C71   H23   1.083416 S    
C74   C78   1.398103 A    
O91   H67   0.991642 S    
C17   H5    1.113305 S    
C76   H28   1.083272 S    
