data_mof_unit_26919.cif
_audit_creation_date              2012-12-10T17:23:12-0500
_audit_creation_method            fapswitch 2.2
_symmetry_space_group_name_H-M    P1
_symmetry_Int_Tables_number       1
_space_group_crystal_system       triclinic
_cell_length_a                    15.850446
_cell_length_b                    10.783956
_cell_length_c                    9.634562
_cell_angle_alpha                 91.518761
_cell_angle_beta                  89.809441
_cell_angle_gamma                 93.188972
_cell_volume                      1643.71000136

loop_
_atom_site_label
_atom_site_type_symbol
_atom_type_description
_atom_site_fract_x
_atom_site_fract_y
_atom_site_fract_z
_atom_type_partial_charge
C1    C     C_R   0.500236 0.262871 0.498011 0.757941
C2    C     C_3   0.082874 0.500385 0.500832 0.121457
C3    C     C_3   0.974269 0.569843 0.609735 -0.171524
C4    C     C_3   0.917316 0.501720 0.500087 0.126232
C5    C     C_3   0.032566 0.616897 0.491452 0.316425
C6    C     C_3   0.974299 0.550136 0.381707 -0.175873
C7    C     C_1   0.174606 0.499547 0.500866 0.010224
C8    C     C_1   0.825531 0.501534 0.499655 -0.037758
C9    C     C_R   0.344913 0.130802 0.570568 -0.108527
C10   C     C_R   0.273070 0.070740 0.624458 -0.141954
C11   C     C_R   0.275218 0.948051 0.662279 -0.079928
C12   C     C_R   0.339982 0.498992 0.500106 0.809594
C13   C     C_R   0.347743 0.881786 0.640344 0.214023
C14   C     C_R   0.418438 0.936138 0.566116 0.015319
C15   C     C_R   0.418463 0.065846 0.543558 0.066499
C16   C     C_R   0.492061 0.128815 0.493502 -0.060311
C17   C     C_R   0.560060 0.064251 0.444824 -0.199811
C18   C     C_R   0.556986 0.936294 0.449419 -0.154420
C19   C     C_R   0.488233 0.871074 0.510454 -0.063552
C20   C     C_R   0.612563 0.664254 0.152640 -0.095252
C21   C     C_R   0.667803 0.747504 0.088440 -0.337934
C22   C     C_R   0.669090 0.751606 0.946939 -0.204647
C23   C     C_R   0.491598 0.736376 0.502783 0.844355
C24   C     C_R   0.615569 0.672528 0.867186 0.671875
C25   C     C_R   0.556046 0.583272 0.928338 -0.024082
C26   C     C_R   0.555530 0.581549 0.078093 0.130724
C27   C     C_R   0.447315 0.422599 0.071657 -0.120679
C28   C     C_R   0.447251 0.422459 0.924185 0.712289
C29   C     C_R   0.660012 0.500204 0.499811 0.848143
C30   C     C_3   0.967127 0.384037 0.509584 -0.144855
C31   C     C_3   0.025701 0.432444 0.391390 -0.196984
C32   C     C_1   0.250204 0.499111 0.500575 -0.104706
C33   C     C_1   0.749866 0.500985 0.499506 -0.154839
C34   C     C_3   0.025693 0.452120 0.619025 -0.191389
Cu1   Cu    Cu3+1 0.499990 0.499990 0.640660 1.077122
Cu2   Cu    Cu3+1 0.500010 0.500010 0.359340 0.960436
H1    H     H_    0.048009 0.375881 0.302033 0.158847
H2    H     H_    0.221245 0.906256 0.716411 0.192358
H3    H     H_    0.609922 0.887601 0.407763 0.138102
H4    H     H_    0.404015 0.358918 0.124975 0.164395
H5    H     H_    0.618161 0.670180 0.261752 0.209917
H6    H     H_    0.710148 0.809481 0.149405 0.179322
H7    H     H_    0.712876 0.817449 0.897368 0.181676
H8    H     H_    0.938792 0.287957 0.517044 0.151492
H9    H     H_    0.952162 0.590969 0.284658 0.158789
H10   H     H_    0.952107 0.626812 0.698878 0.160732
H11   H     H_    0.048006 0.411730 0.716206 0.159893
H12   H     H_    0.615802 0.113256 0.403527 0.141322
H13   H     H_    0.341839 0.228152 0.547839 0.134615
H14   H     H_    0.216950 0.121416 0.643831 0.161786
N1    N     N_R   0.500800 0.501210 0.147910 -0.216617
N2    N     N_R   0.500830 0.501290 0.852040 -0.226180
O1    O     O_R   0.499990 0.319640 0.618810 -0.537089
O2    O     O_R   0.500000 0.319660 0.381240 -0.586515
O3    O     O_R   0.379070 0.499980 0.618770 -0.500754
O4    O     O_R   0.379080 0.500000 0.381190 -0.583085
O5    O     O_R   0.500000 0.680340 0.618760 -0.475283
O6    O     O_R   0.500010 0.680360 0.381190 -0.607554
O7    O     O_R   0.620920 0.500000 0.618810 -0.517638
O8    O     O_R   0.620930 0.500020 0.381230 -0.612961
Br1   Br    Br    0.349050 0.740749 0.755856 -0.483986
F1    F     F_    0.627853 0.691675 0.732250 -0.664728
F2    F     F_    0.392711 0.342545 0.854073 -0.653066
Br2   Br    Br    0.080900 0.785118 0.478531 -0.541420

loop_
_geom_bond_atom_site_label_1
_geom_bond_atom_site_label_2
_ccdc_geom_bond_type
C17   C18   A    
C11   H2    S    
C19   C23   S    
C18   H3    S    
C29   O8    A    
Cu2   O4    S    
C6    H9    S    
Cu1   O1    S    
C28   N2    A    
C9    C10   A    
C29   O7    A    
C3    H10   S    
C26   N1    A    
C22   H7    S    
C17   H12   S    
C4    C8    S    
C27   H4    S    
Cu1   O5    S    
C20   C21   A    
C2    C34   S    
C6    C31   S    
C9    C15   A    
C25   N2    A    
C9    H13   S    
C1    C16   S    
C21   C22   A    
C12   C32   S    
C11   C13   A    
C30   C31   S    
C30   H8    S    
C34   H11   S    
C12   O4    A    
Cu2   N1    S    
C20   C26   A    
C1    O2    A    
C4    C6    S    
C27   N1    A    
C20   H5    S    
C23   O6    A    
Cu2   O6    S    
C8    C33   T    
C5    C6    S    
C22   C24   A    
C2    C5    S    
Cu2   O2    S    
C10   C11   A    
C30   C34   S    
Cu1   O3    S    
C15   C16   A    
C12   O3    A    
C28   F2    S    
C29   C33   S    
Cu1   N2    S    
C13   Br1   S    
C24   C25   A    
Cu1   O7    S    
C18   C19   A    
C27   C28   A    
C23   O5    A    
C1    O1    A    
C14   C15   A    
C16   C17   A    
C24   F1    S    
C7    C32   T    
C3    C34   S    
C3    C5    S    
C25   C26   A    
C13   C14   A    
C14   C19   A    
C21   H6    S    
C4    C30   S    
C3    C4    S    
C2    C7    S    
C5    Br2   S    
C31   H1    S    
C2    C31   S    
Cu2   O8    S    
Cu1   Cu2   S    
C10   H14   S    
