data_mof_unit_59489.cif
_audit_creation_date              2013-03-05T15:49:57-0500
_audit_creation_method            fapswitch 2.2
_symmetry_space_group_name_H-M    P1
_symmetry_Int_Tables_number       1
_space_group_crystal_system       triclinic
_cell_length_a                    6.942271
_cell_length_b                    19.84252
_cell_length_c                    23.709706
_cell_angle_alpha                 93.158575
_cell_angle_beta                  91.191887
_cell_angle_gamma                 88.121104
_cell_volume                      3258.75767016

loop_
_atom_site_label
_atom_site_type_symbol
_atom_site_description
_atom_site_fract_x
_atom_site_fract_y
_atom_site_fract_z
_atom_type_partial_charge
O1    O     O_R   0.620100 0.812200 0.810870 -0.566642
O2    O     O_R   0.379900 0.187800 0.189130 -0.570723
O3    O     O_R   0.296960 0.671650 0.794750 -0.591251
O4    O     O_R   0.703040 0.328350 0.205250 -0.592970
O5    O     O_R   0.120160 0.687800 0.689130 -0.601895
O6    O     O_R   0.879840 0.312200 0.310870 -0.595685
C1    C     C_R   0.469407 0.646539 0.804563 1.027649
C2    C     C_R   0.530568 0.353459 0.195445 1.024797
O7    O     O_R   0.290810 0.810670 0.817290 -0.582197
O8    O     O_R   0.709190 0.189330 0.182710 -0.582640
O9    O     O_R   0.113980 0.827820 0.711840 -0.573068
O10   O     O_R   0.886020 0.172180 0.288160 -0.572320
C3    C     C_R   0.458735 0.832234 0.833945 1.058942
C4    C     C_R   0.541258 0.167814 0.166024 1.060122
O11   O     O_R   0.626290 0.672180 0.788160 -0.587403
O12   O     O_R   0.373710 0.327820 0.211840 -0.589864
O13   O     O_3   0.451520 0.755460 0.715370 -0.271078
O14   O     O_3   0.548480 0.244540 0.284630 -0.265598
V1    V     V_3+5 0.179200 0.748980 0.756420 1.267959
V2    V     V_3+5 0.820800 0.251020 0.243580 1.266193
O15   O     O_R   0.783880 0.828350 0.705250 -0.564839
O16   O     O_R   0.216120 0.171650 0.294750 -0.565144
C5    C     C_R   0.948330 0.854492 0.696441 1.027991
C6    C     C_R   0.051665 0.145495 0.303545 1.028181
O17   O     O_R   0.790030 0.689320 0.682700 -0.585267
O18   O     O_R   0.209970 0.310680 0.317300 -0.580430
C7    C     C_R   0.959469 0.668114 0.665741 0.997340
C8    C     C_R   0.040635 0.331916 0.334199 0.995202
V3    V     V_3+5 0.678400 0.751010 0.743570 1.281706
V4    V     V_3+5 0.321600 0.248990 0.256430 1.281284
O19   O     O_3   0.955950 0.744540 0.784620 -0.272391
O20   O     O_3   0.044050 0.255460 0.215380 -0.279263
C9    C     C_R   0.876332 0.429109 0.387410 -0.029215
C10   C     C_R   0.131262 0.574545 0.610098 -0.101181
C11   C     C_R   0.030404 0.381772 0.383170 -0.186650
C12   C     C_R   0.971179 0.619205 0.616084 -0.167497
C13   C     C_R   0.175136 0.382561 0.425478 -0.073843
C14   C     C_R   0.823470 0.616848 0.574632 -0.084313
C15   C     C_R   0.170152 0.430991 0.471515 0.002724
C16   C     C_R   0.837438 0.572171 0.526238 -0.014574
C17   C     C_R   0.011833 0.478179 0.475347 0.045318
C18   C     C_R   0.997671 0.525947 0.521804 0.065301
C19   C     C_R   0.865459 0.476915 0.433160 0.134896
C20   C     C_R   0.143445 0.527145 0.564106 0.141290
C21   C     C_R   0.315057 0.432562 0.514762 0.319132
C22   C     C_R   0.694064 0.571337 0.482706 0.295745
C23   C     C_R   0.299612 0.480766 0.560206 -0.262432
C24   C     C_R   0.708966 0.523211 0.437217 -0.216937
H1    H     H_    0.764479 0.428742 0.354888 0.171337
H2    H     H_    0.244720 0.575610 0.642146 0.175877
H3    H     H_    0.287787 0.343818 0.422475 0.187162
H4    H     H_    0.698659 0.650305 0.580531 0.171911
H5    H     H_    0.411531 0.482133 0.592801 0.204642
H6    H     H_    0.598354 0.522581 0.404243 0.210141
C25   C     C_R   0.941847 0.918008 0.665608 -0.228320
C26   C     C_R   0.058095 0.081967 0.334365 -0.228964
C27   C     C_R   0.867483 0.038685 0.660179 0.316606
C28   C     C_R   0.132305 0.961275 0.339781 0.316686
C29   C     C_R   0.867919 0.979657 0.690890 -0.254136
C30   C     C_R   0.132010 0.020316 0.309084 -0.253408
C31   C     C_R   0.996521 0.915690 0.608718 -0.115185
C32   C     C_R   0.003224 0.084264 0.391235 -0.114851
C33   C     C_R   0.968661 0.972294 0.574804 0.126384
C34   C     C_R   0.030993 0.027654 0.425146 0.126847
C35   C     C_R   0.921822 0.035241 0.602860 -0.059462
C36   C     C_R   0.077847 0.964708 0.397092 -0.060375
C37   C     C_R   0.992690 0.969154 0.514434 -0.092620
C38   C     C_R   0.006887 0.030791 0.485512 -0.091940
C39   C     C_R   0.998808 0.093033 0.518357 0.319941
C40   C     C_R   0.000708 0.906912 0.481587 0.314744
C41   C     C_R   0.937781 0.094481 0.574071 -0.168050
C42   C     C_R   0.061780 0.905463 0.425874 -0.163763
H7    H     H_    0.920149 0.143233 0.596427 0.225439
H8    H     H_    0.079388 0.856713 0.403514 0.225310
H9    H     H_    0.938243 0.131012 0.408155 0.146747
H10   H     H_    0.061411 0.868933 0.591782 0.145740
C43   C     C_R   0.493124 0.583102 0.834623 -0.296143
C44   C     C_R   0.506657 0.416891 0.165414 -0.296057
C45   C     C_R   0.621521 0.467444 0.838708 0.248725
C46   C     C_R   0.376848 0.532374 0.161335 0.250296
C47   C     C_R   0.588670 0.526277 0.808582 0.247718
C48   C     C_R   0.410452 0.473583 0.191456 0.246356
C49   C     C_R   0.450709 0.582960 0.892171 -0.206209
C50   C     C_R   0.548858 0.417065 0.107856 -0.208880
C51   C     C_R   0.505693 0.527506 0.925034 0.122076
C52   C     C_R   0.492803 0.472403 0.074992 0.132463
C53   C     C_R   0.564994 0.466230 0.896087 -0.172872
C54   C     C_R   0.433048 0.533624 0.103942 -0.174670
C55   C     C_R   0.497272 0.530604 0.985572 0.012529
C56   C     C_R   0.500571 0.469245 0.014440 0.018703
C57   C     C_R   0.503048 0.406852 0.981638 -0.256306
C58   C     C_R   0.494275 0.592986 0.018428 -0.253125
C59   C     C_R   0.553619 0.405184 0.924101 0.305186
C60   C     C_R   0.443637 0.594655 0.075890 0.307148
H11   H     H_    0.622706 0.372908 0.088951 0.132303
H12   H     H_    0.377024 0.627172 0.911024 0.137250
C61   C     C_R   0.679030 0.067062 0.108354 0.323232
C62   C     C_R   0.320938 0.933038 0.891567 0.328080
C63   C     C_R   0.532692 0.117747 0.117083 -0.301464
C64   C     C_R   0.467351 0.882385 0.882828 -0.295027
C65   C     C_R   0.375498 0.120558 0.078968 -0.151855
C66   C     C_R   0.624776 0.879708 0.920860 -0.203696
C67   C     C_R   0.361285 0.073888 0.032616 0.152963
C68   C     C_R   0.638867 0.926326 0.967241 0.155499
C69   C     C_R   0.507599 0.023729 0.023356 0.026555
C70   C     C_R   0.492462 0.976440 0.976529 0.035055
C71   C     C_R   0.668148 0.020461 0.061009 -0.040636
C72   C     C_R   0.331869 0.979680 0.938891 -0.042694
C73   C     C_R   0.202544 0.076747 0.995267 -0.144482
C74   C     C_R   0.797580 0.923448 0.004596 -0.157426
C75   C     C_R   0.188247 0.030539 0.948877 -0.105179
C76   C     C_R   0.811786 0.969609 0.051017 -0.103759
H13   H     H_    0.263756 0.159568 0.085359 0.157739
H14   H     H_    0.736679 0.840768 0.914431 0.169581
H15   H     H_    0.088922 0.114969 0.001878 0.155930
H16   H     H_    0.911231 0.885241 0.997972 0.159916
H17   H     H_    0.063784 0.035160 0.920969 0.187014
H18   H     H_    0.936214 0.964969 0.078936 0.186363
N1    N     N_R   0.558705 0.341584 0.892162 0.263707
O21   O     O_R   0.697958 0.297498 0.900371 -0.256751
O22   O     O_R   0.420272 0.326846 0.856202 -0.267769
N2    N     N_R   0.438297 0.658301 0.107742 0.262205
O23   O     O_R   0.577122 0.673316 0.143481 -0.271392
O24   O     O_R   0.297308 0.701874 0.100098 -0.249223
N3    N     N_R   0.343824 0.471368 0.248347 0.252625
O25   O     O_R   0.164509 0.486328 0.259840 -0.341468
O26   O     O_R   0.460418 0.452252 0.288488 -0.417201
N4    N     N_R   0.655093 0.528347 0.751651 0.252699
O27   O     O_R   0.834001 0.512786 0.740042 -0.337808
O28   O     O_R   0.538861 0.547909 0.711597 -0.422716
N5    N     N_R   0.723535 0.410860 0.811703 0.279014
O29   O     O_R   0.662293 0.384584 0.763383 -0.220476
O30   O     O_R   0.889098 0.390442 0.832360 -0.278351
N6    N     N_R   0.274198 0.588827 0.188329 0.278944
O31   O     O_R   0.108078 0.608854 0.167763 -0.277771
O32   O     O_R   0.335067 0.615174 0.236666 -0.224427
C77   C     C_2   0.417453 0.345802 0.003744 1.057591
O33   O     O_2   0.498323 0.290326 0.997306 -0.599918
O34   O     O_R   0.243963 0.352497 0.032800 -0.779864
H19   H     H_    0.200799 0.307987 0.046490 0.320193
C78   C     C_2   0.579013 0.654311 0.996709 1.059932
O35   O     O_2   0.735738 0.649675 0.973932 -0.622651
O36   O     O_R   0.479809 0.716745 0.001512 -0.744910
H20   H     H_    0.552768 0.754106 0.984836 0.316056
N7    N     N_R   0.831982 0.060586 0.149315 0.228971
O37   O     O_R   0.006178 0.075868 0.136902 -0.447287
O38   O     O_R   0.792876 0.047255 0.200875 -0.378992
N8    N     N_R   0.167951 0.939475 0.850616 0.228421
O39   O     O_R   0.993756 0.924243 0.863066 -0.443175
O40   O     O_R   0.207018 0.952718 0.799031 -0.379250
N9    N     N_R   0.477126 0.385423 0.514285 0.245333
O41   O     O_R   0.542769 0.362243 0.561488 -0.277931
O42   O     O_R   0.578438 0.374173 0.469039 -0.416252
N10   N     N_R   0.535659 0.619889 0.482814 0.242079
O43   O     O_R   0.366612 0.601697 0.464077 -0.363947
O44   O     O_R   0.568053 0.684011 0.490352 -0.295461
C79   C     C_2   0.203995 0.015629 0.250229 1.172695
O45   O     O_2   0.314006 0.057336 0.234690 -0.619391
O46   O     O_R   0.151220 0.961897 0.213046 -0.683792
H21   H     H_    0.213184 0.963291 0.174790 0.347869
C80   C     C_2   0.795996 0.984356 0.749751 1.173153
O47   O     O_2   0.686028 0.942647 0.765310 -0.618560
O48   O     O_R   0.848753 0.038108 0.786917 -0.683307
H22   H     H_    0.786798 0.036728 0.825175 0.348814
N11   N     N_R   0.801529 0.101895 0.686442 0.245541
O49   O     O_R   0.925302 0.146193 0.704823 -0.252648
O50   O     O_R   0.618938 0.112954 0.695790 -0.302273
N12   N     N_R   0.198233 0.898064 0.313515 0.245533
O51   O     O_R   0.380820 0.886995 0.304168 -0.302447
O52   O     O_R   0.074439 0.853777 0.295125 -0.253340
N13   N     N_R   0.075063 0.153961 0.498996 0.227563
O53   O     O_R   0.245314 0.152514 0.476884 -0.373393
O54   O     O_R   0.990166 0.212138 0.511636 -0.332431
N14   N     N_R   0.924328 0.845998 0.500944 0.230652
O55   O     O_R   0.008964 0.787793 0.488239 -0.321032
O56   O     O_R   0.754159 0.847499 0.523110 -0.359083

loop_
_geom_bond_atom_site_label_1
_geom_bond_atom_site_label_2
_geom_bond_distance
_ccdc_geom_bond_type
C14   C16   1.413769 A    
N13   O53   1.301735 A    
C33   C35   1.413892 A    
C61   N7    1.431473 S    
N11   O49   1.301012 A    
C25   C29   1.417715 A    
C65   H13   1.084650 S    
C17   C18   1.415858 A    
C69   C70   1.418096 A    
O48   H22   1.014062 S    
O4    C2    1.303060 A    
V1    O19   1.707462 S    
N4    O27   1.301321 A    
C45   C53   1.425413 A    
N7    O37   1.299887 A    
C56   C57   1.425099 A    
C46   N6    1.435221 S    
C4    C63   1.486914 S    
C15   C17   1.421358 A    
C16   C22   1.418710 A    
N13   O54   1.301679 A    
O9    V1    1.971135 S    
C79   O45   1.220913 D    
C62   N8    1.431405 S    
C66   H14   1.084598 S    
C34   C38   1.442165 A    
C11   C13   1.404768 A    
C50   C52   1.420535 A    
O3    C1    1.302958 A    
C78   O36   1.397769 S    
C39   N13   1.437279 S    
C13   H3    1.079126 S    
C52   C54   1.416290 A    
N12   O52   1.301011 A    
C27   C29   1.412697 A    
C27   N11   1.434796 S    
C75   H17   1.081909 S    
C43   C49   1.402007 A    
C28   C30   1.412769 A    
O36   H20   1.013761 S    
C25   C31   1.406733 A    
C62   C72   1.416985 A    
C31   C33   1.422778 A    
C71   C76   1.409303 A    
C21   C23   1.404214 A    
C65   C67   1.401582 A    
C39   C41   1.394132 A    
O7    C3    1.301150 A    
N14   O55   1.301685 A    
C32   C34   1.422778 A    
C74   C76   1.396548 A    
C80   O48   1.398870 S    
O5    C7    1.297518 A    
O7    V1    2.000646 S    
C36   C42   1.400081 A    
C76   H18   1.081915 S    
C8    C11   1.484617 S    
O8    V2    2.000647 S    
C38   C39   1.423439 A    
N9    O41   1.301361 A    
O3    V1    1.972108 S    
O14   V4    1.699775 S    
C28   N12   1.434793 S    
C19   C24   1.400932 A    
C10   C12   1.403072 A    
C20   C23   1.400080 A    
C23   H5    1.084321 S    
C26   C32   1.406677 A    
C16   C18   1.420226 A    
C67   C73   1.400968 A    
C79   O46   1.398867 S    
C57   C77   1.491787 S    
C46   C54   1.425125 A    
C2    C44   1.482871 S    
C17   C19   1.410801 A    
N11   O50   1.300831 A    
C18   C20   1.409746 A    
C68   C70   1.410405 A    
N7    O38   1.300865 A    
C28   C36   1.415435 A    
O11   V3    1.982552 S    
C33   C37   1.442187 A    
C51   C53   1.416286 A    
C31   H10   1.078894 S    
O17   V3    1.992852 S    
C22   N10   1.438000 S    
C22   C24   1.403736 A    
C10   H2    1.082874 S    
C37   C38   1.441842 A    
C9    C19   1.402668 A    
C10   C20   1.402315 A    
C30   C79   1.489050 S    
C46   C48   1.411491 A    
C52   C56   1.435644 A    
C27   C35   1.415391 A    
C41   H7    1.081730 S    
C51   C55   1.435592 A    
C15   C21   1.421245 A    
N6    O32   1.301397 A    
C1    O11   1.293086 A    
C35   C41   1.400004 A    
O15   V3    1.992931 S    
C26   C30   1.417709 A    
C21   N9    1.439200 S    
C50   H11   1.080855 S    
C34   C36   1.413876 A    
C24   H6    1.084261 S    
C48   N3    1.438451 S    
C29   C80   1.489055 S    
C57   C59   1.414050 A    
C69   C71   1.415525 A    
C44   C48   1.408591 A    
O46   H21   1.014063 S    
C43   C47   1.408480 A    
O34   H19   1.013998 S    
C45   N5    1.435150 S    
O10   V2    1.971136 S    
C58   C60   1.412459 A    
C67   C69   1.410466 A    
N8    O39   1.299833 A    
C55   C58   1.425545 A    
C66   C68   1.401399 A    
C58   C78   1.490150 S    
C40   N14   1.437353 S    
N10   O43   1.301290 A    
N1    O22   1.301111 A    
C60   N2    1.435142 S    
C42   H8    1.081727 S    
N12   O51   1.300832 A    
C63   C65   1.403997 A    
O18   V4    1.992852 S    
C62   C64   1.416014 A    
O15   C5    1.294906 A    
C47   N4    1.438581 S    
O8    C4    1.301074 A    
N3    O25   1.301148 A    
O16   C6    1.294974 A    
C32   H9    1.078871 S    
O1    C3    1.297919 A    
O12   V4    1.982552 S    
N2    O24   1.301060 A    
N5    O29   1.301374 A    
C74   H16   1.083858 S    
C68   C74   1.400919 A    
C45   C47   1.411632 A    
C64   C66   1.403845 A    
V2    O20   1.707463 S    
C61   C63   1.416044 A    
O16   V4    1.992929 S    
C49   C51   1.420606 A    
C77   O34   1.398850 S    
N10   O44   1.301304 A    
N8    O40   1.300913 A    
N5    O30   1.301157 A    
N4    O28   1.300726 A    
N1    O21   1.301214 A    
C5    C25   1.490383 S    
N6    O31   1.301375 A    
O5    V1    1.994767 S    
O4    V2    1.972106 S    
C7    C12   1.485757 S    
C6    C26   1.490452 S    
O6    V2    1.994765 S    
C77   O33   1.222592 D    
O10   C6    1.303735 A    
O18   C8    1.299448 A    
C72   C75   1.409311 A    
C1    C43   1.483205 S    
O2    V4    1.991304 S    
C37   C40   1.423456 A    
C3    C64   1.486978 S    
C73   C75   1.396627 A    
C55   C56   1.428537 A    
V3    O19   2.143819 S    
C80   O47   1.220906 D    
O13   V3    1.699775 S    
C12   C14   1.405631 A    
V4    O20   2.143818 S    
O1    V3    1.991305 S    
C70   C72   1.415513 A    
C49   H12   1.080731 S    
C53   C59   1.418369 A    
O9    C5    1.303765 A    
C9    C11   1.401642 A    
O14   V2    2.155031 S    
N9    O42   1.300021 A    
O2    C4    1.297958 A    
N14   O56   1.301735 A    
C73   H15   1.083872 S    
C61   C71   1.416871 A    
O13   V1    2.155030 S    
C44   C50   1.401936 A    
O6    C8    1.297765 A    
C13   C15   1.414187 A    
C14   H4    1.080811 S    
C2    O12   1.292848 A    
N3    O26   1.300940 A    
C54   C60   1.418068 A    
C40   C42   1.394212 A    
C59   N1    1.435328 S    
N2    O23   1.301024 A    
C78   O35   1.223234 D    
C9    H1    1.082795 S    
O17   C7    1.300374 A    
