data_mof_unit_25433.cif
_audit_creation_date              2012-12-11T16:45:47-0500
_audit_creation_method            fapswitch 2.2
_symmetry_space_group_name_H-M    P1
_symmetry_Int_Tables_number       1
_space_group_crystal_system       triclinic
_cell_length_a                    19.706131
_cell_length_b                    17.186358
_cell_length_c                    15.361309
_cell_angle_alpha                 89.999553
_cell_angle_beta                  52.690158
_cell_angle_gamma                 90.000287
_cell_volume                      4137.9220945

loop_
_atom_site_label
_atom_site_type_symbol
_atom_type_description
_atom_site_fract_x
_atom_site_fract_y
_atom_site_fract_z
_atom_type_partial_charge
C1    C     C_R   0.839155 0.672707 0.047998 -0.146309
C2    C     C_R   0.145687 0.308732 0.075096 0.004961
C3    C     C_3   0.774902 0.981538 0.167348 -0.827704
C4    C     C_R   0.354311 0.808734 0.924905 0.004973
C5    C     C_R   0.645692 0.808734 0.075090 0.004963
C6    C     C_R   0.887265 0.684112 0.305177 0.081657
C7    C     C_R   0.112737 0.684115 0.694821 0.081665
C8    C     C_R   0.387262 0.184109 0.305180 0.081653
C9    C     C_R   0.612736 0.184115 0.694822 0.081664
C10   C     C_R   0.853794 0.715727 0.484623 0.088248
C11   C     C_R   0.146151 0.715766 0.515407 0.088168
C12   C     C_R   0.353770 0.215710 0.484639 0.088224
C13   C     C_R   0.160844 0.672710 0.951999 -0.146315
C14   C     C_R   0.646159 0.215761 0.515404 0.088170
C15   C     C_R   0.869596 0.740869 0.387260 0.061483
C16   C     C_R   0.130394 0.740885 0.612751 0.061471
C17   C     C_R   0.369590 0.240862 0.387269 0.061489
C18   C     C_R   0.630396 0.240883 0.612751 0.061463
C19   C     C_R   0.354415 0.319657 0.379234 -0.193383
C20   C     C_R   0.645612 0.319668 0.620777 -0.193400
C21   C     C_R   0.854405 0.819661 0.379228 -0.193383
C22   C     C_R   0.145614 0.819669 0.620777 -0.193396
C23   C     C_R   0.305110 0.365072 0.474191 -0.151690
C24   C     C_R   0.339157 0.172708 0.047998 -0.146319
C25   C     C_R   0.694914 0.365086 0.525821 -0.151696
C26   C     C_R   0.805099 0.865075 0.474185 -0.151697
C27   C     C_R   0.194913 0.865087 0.525821 -0.151689
C28   C     C_R   0.270455 0.331206 0.576792 -0.022306
C29   C     C_R   0.729529 0.331232 0.423225 -0.022305
C30   C     C_R   0.770456 0.831213 0.576784 -0.022318
C31   C     C_R   0.229525 0.831234 0.423225 -0.022300
C32   C     C_R   0.804446 0.760113 0.578223 0.086942
C33   C     C_R   0.195495 0.760154 0.421805 0.086904
C34   C     C_R   0.304425 0.260096 0.578238 0.086888
C35   C     C_R   0.660845 0.172708 0.951999 -0.146309
C36   C     C_R   0.695504 0.260149 0.421802 0.086943
C37   C     C_3   0.762551 0.689397 0.648316 0.600687
C38   C     C_3   0.237330 0.689435 0.351699 0.600879
C39   C     C_3   0.262505 0.189380 0.648326 0.600715
C40   C     C_3   0.737349 0.189431 0.351699 0.600802
C41   C     C_R   0.849174 0.330492 0.219443 -0.154833
C42   C     C_R   0.150821 0.330490 0.780562 -0.154868
C43   C     C_R   0.349173 0.830492 0.219443 -0.154827
C44   C     C_R   0.650821 0.830489 0.780559 -0.154857
C45   C     C_3   0.816996 0.640950 0.546337 -0.657078
C46   C     C_R   0.808244 0.361300 0.323601 0.038967
C47   C     C_3   0.182892 0.640987 0.453680 -0.656987
C48   C     C_3   0.316948 0.140934 0.546348 -0.657055
C49   C     C_3   0.682909 0.140982 0.453679 -0.657019
C50   C     C_2   0.785199 0.185944 0.957501 -0.219440
C51   C     C_2   0.214802 0.185944 0.042497 -0.219487
C52   C     C_2   0.285206 0.685941 0.957487 -0.219429
C53   C     C_2   0.714808 0.685946 0.042485 -0.219476
C54   C     C_2   0.314805 0.751477 0.899137 -0.122325
C55   C     C_2   0.685201 0.751475 0.100850 -0.122337
C56   C     C_2   0.814802 0.251477 0.899144 -0.122341
C57   C     C_R   0.191749 0.361292 0.676404 0.038951
C58   C     C_2   0.185197 0.251476 0.100856 -0.122318
C59   C     C_R   0.874721 0.383929 0.887505 0.658320
C60   C     C_R   0.125267 0.383923 0.112507 0.658362
C61   C     C_R   0.374728 0.883927 0.887498 0.658337
C62   C     C_R   0.625275 0.883926 0.112499 0.658337
C63   C     C_R   0.907756 0.607200 0.302919 -0.149113
C64   C     C_R   0.092247 0.607202 0.697078 -0.149154
C65   C     C_R   0.407754 0.107198 0.302920 -0.149116
C66   C     C_R   0.592246 0.107202 0.697079 -0.149149
C67   C     C_R   0.878039 0.298463 0.991282 -0.236207
C68   C     C_R   0.308243 0.861300 0.323601 0.038976
C69   C     C_R   0.121959 0.298463 0.008719 -0.236280
C70   C     C_R   0.378039 0.798463 0.991282 -0.236205
C71   C     C_R   0.621961 0.798464 0.008717 -0.236253
C72   C     C_R   0.896683 0.697759 0.209579 -0.132171
C73   C     C_R   0.103318 0.697760 0.790420 -0.132168
C74   C     C_R   0.396682 0.197759 0.209581 -0.132173
C75   C     C_R   0.603318 0.197760 0.790421 -0.132168
C76   C     C_R   0.859180 0.421059 0.316301 -0.056983
C77   C     C_R   0.140819 0.421055 0.683698 -0.057016
C78   C     C_R   0.359179 0.921059 0.316301 -0.057008
C79   C     C_R   0.691749 0.861293 0.676401 0.038958
C80   C     C_R   0.640818 0.921056 0.683697 -0.056990
C81   C     C_R   0.831406 0.584191 0.946875 0.077713
C82   C     C_R   0.168601 0.584190 0.053109 0.077779
C83   C     C_R   0.331402 0.084191 0.946882 0.077731
C84   C     C_R   0.668597 0.084190 0.053118 0.077749
C85   C     C_R   0.788404 0.645566 0.020576 0.115598
C86   C     C_R   0.211600 0.645568 0.979412 0.115613
C87   C     C_R   0.288403 0.145568 0.020580 0.115607
C88   C     C_R   0.711598 0.145567 0.979418 0.115604
C89   C     C_3   0.816475 0.559441 0.865929 -0.381833
C90   C     C_R   0.854307 0.308735 0.924910 0.004965
C91   C     C_3   0.735888 0.508983 0.918125 -0.218819
C92   C     C_3   0.725128 0.481571 0.832583 -0.827634
C93   C     C_3   0.183568 0.559406 0.134008 -0.381890
C94   C     C_3   0.264153 0.508938 0.081742 -0.219029
C95   C     C_3   0.274950 0.481468 0.167228 -0.827791
C96   C     C_3   0.316448 0.059421 0.865966 -0.381878
C97   C     C_3   0.235860 0.008957 0.918207 -0.218856
C98   C     C_3   0.225080 0.981501 0.832699 -0.827696
C99   C     C_3   0.683540 0.059427 0.134048 -0.381854
C100  C     C_3   0.764126 0.008967 0.081827 -0.218936
F1    F     F_    0.784361 0.679686 0.717711 -0.730132
F2    F     F_    0.215465 0.679770 0.282356 -0.730038
F3    F     F_    0.284297 0.179644 0.717737 -0.730132
F4    F     F_    0.715494 0.179761 0.282346 -0.730074
F5    F     F_    0.896345 0.403587 0.788417 -0.739004
F6    F     F_    0.103620 0.403570 0.211610 -0.738992
F7    F     F_    0.396368 0.903579 0.788400 -0.739004
F8    F     F_    0.603644 0.903578 0.211592 -0.738996
H1    H     H_    0.828925 0.722799 0.096949 0.104304
H2    H     H_    0.306766 0.684178 0.311373 0.007144
H3    H     H_    0.193075 0.184181 0.688592 0.007290
H4    H     H_    0.806784 0.184180 0.311380 0.007176
H5    H     H_    0.864987 0.605051 0.544101 0.240470
H6    H     H_    0.134863 0.605120 0.455958 0.240474
H7    H     H_    0.364922 0.105017 0.544124 0.240461
H8    H     H_    0.634887 0.105111 0.455949 0.240472
H9    H     H_    0.778554 0.609225 0.526781 0.162801
H10   H     H_    0.221347 0.609228 0.473189 0.162767
H11   H     H_    0.278506 0.109227 0.526775 0.162807
H12   H     H_    0.171073 0.722802 0.903047 0.104302
H13   H     H_    0.721361 0.109228 0.473196 0.162780
H14   H     H_    0.805685 0.168575 0.005654 0.154540
H15   H     H_    0.194314 0.168576 0.994346 0.154570
H16   H     H_    0.305701 0.668567 0.005629 0.154523
H17   H     H_    0.694328 0.668583 0.994325 0.154570
H18   H     H_    0.296253 0.769870 0.848741 0.154666
H19   H     H_    0.703744 0.769861 0.151258 0.154683
H20   H     H_    0.796255 0.269866 0.848740 0.154682
H21   H     H_    0.203746 0.269865 0.151258 0.154671
H22   H     H_    0.826007 0.286326 0.194161 0.158256
H23   H     H_    0.328928 0.222800 0.096948 0.104303
H24   H     H_    0.173984 0.286321 0.805845 0.158344
H25   H     H_    0.326006 0.786327 0.194161 0.158233
H26   H     H_    0.673985 0.786320 0.805842 0.158324
H27   H     H_    0.922358 0.579752 0.352989 0.126931
H28   H     H_    0.077646 0.579753 0.647008 0.126915
H29   H     H_    0.422355 0.079749 0.352991 0.126920
H30   H     H_    0.577644 0.079753 0.647010 0.126921
H31   H     H_    0.886097 0.244107 0.019351 0.142379
H32   H     H_    0.113903 0.244107 0.980648 0.142438
H33   H     H_    0.386094 0.744107 0.019354 0.142371
H34   H     H_    0.671075 0.222800 0.903048 0.104304
H35   H     H_    0.613902 0.744108 0.980649 0.142415
H36   H     H_    0.898302 0.753838 0.176570 0.086911
H37   H     H_    0.101694 0.753838 0.823433 0.086906
H38   H     H_    0.398299 0.253838 0.176575 0.086911
H39   H     H_    0.601695 0.253837 0.823434 0.086906
H40   H     H_    0.847005 0.457957 0.381266 0.092801
H41   H     H_    0.152998 0.457949 0.618726 0.092812
H42   H     H_    0.347003 0.957958 0.381265 0.092805
H43   H     H_    0.652994 0.957951 0.618728 0.092807
H44   H     H_    0.371058 0.343667 0.303482 0.124077
H45   H     H_    0.285858 0.422447 0.467915 0.124583
H46   H     H_    0.629006 0.343664 0.696515 0.124074
H47   H     H_    0.871037 0.843666 0.303480 0.124075
H48   H     H_    0.129012 0.843663 0.696514 0.124079
H49   H     H_    0.717771 0.532290 0.794142 0.277122
H50   H     H_    0.781082 0.446757 0.768045 0.298304
H51   H     H_    0.667179 0.444690 0.872387 0.216701
H52   H     H_    0.737784 0.457877 0.960387 0.185420
H53   H     H_    0.678115 0.542335 0.981417 0.176375
H54   H     H_    0.809068 0.612632 0.831950 0.249382
H55   H     H_    0.874413 0.531675 0.794677 0.253076
H56   H     H_    0.714198 0.422446 0.532090 0.124585
H57   H     H_    0.282344 0.532161 0.205672 0.276919
H58   H     H_    0.218996 0.446655 0.231773 0.298338
H59   H     H_    0.332887 0.444566 0.127377 0.216751
H60   H     H_    0.262234 0.457859 0.039461 0.185398
H61   H     H_    0.321921 0.542297 0.018452 0.176419
H62   H     H_    0.191003 0.612580 0.167986 0.249423
H63   H     H_    0.125638 0.531639 0.205268 0.253118
H64   H     H_    0.217728 0.032200 0.794224 0.277141
H65   H     H_    0.281023 0.946666 0.768182 0.298305
H66   H     H_    0.167123 0.944627 0.872541 0.216708
H67   H     H_    0.785835 0.922445 0.467911 0.124585
H68   H     H_    0.237765 0.957872 0.960491 0.185380
H69   H     H_    0.178091 0.042317 0.981488 0.176410
H70   H     H_    0.309026 0.112602 0.831983 0.249368
H71   H     H_    0.374379 0.031653 0.794710 0.253097
H72   H     H_    0.782281 0.032251 0.205777 0.276983
H73   H     H_    0.718945 0.946731 0.231899 0.298321
H74   H     H_    0.832841 0.944644 0.127530 0.216731
H75   H     H_    0.762219 0.957869 0.039566 0.185427
H76   H     H_    0.821897 0.042320 0.018530 0.176389
H77   H     H_    0.690957 0.112612 0.168025 0.249416
H78   H     H_    0.214199 0.922446 0.532090 0.124586
H79   H     H_    0.625605 0.031660 0.205303 0.253095
H80   H     H_    0.693120 0.684178 0.688596 0.007260
N1    N     N_R   0.908660 0.628630 0.995840 -0.054537
N2    N     N_R   0.096530 0.421430 0.063580 -0.107235
N3    N     N_R   0.403470 0.921430 0.936420 -0.107227
N4    N     N_R   0.596530 0.921430 0.063580 -0.107229
N5    N     N_R   0.927500 0.575670 0.211370 -0.044474
N6    N     N_R   0.072500 0.575670 0.788630 -0.044467
N7    N     N_R   0.427500 0.075670 0.211370 -0.044472
N8    N     N_R   0.572500 0.075670 0.788630 -0.044467
N9    N     N_R   0.908660 0.365680 0.995820 -0.076771
N10   N     N_R   0.091340 0.365680 0.004180 -0.076770
N11   N     N_R   0.408660 0.865680 0.995820 -0.076771
N12   N     N_R   0.091340 0.628630 0.004160 -0.054537
N13   N     N_R   0.591340 0.865680 0.004180 -0.076770
N14   N     N_R   0.922310 0.631420 0.151980 -0.040936
N15   N     N_R   0.077690 0.631420 0.848020 -0.040935
N16   N     N_R   0.422310 0.131420 0.151980 -0.040934
N17   N     N_R   0.577690 0.131420 0.848020 -0.040935
N18   N     N_R   0.927500 0.426330 0.211360 -0.037463
N19   N     N_R   0.072500 0.426330 0.788640 -0.037467
N20   N     N_R   0.427500 0.926330 0.211360 -0.037468
N21   N     N_R   0.572500 0.926330 0.788640 -0.037463
N22   N     N_R   0.903470 0.570760 0.936440 -0.061597
N23   N     N_R   0.408660 0.128630 0.995840 -0.054538
N24   N     N_R   0.096530 0.570760 0.063560 -0.061598
N25   N     N_R   0.403470 0.070760 0.936440 -0.061597
N26   N     N_R   0.596530 0.070760 0.063560 -0.061599
N27   N     N_R   0.591340 0.128630 0.004160 -0.054537
N28   N     N_R   0.922310 0.368460 0.151950 -0.042164
N29   N     N_R   0.077690 0.368460 0.848050 -0.042165
N30   N     N_R   0.422310 0.868460 0.151950 -0.042164
N31   N     N_R   0.577690 0.868460 0.848050 -0.042167
N32   N     N_R   0.903470 0.421430 0.936420 -0.107224
Ni1   Ni    Ni4+2 1.000000 0.630300 0.000000 0.199958
Ni2   Ni    Ni4+2 0.500000 0.130300 0.000000 0.199956
Ni3   Ni    Ni4+2 1.000000 0.369700 0.000000 0.205830
Ni4   Ni    Ni4+2 0.500000 0.869700 0.000000 0.205826
Ni5   Ni    Ni4+2 0.988090 0.497570 0.863760 0.250733
Ni6   Ni    Ni4+2 0.011910 0.497570 0.136240 0.250757
Ni7   Ni    Ni4+2 0.488090 0.997570 0.863760 0.250744
Ni8   Ni    Ni4+2 0.511910 0.997570 0.136240 0.250744

loop_
_geom_bond_atom_site_label_1
_geom_bond_atom_site_label_2
_ccdc_geom_bond_type
N29   Ni3   S    
C47   H6    S    
C83   C87   A    
C21   C26   A    
N27   Ni2   S    
C93   C94   S    
C13   N12   A    
C80   H43   S    
C51   H15   S    
C14   C18   A    
C11   C47   S    
C81   C89   S    
C50   H14   S    
C12   C48   S    
C42   N29   A    
C46   C76   A    
C97   C98   S    
C3    H74   S    
C60   F6    S    
C7    C73   A    
C22   H48   S    
C28   C57   S    
C6    C72   A    
C54   H18   S    
C29   C36   A    
C78   H42   S    
N12   N24   A    
C20   H46   S    
N7    Ni8   S    
C92   H51   S    
C64   H28   S    
N12   Ni1   S    
N6    Ni5   S    
C71   H35   S    
N3    N11   A    
N5    Ni6   S    
C27   H78   S    
C59   N32   A    
C77   N19   A    
C94   H61   S    
C14   C36   A    
C41   H22   S    
C98   H66   S    
C2    C60   A    
C37   H80   S    
C62   F8    S    
C20   C25   A    
C83   C96   S    
C58   H21   S    
C45   H9    S    
C40   C49   S    
N17   Ni2   S    
N15   Ni1   S    
C25   C29   A    
C92   H50   S    
C11   C16   A    
N8    N17   A    
C43   H25   S    
C100  H75   S    
C9    C66   A    
C37   F1    S    
C1    H1    S    
N31   Ni4   S    
N4    Ni8   S    
C3    C100  S    
N19   Ni5   S    
C47   H10   S    
C76   N18   A    
C43   C68   A    
C64   N6    A    
C13   C86   A    
N18   Ni6   S    
N3    Ni7   S    
C41   C46   A    
C31   C33   A    
C89   C91   S    
C2    C69   A    
N26   Ni8   S    
C50   C88   S    
C65   H29   S    
C69   H32   S    
C39   H3    S    
C81   N22   A    
C6    C15   S    
N8    Ni7   S    
C28   C34   A    
C8    C65   A    
C82   C93   S    
C1    C85   A    
N14   Ni1   S    
C44   N31   A    
C5    C55   S    
C95   H57   S    
C42   C57   A    
C99   H79   S    
C83   N25   A    
C24   N23   A    
C52   C54   D    
C48   H11   S    
C82   N24   A    
C53   C55   D    
C68   C78   A    
C31   C68   S    
C93   H62   S    
C4    C70   A    
N19   N29   A    
C27   C31   A    
C34   C39   S    
N21   N31   A    
C57   C77   A    
C36   C40   S    
C40   H4    S    
C94   H60   S    
C91   C92   S    
C41   N28   A    
N26   N27   A    
C42   H24   S    
C62   N4    A    
N7    N16   A    
N9    Ni3   S    
C82   C86   A    
N23   Ni2   S    
C4    C61   A    
C67   C90   A    
C50   C56   D    
N5    N14   A    
C73   H37   S    
C92   H49   S    
C59   C90   A    
C63   H27   S    
C6    C63   A    
C12   C17   A    
C19   C23   A    
C3    H72   S    
N25   Ni7   S    
C10   C32   A    
C40   F4    S    
C73   N15   A    
C35   C88   A    
C98   H65   S    
C97   H69   S    
C99   C100  S    
C66   H30   S    
C11   C33   A    
N4    N13   A    
C49   H13   S    
C96   C97   S    
C10   C45   S    
C8    C74   A    
C19   H44   S    
C21   H47   S    
C51   C58   D    
C59   F5    S    
C32   C37   S    
N30   Ni4   S    
C3    H73   S    
C44   H26   S    
C38   C47   S    
C53   H17   S    
C48   H7    S    
C30   C79   S    
C60   N2    A    
C7    C16   S    
N23   N25   A    
C55   H19   S    
C77   H41   S    
C26   C30   A    
C98   H64   S    
C23   H45   S    
C69   N10   A    
N22   Ni5   S    
C43   N30   A    
C38   H2    S    
C23   C28   A    
C12   C34   A    
N9    N32   A    
C95   H58   S    
C71   N13   A    
C89   H54   S    
C99   H77   S    
C13   H12   S    
C67   H31   S    
N2    N10   A    
C72   N14   A    
N18   N28   A    
C72   H36   S    
C93   H63   S    
C70   H33   S    
C16   C22   A    
C4    C54   S    
N2    Ni6   S    
C84   C99   S    
N16   Ni2   S    
C74   H38   S    
C44   C79   A    
C84   C88   A    
C67   N9    A    
C95   H59   S    
C66   N8    A    
C2    C58   S    
C39   F3    S    
C97   H68   S    
C9    C75   A    
C63   N5    A    
C51   C87   S    
C22   C27   A    
C8    C17   S    
C29   C46   S    
C10   C15   A    
C75   H39   S    
N32   Ni5   S    
C52   C86   S    
N10   Ni3   S    
N28   Ni3   S    
N24   Ni6   S    
C38   F2    S    
C35   N27   A    
N20   Ni8   S    
C30   C32   A    
C52   H16   S    
C24   H23   S    
C91   H52   S    
C15   C21   A    
C74   N16   A    
C26   H67   S    
N6    N15   A    
C75   N17   A    
C56   C90   S    
C17   C19   A    
C5    C62   A    
C18   C20   A    
C56   H20   S    
C96   H71   S    
C94   C95   S    
C100  H76   S    
C24   C87   A    
C78   N20   A    
C7    C64   A    
N1    Ni1   S    
N1    N22   A    
C35   H34   S    
C79   C80   A    
C14   C49   S    
C45   H5    S    
C9    C18   S    
C84   N26   A    
C49   H8    S    
C76   H40   S    
C5    C71   A    
C61   F7    S    
C80   N21   A    
C25   H56   S    
C61   N3    A    
C70   N11   A    
C91   H53   S    
C33   C38   S    
C53   C85   S    
N11   Ni4   S    
N21   Ni7   S    
N13   Ni4   S    
C96   H70   S    
C37   C45   S    
C89   H55   S    
C81   C85   A    
C39   C48   S    
C65   N7    A    
N20   N30   A    
C1    N1    A    
