data_mof_unit_11044.cif
_audit_creation_date              2012-12-11T15:31:41-0500
_audit_creation_method            fapswitch 2.2
_symmetry_space_group_name_H-M    P1
_symmetry_Int_Tables_number       1
_space_group_crystal_system       triclinic
_cell_length_a                    13.578625
_cell_length_b                    13.578962
_cell_length_c                    27.668802
_cell_angle_alpha                 90.410537
_cell_angle_beta                  90.127406
_cell_angle_gamma                 119.887255
_cell_volume                      4422.97807673

loop_
_atom_site_label
_atom_site_type_symbol
_atom_type_description
_atom_site_fract_x
_atom_site_fract_y
_atom_site_fract_z
_atom_type_partial_charge
C1    C     C_R   0.619312 0.898651 0.431149 0.551243
C2    C     C_R   0.590949 0.243922 0.207795 -0.099507
C3    C     C_R   0.576546 0.225755 0.257740 0.248315
C4    C     C_R   0.660374 0.304419 0.289894 0.015060
C5    C     C_R   0.686927 0.339083 0.189821 -0.012129
C6    C     C_1   0.694971 0.362918 0.138968 -0.049064
C7    C     C_1   0.648010 0.287381 0.341396 0.007548
C8    C     C_1   0.702043 0.390090 0.097217 -0.004762
C9    C     C_1   0.228687 0.860076 0.383424 0.030193
C10   C     C_R   0.110088 0.878001 0.269479 -0.057593
C11   C     C_R   0.094327 0.871879 0.219254 -0.074698
C12   C     C_R   0.599728 0.218509 0.431310 0.556012
C13   C     C_R   0.203717 0.775884 0.211421 -0.084862
C14   C     C_R   0.219269 0.781794 0.261550 -0.069295
C15   C     C_R   0.172751 0.833022 0.290732 0.074687
C16   C     C_R   0.141947 0.821640 0.190063 0.050217
C17   C     C_1   0.120368 0.809527 0.138723 -0.054611
C18   C     C_1   0.198058 0.846743 0.341749 0.000504
C19   C     C_1   0.094374 0.792517 0.096496 -0.009362
C20   C     C_1   0.633980 0.867567 0.383176 0.011455
C21   C     C_R   0.566766 0.741625 0.265203 -0.160524
C22   C     C_R   0.571962 0.731520 0.215026 -0.122737
C23   C     C_R   0.279055 0.878567 0.430674 0.556557
C24   C     C_R   0.744380 0.914780 0.213136 -0.095810
C25   C     C_R   0.738669 0.926292 0.263350 0.274024
C26   C     C_R   0.650818 0.837907 0.289612 0.038000
C27   C     C_R   0.660973 0.817896 0.188902 -0.007866
C28   C     C_1   0.673585 0.802903 0.138129 -0.051481
C29   C     C_1   0.642475 0.850197 0.341010 -0.009655
C30   C     C_1   0.691426 0.789346 0.096602 -0.006869
C31   C     C_R   0.642295 0.284662 0.613896 -0.029215
C32   C     C_R   0.728099 0.277401 0.639192 -0.101968
C33   C     C_R   0.745251 0.303426 0.688186 0.281042
C34   C     C_R   0.620700 0.900419 0.568822 0.543077
C35   C     C_R   0.678787 0.343177 0.711138 0.005105
C36   C     C_R   0.600955 0.360804 0.684781 -0.178949
C37   C     C_R   0.582254 0.331154 0.636295 -0.143531
C38   C     C_R   0.590973 0.295526 0.791842 -0.098106
C39   C     C_R   0.598468 0.313766 0.841565 -0.123988
C40   C     C_R   0.795384 0.462583 0.832391 -0.104954
C41   C     C_R   0.786604 0.447105 0.782991 -0.057679
C42   C     C_R   0.685394 0.362372 0.762798 0.066685
C43   C     C_R   0.701294 0.396622 0.861863 0.032536
C44   C     C_R   0.221072 0.862403 0.614258 0.022775
C45   C     C_R   0.601931 0.223646 0.568205 0.543387
C46   C     C_R   0.238488 0.956519 0.642179 -0.123931
C47   C     C_R   0.209342 0.943308 0.690654 -0.118644
C48   C     C_R   0.160380 0.835527 0.711620 0.030625
C49   C     C_R   0.133757 0.740027 0.682644 -0.120540
C50   C     C_R   0.164713 0.753490 0.634250 -0.123133
C51   C     C_R   0.164395 0.748293 0.789883 -0.112139
C52   C     C_R   0.140392 0.731869 0.838936 -0.126348
C53   C     C_R   0.080185 0.872737 0.837448 -0.130729
C54   C     C_R   0.102446 0.887787 0.788360 -0.126712
C55   C     C_R   0.142020 0.823643 0.763969 0.031545
C56   C     C_R   0.279251 0.881369 0.568047 0.539601
C57   C     C_R   0.094882 0.791547 0.862704 0.017383
C58   C     C_R   0.640445 0.860199 0.614837 0.016136
C59   C     C_R   0.549702 0.766595 0.637375 -0.126751
C60   C     C_R   0.557690 0.744661 0.685716 -0.116322
C61   C     C_R   0.656916 0.815151 0.711968 0.037397
C62   C     C_R   0.751322 0.901997 0.688333 -0.090725
C63   C     C_R   0.743101 0.924657 0.640016 -0.095787
C64   C     C_R   0.708831 0.898587 0.794531 -0.111138
C65   C     C_R   0.722792 0.888528 0.844162 0.263814
C66   C     C_R   0.624067 0.682718 0.833797 -0.177790
C67   C     C_1   0.630546 0.263301 0.383539 0.037919
C68   C     C_R   0.614870 0.694075 0.784479 -0.142920
C69   C     C_R   0.660182 0.802155 0.764397 -0.013624
C70   C     C_R   0.681224 0.779373 0.863678 0.040236
C71   C     C_R   0.048729 0.760770 0.048429 0.548798
C72   C     C_R   0.714489 0.435963 0.049726 0.548786
C73   C     C_R   0.723470 0.770964 0.049449 0.551347
C74   C     C_R   0.043407 0.755580 0.910325 0.535188
C75   C     C_R   0.709359 0.431573 0.911787 0.536522
C76   C     C_R   0.717510 0.765072 0.911718 0.570153
C77   C     C_R   0.757181 0.398953 0.271595 -0.169029
C78   C     C_R   0.770288 0.416382 0.221746 -0.120607
Cr1   Cr    Cr6+3 0.417720 0.831920 0.499820 1.029569
Cr2   Cr    Cr6+3 0.668190 0.085770 0.500360 1.035341
Cr3   Cr    Cr6+3 0.414060 0.082260 0.499840 1.049470
Cr4   Cr    Cr6+3 0.908000 0.821090 0.979770 1.024108
Cr5   Cr    Cr6+3 0.912420 0.571130 0.979880 1.027827
Cr6   Cr    Cr6+3 0.657970 0.566940 0.980940 1.027317
H1    H     H_    0.822155 0.459623 0.295889 0.115476
H2    H     H_    0.507732 0.655621 0.196735 0.129714
H3    H     H_    0.814833 0.980754 0.193287 0.122554
H4    H     H_    0.775385 0.242413 0.621794 0.186941
H5    H     H_    0.512003 0.230340 0.775916 0.114944
H6    H     H_    0.524713 0.264877 0.863948 0.120180
H7    H     H_    0.858327 0.501376 0.760477 0.145973
H8    H     H_    0.874194 0.530469 0.847276 0.137662
H9    H     H_    0.551114 0.392784 0.702384 0.115063
H10   H     H_    0.844449 0.491114 0.208141 0.127269
H11   H     H_    0.516428 0.338317 0.617181 0.141291
H12   H     H_    0.282464 0.041653 0.627677 0.135298
H13   H     H_    0.198313 0.700442 0.772036 0.123892
H14   H     H_    0.152739 0.669075 0.857703 0.138369
H15   H     H_    0.231166 0.018350 0.712246 0.104583
H16   H     H_    0.084106 0.946108 0.769178 0.098884
H17   H     H_    0.044453 0.919496 0.854794 0.125751
H18   H     H_    0.092620 0.655539 0.697800 0.136852
H19   H     H_    0.149577 0.679665 0.613160 0.135205
H20   H     H_    0.469587 0.714862 0.618752 0.135569
H21   H     H_    0.526484 0.185363 0.182783 0.157346
H22   H     H_    0.737031 0.981506 0.779233 0.155353
H23   H     H_    0.484026 0.676856 0.703205 0.112107
H24   H     H_    0.576576 0.618555 0.761805 0.116851
H25   H     H_    0.593758 0.598232 0.847890 0.144592
H26   H     H_    0.829967 0.954929 0.707773 0.105606
H27   H     H_    0.814765 0.996260 0.623255 0.156470
H28   H     H_    0.074665 0.918771 0.291577 0.131094
H29   H     H_    0.044998 0.906125 0.203210 0.117813
H30   H     H_    0.239755 0.735633 0.189360 0.108137
H31   H     H_    0.269057 0.747942 0.277504 0.108976
H32   H     H_    0.497451 0.674243 0.284982 0.123595
O1    O     O_R   0.302900 0.805360 0.446400 -0.514334
O2    O     O_R   0.657980 0.180990 0.549630 -0.506155
O3    O     O_R   0.503420 0.197810 0.553190 -0.521011
O4    O     O_R   0.320350 0.978840 0.548910 -0.507474
O5    O     O_3   0.499990 0.999990 0.500010 -0.246703
O6    O     O_R   0.819150 0.845650 0.033320 -0.505672
O7    O     O_R   0.006060 0.815720 0.028680 -0.493557
O8    O     O_R   0.028100 0.664460 0.032550 -0.504979
O9    O     O_R   0.811290 0.477490 0.029660 -0.493751
O10   O     O_R   0.638120 0.455970 0.034270 -0.502081
O11   O     O_R   0.667540 0.672320 0.030160 -0.491802
O12   O     O_R   0.522090 0.841370 0.450730 -0.494280
O13   O     O_R   0.814460 0.840990 0.926980 -0.484337
O14   O     O_R   0.001710 0.811400 0.930110 -0.509480
O15   O     O_R   0.023410 0.659800 0.926210 -0.521120
O16   O     O_R   0.806940 0.473170 0.931090 -0.501135
O17   O     O_R   0.633420 0.451310 0.927930 -0.520100
O18   O     O_R   0.663190 0.668000 0.931580 -0.514943
O19   O     O_3   0.826130 0.653050 0.980200 -0.254996
O20   O     O_R   0.693280 0.995650 0.447220 -0.502760
O21   O     O_R   0.657260 0.178740 0.451050 -0.503524
O22   O     O_R   0.502640 0.195380 0.446850 -0.482974
O23   O     O_R   0.319630 0.976590 0.450330 -0.474921
O24   O     O_R   0.303680 0.807790 0.552740 -0.519326
O25   O     O_R   0.522820 0.843620 0.549310 -0.505387
O26   O     O_R   0.694060 0.998080 0.553560 -0.512351
O27   O     O_3   0.823577 0.020277 0.287164 -0.556883
C79   C     C_3   0.799461 0.109864 0.284118 -0.011456
H33   H     H_    0.714984 0.085019 0.299974 0.159531
H34   H     H_    0.801347 0.135959 0.245892 0.128371
C80   C     C_3   0.888926 0.211514 0.312620 -0.352523
H35   H     H_    0.974528 0.239225 0.297619 0.165293
H36   H     H_    0.871552 0.282989 0.310383 0.099507
H37   H     H_    0.887388 0.188496 0.351164 0.173615
S1    S     S_3+6 0.841561 0.274256 0.719904 -0.034226
O28   O     O_2   0.950148 0.383665 0.729287 -0.319290
O29   O     O_2   0.791089 0.218408 0.767228 -0.301430
O30   O     O_3   0.870773 0.187581 0.686920 -0.561978
H38   H     H_    0.925301 0.176828 0.706867 0.352716
O31   O     O_3   0.771789 0.983018 0.874578 -0.536398
C81   C     C_3   0.881700 0.062968 0.858429 0.005312
H39   H     H_    0.876066 0.114469 0.828664 0.175877
H40   H     H_    0.930301 0.021321 0.845925 0.106925
C82   C     C_3   0.947618 0.143118 0.899952 -0.341906
H41   H     H_    0.955844 0.094526 0.930298 0.165885
H42   H     H_    0.033842 0.206976 0.887626 0.095392
H43   H     H_    0.902827 0.187948 0.912814 0.172523
S2    S     S_3+6 0.451976 0.105751 0.278870 -0.014161
O32   O     O_2   0.393082 0.143181 0.314256 -0.241644
O33   O     O_2   0.372511 0.044290 0.237454 -0.310394
O34   O     O_3   0.486301 0.017425 0.306939 -0.541371
H44   H     H_    0.503269 0.978501 0.280570 0.331038

loop_
_geom_bond_atom_site_label_1
_geom_bond_atom_site_label_2
_ccdc_geom_bond_type
C45   O2    A    
C51   H13   S    
C48   C55   S    
C66   C68   A    
C21   C26   A    
Cr6   O19   S    
C81   H39   S    
C15   C18   S    
C41   C42   A    
C19   C71   S    
C35   C36   A    
C1    O12   A    
Cr1   O12   S    
C34   O25   A    
C66   C70   A    
C53   C54   A    
Cr5   O16   S    
Cr1   O5    S    
C38   H5    S    
Cr6   O18   S    
C59   H20   S    
C71   O7    A    
O31   C81   S    
C80   H36   S    
C38   C42   A    
C65   O31   S    
C10   C15   A    
C79   C80   S    
C5    C6    S    
C56   O24   A    
C61   C69   S    
C14   H31   S    
C32   H4    S    
C47   H15   S    
C37   H11   S    
C11   C16   A    
S1    O30   S    
C52   H14   S    
Cr4   O19   S    
C35   C42   S    
C44   C50   A    
C33   C35   A    
C54   C55   A    
C36   H9    S    
C40   C43   A    
C80   H35   S    
C53   H17   S    
C16   C17   S    
C62   H26   S    
C47   C48   A    
S1    O28   D    
C24   C27   A    
C10   H28   S    
Cr5   O8    S    
Cr4   O14   S    
C1    O20   A    
C39   H6    S    
Cr5   O19   S    
C13   H30   S    
Cr2   O5    S    
C45   O3    A    
Cr6   O11   S    
C22   H2    S    
Cr1   O24   S    
C77   H1    S    
C50   H19   S    
C81   H40   S    
C21   C22   A    
C43   C75   S    
C56   O4    A    
C54   H16   S    
C74   O15   A    
C25   O27   S    
Cr5   O9    S    
C21   H32   S    
C44   C46   A    
C20   C29   T    
Cr6   O10   S    
Cr3   O22   S    
C12   C67   S    
Cr2   O2    S    
Cr6   O17   S    
C8    C72   S    
C51   C52   A    
C82   H43   S    
C71   O8    A    
C80   H37   S    
C38   C39   A    
C24   C25   A    
C79   H34   S    
C33   S1    S    
O34   H44   S    
C30   C73   S    
C53   C57   A    
C9    C23   S    
C6    C8    T    
C4    C7    S    
C58   C59   A    
C77   C78   A    
C31   C37   A    
C32   C33   A    
C72   O10   A    
C60   C61   A    
C82   H42   S    
C57   C74   S    
C65   C70   A    
Cr5   O15   S    
C62   C63   A    
S2    O32   D    
C76   O13   A    
C44   C56   S    
C31   C32   A    
Cr3   O4    S    
C64   C69   A    
C40   H8    S    
Cr4   O13   S    
O30   H38   S    
C60   H23   S    
C3    S2    S    
C40   C41   A    
C41   H7    S    
C49   C50   A    
C81   C82   S    
Cr2   O26   S    
C22   C27   A    
C74   O14   A    
C70   C76   S    
C12   O22   A    
C2    C5    A    
C3    C4    A    
Cr4   O7    S    
C49   H18   S    
C75   O16   A    
C23   O23   A    
C58   C63   A    
Cr3   O23   S    
C46   C47   A    
C34   O26   A    
C1    C20   S    
C76   O18   A    
C14   C15   A    
C68   C69   A    
S2    O34   S    
C79   H33   S    
C23   O1    A    
C52   C57   A    
C39   C43   A    
C75   O17   A    
C64   H22   S    
Cr3   O3    S    
C2    H21   S    
Cr2   O20   S    
C72   O9    A    
C82   H41   S    
S2    O33   D    
O27   C79   S    
C25   C26   A    
C4    C77   A    
C73   O11   A    
C64   C65   A    
Cr1   O25   S    
C78   H10   S    
C48   C49   A    
Cr1   O1    S    
C28   C30   T    
C17   C19   T    
C2    C3    A    
C51   C55   A    
S1    O29   D    
C66   H25   S    
C63   H27   S    
C61   C62   A    
C11   H29   S    
C24   H3    S    
C10   C11   A    
C7    C67   T    
C9    C18   T    
C59   C60   A    
C46   H12   S    
C26   C29   S    
C36   C37   A    
C73   O6    A    
C31   C45   S    
C13   C16   A    
Cr3   O5    S    
C27   C28   S    
C34   C58   S    
C12   O21   A    
C68   H24   S    
C5    C78   A    
C13   C14   A    
Cr4   O6    S    
Cr2   O21   S    
