data_mof_unit_41770.cif
_audit_creation_date              2012-12-11T14:50:40-0500
_audit_creation_method            fapswitch 2.2
_symmetry_space_group_name_H-M    P1
_symmetry_Int_Tables_number       1
_space_group_crystal_system       triclinic
_cell_length_a                    20.703243
_cell_length_b                    7.201123
_cell_length_c                    20.238136
_cell_angle_alpha                 90.978933
_cell_angle_beta                  101.722062
_cell_angle_gamma                 88.790927
_cell_volume                      2953.39921336

loop_
_atom_site_label
_atom_site_type_symbol
_atom_type_description
_atom_site_fract_x
_atom_site_fract_y
_atom_site_fract_z
_atom_type_partial_charge
O1    O     O_R   0.423690 0.494470 0.435930 -0.536180
O2    O     O_R   0.576310 0.994470 0.564070 -0.538552
O3    O     O_R   0.556070 0.822310 0.435760 -0.541609
O4    O     O_R   0.443930 0.322310 0.564240 -0.539256
C1    C     C_R   0.575303 0.652853 0.420745 0.708075
C2    C     C_R   0.424506 0.157476 0.579265 0.710679
O5    O     O_R   0.422940 0.824080 0.428040 -0.527571
O6    O     O_R   0.577060 0.324080 0.571960 -0.528661
O7    O     O_R   0.442240 0.995960 0.556300 -0.524012
O8    O     O_R   0.557760 0.495960 0.443700 -0.523610
C3    C     C_R   0.398792 0.656904 0.410758 0.696408
C4    C     C_R   0.601246 0.156055 0.589225 0.687536
O9    O     O_3   0.506490 0.661310 0.542090 -0.369657
O10   O     O_3   0.493510 0.161310 0.457910 -0.367521
V1    V     V_3+5 0.498800 0.935560 0.492190 1.527203
V2    V     V_3+5 0.501200 0.435560 0.507810 1.533141
C5    C     C_R   0.834479 0.077281 0.860980 -0.218552
C6    C     C_R   0.165399 0.574035 0.139228 -0.219812
C7    C     C_R   0.662087 0.153125 0.642972 -0.103123
C8    C     C_R   0.338023 0.655590 0.356869 -0.106564
C9    C     C_R   0.765561 0.296209 0.696066 -0.034503
C10   C     C_R   0.234254 0.804186 0.303526 -0.030418
C11   C     C_R   0.710886 0.285291 0.642893 -0.075848
C12   C     C_R   0.289020 0.793215 0.356676 -0.067875
C13   C     C_R   0.669447 0.030155 0.697170 -0.091830
C14   C     C_R   0.330777 0.527322 0.302953 -0.089829
C15   C     C_R   0.725187 0.036914 0.751381 -0.063109
C16   C     C_R   0.274953 0.534114 0.248791 -0.062522
C17   C     C_R   0.772717 0.175624 0.750925 0.082756
C18   C     C_R   0.227189 0.678098 0.248979 0.079554
C19   C     C_R   0.827456 0.191095 0.804488 -0.254555
C20   C     C_R   0.172325 0.693465 0.195458 -0.242510
C21   C     C_R   0.784452 0.947210 0.864509 0.351139
C22   C     C_R   0.215665 0.438134 0.135938 0.348286
C23   C     C_R   0.733747 0.912837 0.806612 0.345500
C24   C     C_R   0.266518 0.404739 0.193863 0.346595
H1    H     H_    0.801872 0.401589 0.694766 0.118613
H2    H     H_    0.197766 0.913733 0.304616 0.125236
H3    H     H_    0.706187 0.382609 0.601879 0.129544
H4    H     H_    0.293587 0.894533 0.397479 0.138606
C25   C     C_3   0.265585 0.211192 0.821457 -0.343657
C26   C     C_3   0.732479 0.716734 0.181539 -0.379640
C27   C     C_3   0.238588 0.893494 0.778356 0.305241
C28   C     C_3   0.776502 0.397510 0.222881 0.273235
C29   C     C_3   0.282556 0.906671 0.721866 0.272961
C30   C     C_3   0.717818 0.399107 0.263962 0.297115
H5    H     H_    0.274293 0.858859 0.825782 0.055327
H6    H     H_    0.755434 0.338465 0.172020 0.061909
C31   C     C_1   0.378550 0.152318 0.624668 -0.104695
C32   C     C_1   0.620645 0.634468 0.374919 -0.120967
C33   C     C_3   0.206873 0.086343 0.790309 0.044606
C34   C     C_3   0.795648 0.602103 0.211690 0.034944
C35   C     C_3   0.314692 0.224297 0.773187 -0.377565
C36   C     C_3   0.682267 0.717942 0.228735 -0.372109
C37   C     C_3   0.290303 0.115894 0.705786 0.038524
C38   C     C_3   0.707959 0.598351 0.292197 0.068422
C39   C     C_3   0.220332 0.189326 0.672633 -0.242352
C40   C     C_3   0.777039 0.662218 0.330953 -0.291796
C41   C     C_3   0.171237 0.162131 0.720444 -0.291081
C42   C     C_3   0.825339 0.685308 0.282432 -0.266864
C43   C     C_1   0.339129 0.140475 0.661491 0.083596
C44   C     C_1   0.659318 0.615031 0.337375 0.093010
C45   C     C_1   0.159862 0.082439 0.837438 0.096256
C46   C     C_1   0.841923 0.607285 0.163965 0.108523
C47   C     C_1   0.121313 0.080697 0.875438 -0.039716
C48   C     C_1   0.879605 0.598428 0.125097 -0.021298
H7    H     H_    0.143083 0.291620 0.726353 0.209460
H8    H     H_    0.835863 0.832861 0.279395 0.254700
H9    H     H_    0.221232 0.335614 0.658188 0.255472
H10   H     H_    0.773927 0.788298 0.362132 0.220725
H11   H     H_    0.248528 0.349822 0.835684 0.270878
H12   H     H_    0.745257 0.862118 0.172812 0.252950
H13   H     H_    0.201531 0.116361 0.624017 0.202714
H14   H     H_    0.798943 0.557417 0.368757 0.218622
O11   O     O_R   0.942280 0.741210 0.056360 -0.515534
O12   O     O_R   0.057720 0.241210 0.943640 -0.516552
O13   O     O_R   0.077070 0.409690 0.071960 -0.522078
O14   O     O_R   0.922930 0.909690 0.928040 -0.523828
C49   C     C_R   0.102244 0.576505 0.087924 0.794278
C50   C     C_R   0.897699 0.077597 0.912127 0.783856
O15   O     O_R   0.943940 0.411580 0.064250 -0.530389
O16   O     O_R   0.056060 0.911580 0.935750 -0.532483
O17   O     O_R   0.923670 0.239840 0.935920 -0.535219
O18   O     O_R   0.076330 0.739840 0.064080 -0.531291
C51   C     C_R   0.924690 0.582445 0.078988 0.755518
C52   C     C_R   0.075516 0.077861 0.921011 0.748803
O19   O     O_3   0.993540 0.572620 0.957940 -0.380735
O20   O     O_3   0.006460 0.072620 0.042060 -0.374335
V3    V     V_3+5 0.001200 0.298330 0.007800 1.649961
V4    V     V_3+5 0.998800 0.798330 0.992200 1.649735
H15   H     H_    0.865291 0.291090 0.801930 0.148814
H16   H     H_    0.134350 0.798023 0.197811 0.155115
H17   H     H_    0.332666 0.852936 0.745267 0.056858
H18   H     H_    0.672508 0.367262 0.225653 0.057379
S1    S     S_3+6 0.259136 0.767225 0.644145 0.026502
O21   O     O_2   0.186731 0.726891 0.627513 -0.269588
O22   O     O_2   0.275498 0.861540 0.584065 -0.365255
O23   O     O_3   0.303420 0.568237 0.654738 -0.515626
H19   H     H_    0.302683 0.519681 0.608501 0.349423
S2    S     S_3+6 0.716452 0.221098 0.324544 -0.002421
O24   O     O_2   0.747199 0.051621 0.300495 -0.345397
O25   O     O_2   0.752806 0.272669 0.394266 -0.319591
O26   O     O_3   0.637571 0.177079 0.327233 -0.512340
H20   H     H_    0.639894 0.067004 0.356374 0.350636
H21   H     H_    0.133053 0.064175 0.695681 0.214156
H22   H     H_    0.873584 0.619071 0.304534 0.201273
H23   H     H_    0.322534 0.372408 0.763332 0.257944
H24   H     H_    0.668445 0.860690 0.241697 0.251186
S3    S     S_3+6 0.781887 0.846018 0.943862 0.058877
O27   O     O_2   0.819776 0.664717 0.949971 -0.327160
O28   O     O_2   0.812487 0.973530 0.000732 -0.348605
O29   O     O_3   0.703635 0.808714 0.950758 -0.437968
H25   H     H_    0.707391 0.742243 0.993867 0.364849
S4    S     S_3+6 0.218420 0.328198 0.056761 0.067588
O30   O     O_2   0.180662 0.150692 0.050845 -0.323929
O31   O     O_2   0.187798 0.453314 0.999700 -0.336682
O32   O     O_3   0.296723 0.281004 0.049993 -0.436117
H26   H     H_    0.293054 0.210538 0.006959 0.366941
S5    S     S_3+6 0.685318 0.707437 0.799838 0.044898
O33   O     O_2   0.619995 0.755887 0.817812 -0.295031
O34   O     O_2   0.673539 0.632996 0.728633 -0.370290
O35   O     O_3   0.722691 0.537416 0.850374 -0.441220
H27   H     H_    0.692771 0.430438 0.840618 0.374692
S6    S     S_3+6 0.315305 0.194771 0.201049 0.048669
O36   O     O_2   0.380499 0.233945 0.182846 -0.289827
O37   O     O_2   0.327328 0.126984 0.272424 -0.369756
O38   O     O_3   0.278118 0.023334 0.150946 -0.441245
H28   H     H_    0.308274 0.914186 0.160797 0.375241
H29   H     H_    0.629147 0.938187 0.698098 0.193421
H30   H     H_    0.371193 0.430645 0.302217 0.195659
H31   H     H_    0.363518 0.166589 0.798735 0.153405
H32   H     H_    0.634962 0.660964 0.200193 0.155161
H33   H     H_    0.292165 0.152087 0.870177 0.143533
H34   H     H_    0.709072 0.656954 0.131523 0.151905
S7    S     S_3+6 0.181353 0.707987 0.772745 -0.003741
O39   O     O_2   0.212550 0.545412 0.745038 -0.346062
O40   O     O_2   0.171521 0.662576 0.842231 -0.337217
O41   O     O_3   0.107542 0.755513 0.723151 -0.493546
H35   H     H_    0.082958 0.638231 0.720634 0.359571
S8    S     S_3+6 0.850804 0.254387 0.253333 0.024265
O42   O     O_2   0.844081 0.079774 0.211281 -0.348994
O43   O     O_2   0.912733 0.345791 0.243616 -0.355078
O44   O     O_3   0.862464 0.204946 0.335842 -0.439105
H36   H     H_    0.898426 0.110005 0.343519 0.365478

loop_
_geom_bond_atom_site_label_1
_geom_bond_atom_site_label_2
_ccdc_geom_bond_type
S7    O41   S    
C45   C47   T    
C29   C37   S    
C15   C17   A    
C35   C37   S    
C23   S5    S    
S1    O21   D    
O1    C3    A    
S8    O44   S    
O2    C4    A    
C48   C51   S    
C25   H33   S    
S4    O30   D    
S1    O23   S    
O3    V1    S    
C47   C52   S    
O14   V4    S    
O5    C3    A    
O13   V3    S    
C41   H21   S    
C6    C20   A    
C5    C21   A    
C24   S6    S    
S8    O43   D    
S3    O28   D    
C49   O18   A    
C21   C23   A    
O14   C50   A    
C39   C41   S    
C40   C42   S    
O44   H36   S    
C10   H2    S    
C39   H13   S    
C34   C42   S    
O11   V4    S    
C41   H7    S    
O11   C51   A    
C8    C12   A    
C6    C49   S    
C35   H31   S    
C22   C24   A    
C14   H30   S    
O12   V3    S    
C25   H11   S    
O15   V3    S    
C28   C34   S    
O5    V1    S    
C13   H29   S    
O6    V2    S    
O18   V4    S    
C2    O7    A    
C50   O17   A    
C26   H12   S    
O29   H25   S    
C5    C19   A    
C28   C30   S    
S5    O34   D    
C22   S4    S    
O17   V3    S    
C36   C38   S    
C3    C8    S    
C31   C43   T    
S7    O39   D    
C33   C45   S    
S8    O42   D    
O4    C2    A    
C34   C46   S    
S3    O29   S    
C40   H10   S    
C15   C23   A    
O16   C52   A    
C9    C17   A    
S2    O26   S    
C46   C48   T    
O4    V2    S    
C7    C11   A    
C27   C29   S    
C35   H23   S    
C30   H18   S    
O6    C4    A    
S2    O25   D    
O13   C49   A    
O1    V2    S    
C27   S7    S    
O2    V1    S    
C6    C22   A    
C25   C35   S    
S6    O38   S    
O20   V4    S    
C29   H17   S    
C19   H15   S    
C37   C39   S    
C32   C44   T    
C10   C12   A    
C1    C32   S    
O19   V4    S    
C33   C41   S    
O38   H28   S    
C29   S1    S    
O12   C52   A    
C42   H22   S    
C40   H14   S    
S6    O37   D    
S5    O35   S    
S7    O40   D    
C30   S2    S    
C10   C18   A    
O3    C1    A    
S4    O31   D    
S5    O33   D    
S1    O22   D    
C13   C15   A    
C36   H32   S    
C14   C16   A    
O16   V4    S    
C36   H24   S    
C26   H34   S    
C42   H8    S    
C9    C11   A    
O7    V1    S    
C1    O8    A    
C17   C19   A    
O8    V2    S    
S3    O27   D    
C26   C36   S    
C18   C20   A    
C27   C33   S    
C20   H16   S    
C8    C14   A    
C11   H3    S    
C37   C43   S    
C4    C7    S    
C16   C18   A    
S2    O24   D    
C12   H4    S    
C38   C40   S    
C21   S3    S    
C38   C44   S    
C5    C50   S    
C2    C31   S    
C7    C13   A    
S4    O32   S    
O41   H35   S    
C9    H1    S    
O20   V3    S    
C16   C24   A    
C28   S8    S    
O23   H19   S    
O9    V2    S    
C30   C38   S    
O26   H20   S    
O19   V3    S    
O10   V1    S    
C39   H9    S    
O35   H27   S    
O32   H26   S    
C27   H5    S    
C25   C33   S    
O15   C51   A    
C28   H6    S    
C26   C34   S    
S6    O36   D    
