data_mof_unit_9135.cif
_audit_creation_date              2012-12-10T17:02:04-0500
_audit_creation_method            fapswitch 2.2
_symmetry_space_group_name_H-M    P1
_symmetry_Int_Tables_number       1
_space_group_crystal_system       triclinic
_cell_length_a                    10.768349
_cell_length_b                    11.051272
_cell_length_c                    9.860729
_cell_angle_alpha                 111.583995
_cell_angle_beta                  98.273816
_cell_angle_gamma                 91.006467
_cell_volume                      1076.65009794

loop_
_atom_site_label
_atom_site_type_symbol
_atom_type_description
_atom_site_fract_x
_atom_site_fract_y
_atom_site_fract_z
_atom_type_partial_charge
C1    C     C_R   0.490724 0.253498 0.439676 0.708404
C2    C     C_R   0.067547 0.396313 0.534504 0.053364
C3    C     C_R   0.129208 0.492787 0.500831 -0.164304
C4    C     C_R   0.062916 0.585181 0.461626 -0.161495
C5    C     C_R   0.934751 0.588980 0.461195 0.403211
C6    C     C_R   0.870719 0.494109 0.496148 -0.185383
C7    C     C_2   0.485683 0.112112 0.403686 0.250584
C8    C     C_2   0.502134 0.068663 0.514503 -0.199523
C9    C     C_2   0.514294 0.885872 0.594312 -0.380500
C10   C     C_2   0.498373 0.929513 0.484382 -0.070322
C11   C     C_2   0.511676 0.511180 0.083608 -0.018726
C12   C     C_R   0.262761 0.497740 0.500499 0.820985
C13   C     C_2   0.490679 0.490680 0.921188 0.144654
C14   C     C_R   0.509227 0.746063 0.559967 0.857209
C15   C     C_R   0.737139 0.498381 0.498570 0.776048
C16   C     C_R   0.133170 0.297847 0.566806 -0.274372
C17   C     C_R   0.069372 0.200519 0.596263 0.471201
C18   C     C_R   0.939521 0.200779 0.591987 -0.102366
C19   C     C_R   0.873278 0.296469 0.559202 -0.233258
C20   C     C_R   0.936130 0.396208 0.531027 0.058738
Cu1   Cu    Cu3+1 0.521920 0.521810 0.644910 0.980994
Cu2   Cu    Cu3+1 0.478080 0.478190 0.355090 0.965166
H1    H     H_    0.112234 0.657870 0.434932 0.180036
H2    H     H_    0.584680 0.583233 0.158618 0.217838
H3    H     H_    0.376216 0.377453 0.064337 0.196714
H4    H     H_    0.889158 0.125535 0.613120 0.168714
H5    H     H_    0.772377 0.290050 0.554465 0.160625
H6    H     H_    0.530749 0.953013 0.709055 0.166893
N1    N     N_2   0.445130 0.445430 0.137370 -0.313831
N2    N     N_2   0.554930 0.554500 0.862630 -0.017929
O1    O     O_R   0.511700 0.332330 0.577400 -0.618778
O2    O     O_R   0.474680 0.295500 0.332650 -0.569180
O3    O     O_R   0.338160 0.518420 0.622400 -0.583225
O4    O     O_R   0.301140 0.481590 0.377650 -0.562052
O5    O     O_R   0.525320 0.704500 0.667350 -0.569798
O6    O     O_R   0.488300 0.667670 0.422600 -0.584407
O7    O     O_R   0.698860 0.518410 0.622350 -0.575937
O8    O     O_R   0.661840 0.481580 0.377600 -0.568233
O9    O     O_3   0.464672 0.023464 0.258680 -0.715810
H7    H     H_    0.454713 0.070947 0.190537 0.346948
H8    H     H_    0.417024 0.417941 0.848688 0.070664
O10   O     O_3   0.645654 0.643706 0.954369 -0.626445
H9    H     H_    0.682594 0.681340 0.890976 0.375291
H10   H     H_    0.233565 0.294545 0.567540 0.125473
O11   O     O_3   0.131050 0.103353 0.627917 -0.715272
H11   H     H_    0.222158 0.116427 0.626546 0.316696
O12   O     O_3   0.877581 0.688406 0.428695 -0.699949
H12   H     H_    0.791890 0.695559 0.454299 0.319493
H13   H     H_    0.482167 0.861306 0.370167 0.239153
H14   H     H_    0.518594 0.136050 0.629213 0.135996

loop_
_geom_bond_atom_site_label_1
_geom_bond_atom_site_label_2
_ccdc_geom_bond_type
C9    C14   S    
C15   O8    A    
Cu1   O5    S    
Cu2   N1    S    
C2    C16   A    
C11   C13   S    
Cu1   N2    S    
C16   H10   S    
O12   H12   S    
C18   H4    S    
C13   H8    S    
C17   C18   A    
C12   O3    A    
C7    C8    D    
C1    C7    S    
Cu1   Cu2   S    
C14   O6    A    
Cu1   O1    S    
C16   C17   A    
Cu2   O2    S    
C6    C20   A    
C19   H5    S    
C5    O12   S    
C17   O11   S    
C2    C3    A    
N2    O10   S    
H3    N1    S    
C5    C6    A    
Cu2   O4    S    
Cu1   O3    S    
O10   H9    S    
C12   O4    A    
C3    C4    A    
Cu2   O8    S    
C8    H14   S    
C11   H2    S    
C1    O1    A    
Cu1   O7    S    
C13   N2    D    
C11   N1    D    
C8    C10   S    
C18   C19   A    
C9    C10   D    
O9    H7    S    
C4    H1    S    
C7    O9    S    
C15   O7    A    
C3    C12   S    
C6    C15   S    
O11   H11   S    
C10   H13   S    
C2    C20   A    
C14   O5    A    
C1    O2    A    
Cu2   O6    S    
C19   C20   A    
C9    H6    S    
C4    C5    A    
