data_mof_unit_62796.cif
_audit_creation_date              2012-12-10T16:57:31-0500
_audit_creation_method            fapswitch 2.2
_symmetry_space_group_name_H-M    P1
_symmetry_Int_Tables_number       1
_space_group_crystal_system       triclinic
_cell_length_a                    18.528127
_cell_length_b                    18.640521
_cell_length_c                    19.008453
_cell_angle_alpha                 109.439749
_cell_angle_beta                  109.714755
_cell_angle_gamma                 107.897162
_cell_volume                      5135.82175282

loop_
_atom_site_label
_atom_site_type_symbol
_atom_type_description
_atom_site_fract_x
_atom_site_fract_y
_atom_site_fract_z
_atom_type_partial_charge
C1    C     C_R   0.616599 0.618803 0.496928 0.853781
C2    C     C_3   0.232861 0.441485 0.177136 -0.276586
C3    C     C_3   0.223217 0.424194 0.248372 0.247780
C4    C     C_3   0.312651 0.502831 0.315361 -0.236671
C5    C     C_R   0.621869 0.790001 0.524762 0.204299
C6    C     C_R   0.642350 0.875311 0.576200 0.314928
C7    C     C_R   0.728502 0.940867 0.620381 0.219732
C8    C     C_R   0.790842 0.923006 0.603004 0.265608
C9    C     C_R   0.766803 0.838344 0.543192 -0.093813
C10   C     C_R   0.688278 0.770038 0.519573 -0.114649
C11   C     C_R   0.679541 0.685248 0.490747 -0.163963
C12   C     C_R   0.380491 0.500827 0.381402 0.883212
C13   C     C_R   0.738464 0.667794 0.464575 0.352624
C14   C     C_R   0.802474 0.733117 0.466072 0.196723
C15   C     C_R   0.817317 0.818427 0.506011 -0.127785
C16   C     C_R   0.645303 0.344053 0.602844 -0.189662
C17   C     C_R   0.631409 0.267389 0.605746 0.390371
C18   C     C_R   0.653358 0.268768 0.684298 0.373554
C19   C     C_R   0.701994 0.348546 0.760271 0.233139
C20   C     C_R   0.735347 0.426134 0.756433 -0.068822
C21   C     C_R   0.691042 0.424026 0.679102 -0.051209
C22   C     C_R   0.695060 0.502134 0.682202 -0.162511
C23   C     C_R   0.375374 0.382584 0.494760 0.859846
C24   C     C_R   0.764492 0.581395 0.752413 0.236954
C25   C     C_R   0.826726 0.581831 0.819842 0.356508
C26   C     C_R   0.812695 0.504004 0.822639 -0.147732
C27   C     C_R   0.194492 0.366207 0.445475 0.207595
C28   C     C_R   0.106432 0.343437 0.406964 -0.157510
C29   C     C_R   0.051025 0.288833 0.421397 0.364559
C30   C     C_R   0.084252 0.254639 0.471358 0.354666
C31   C     C_R   0.163531 0.252371 0.483583 -0.085331
C32   C     C_R   0.223379 0.313760 0.475279 -0.039835
C33   C     C_R   0.307273 0.318869 0.496764 -0.138330
C34   C     C_R   0.622720 0.501445 0.618363 0.860389
C35   C     C_R   0.328398 0.262509 0.522955 0.222459
C36   C     C_R   0.266194 0.196133 0.521436 0.265492
C37   C     C_R   0.184322 0.191734 0.504068 -0.120034
C38   C     C_R   0.998425 0.618249 0.117530 0.881004
C39   C     C_R   0.123097 0.499840 0.122947 0.863632
C40   C     C_R   0.004466 0.381808 0.885836 0.818750
C41   C     C_R   0.883308 0.501961 0.886378 0.869647
C42   C     C_R   0.002359 0.123098 0.617462 0.937567
C43   C     C_R   0.881770 0.884065 0.502900 0.879471
C44   C     C_R   0.007243 0.886102 0.383020 0.873780
C45   C     C_3   0.270076 0.561643 0.329272 0.246385
C46   C     C_R   0.118662 0.119965 0.500791 0.905767
C47   C     C_R   0.884778 0.703159 0.085139 0.184790
C48   C     C_R   0.861303 0.762605 0.066971 0.238267
C49   C     C_R   0.909059 0.850482 0.128480 0.203106
C50   C     C_R   0.969503 0.876109 0.212043 0.334783
C51   C     C_R   0.981675 0.813176 0.233277 -0.110259
C52   C     C_R   0.954363 0.732157 0.166226 -0.116599
C53   C     C_R   0.996829 0.683964 0.184503 -0.147273
C54   C     C_R   0.050153 0.707698 0.269630 0.330835
C55   C     C_R   0.056596 0.775141 0.336517 0.363483
C56   C     C_3   0.180386 0.482755 0.261769 0.316487
C57   C     C_R   0.018994 0.827061 0.318300 -0.179541
C58   C     C_R   0.147281 0.344422 0.919581 -0.175302
C59   C     C_R   0.223920 0.339651 0.935134 -0.211681
C60   C     C_R   0.236463 0.301332 0.867078 0.411879
C61   C     C_R   0.169219 0.262054 0.782476 0.356408
C62   C     C_R   0.084902 0.252981 0.765854 -0.062777
C63   C     C_R   0.078471 0.304039 0.835123 0.002653
C64   C     C_R   0.004525 0.315900 0.818614 -0.150075
C65   C     C_R   0.933472 0.270967 0.736008 0.340685
C66   C     C_R   0.932278 0.208381 0.669446 0.283194
C67   C     C_3   0.190566 0.500486 0.191530 -0.237198
C68   C     C_R   0.007630 0.197488 0.683769 -0.144680
C69   C     C_3   0.279897 0.578886 0.258384 0.384464
C70   C     C_3   0.323497 0.520713 0.244989 -0.231845
Cu1   Cu    Cu3+1 0.500510 0.438210 0.438680 1.141828
Cu2   Cu    Cu3+1 0.499490 0.561790 0.561320 1.188311
Cu3   Cu    Cu3+1 0.942090 0.438230 0.003820 1.202752
Cu4   Cu    Cu3+1 0.065710 0.561800 0.003800 1.153805
Cu5   Cu    Cu3+1 0.937720 0.000020 0.437740 1.172394
Cu6   Cu    Cu3+1 0.062280 0.999990 0.562270 1.224944
H1    H     H_    0.622282 0.339323 0.540549 0.229999
H2    H     H_    0.084168 0.380252 0.379976 0.256615
H3    H     H_    0.142237 0.379888 0.974206 0.134586
H4    H     H_    0.275747 0.370619 0.000382 0.192738
H5    H     H_    0.383349 0.537054 0.239168 0.214475
H6    H     H_    0.216704 0.391462 0.114363 0.190938
O1    O     O_R   0.590610 0.538000 0.448220 -0.541429
O2    O     O_R   0.055390 0.642370 0.093280 -0.550433
O3    O     O_R   0.042570 0.447830 0.094680 -0.537932
O4    O     O_R   0.146970 0.552180 0.094660 -0.556055
O5    O     O_R   0.952410 0.357660 0.914340 -0.544203
O6    O     O_R   0.056810 0.462010 0.914320 -0.580143
O7    O     O_R   0.860830 0.447850 0.912960 -0.543238
O8    O     O_R   0.965230 0.552200 0.912940 -0.540923
O9    O     O_R   0.946680 0.090170 0.536920 -0.528271
O10   O     O_R   0.051870 0.090150 0.642080 -0.547977
O11   O     O_R   0.857220 0.909850 0.447420 -0.576777
O12   O     O_R   0.589760 0.642360 0.551800 -0.554829
O13   O     O_R   0.962410 0.909820 0.552580 -0.525621
O14   O     O_R   0.948130 0.909870 0.357940 -0.568406
O15   O     O_R   0.053320 0.909840 0.463100 -0.528197
O16   O     O_R   0.037590 0.090200 0.447440 -0.548366
O17   O     O_R   0.142780 0.090170 0.552600 -0.526225
O18   O     O_R   0.409560 0.447830 0.357350 -0.571101
O19   O     O_R   0.408700 0.552190 0.460930 -0.525548
O20   O     O_R   0.410240 0.357640 0.448200 -0.548766
O21   O     O_R   0.409390 0.462000 0.551780 -0.541077
O22   O     O_R   0.591300 0.447810 0.539070 -0.588966
O23   O     O_R   0.590440 0.552170 0.642650 -0.536457
O24   O     O_R   0.950990 0.538020 0.093300 -0.524515
Cl1   Cl    Cl    0.084765 0.455041 0.271884 -0.408443
Br1   Br    Br    0.760154 0.055293 0.702134 -0.188626
Cl2   Cl    Cl    0.901021 0.000831 0.671547 -0.552757
Br2   Br    Br    0.872420 0.706175 0.416022 -0.300853
Br3   Br    Br    0.780581 0.688570 0.751499 -0.283391
Cl3   Cl    Cl    0.576966 0.169721 0.509199 -0.340538
Cl4   Cl    Cl    0.618592 0.170924 0.687237 -0.286753
Br4   Br    Br    0.684563 0.349972 0.855298 -0.208058
Cl5   Cl    Cl    0.919069 0.681426 0.902841 -0.465639
Br5   Br    Br    0.445477 0.278831 0.566553 -0.380867
Br6   Br    Br    0.294448 0.652296 0.435417 -0.101346
Br7   Br    Br    0.262711 0.485487 0.486898 -0.351903
Cl6   Cl    Cl    0.946310 0.279444 0.392001 -0.364864
Cl7   Cl    Cl    0.045716 0.250061 0.543161 -0.502127
Br8   Br    Br    0.293584 0.107808 0.536086 -0.213055
Cl8   Cl    Cl    0.107446 0.650905 0.292581 -0.415483
Br9   Br    Br    0.804860 0.582273 0.011078 -0.355428
Br10  Br    Br    0.763747 0.724239 0.958969 -0.242900
Br11  Br    Br    0.888523 0.935024 0.100170 -0.194740
Cl9   Cl    Cl    0.041238 0.987263 0.284077 -0.520832
Cl10  Cl    Cl    0.318153 0.682340 0.264767 -0.386411
Cl11  Cl    Cl    0.113624 0.792340 0.441486 -0.341591
Cl12  Cl    Cl    0.845552 0.294370 0.715816 -0.549633
Cl13  Cl    Cl    0.339416 0.307954 0.889996 -0.401624
Cl14  Cl    Cl    0.200747 0.249747 0.703625 -0.497683
Br12  Br    Br    0.824130 0.138112 0.561508 -0.219437
Br13  Br    Br    0.182485 0.311137 0.240043 -0.363270
Cl15  Cl    Cl    0.736526 0.566036 0.431626 -0.421961
Br14  Br    Br    0.502723 0.709523 0.441441 -0.363822
Cl16  Cl    Cl    0.560331 0.899701 0.586482 -0.293481

loop_
_geom_bond_atom_site_label_1
_geom_bond_atom_site_label_2
_ccdc_geom_bond_type
C66   C68   A    
C46   O17   A    
C16   C21   A    
C13   Cl15  S    
C41   O7    A    
C19   C20   A    
C1    C11   S    
Cu1   O22   S    
C4    C70   S    
C7    C8    A    
C53   C54   A    
Cu6   O17   S    
C29   Cl6   S    
C29   C30   A    
C30   Cl7   S    
C40   O5    A    
C36   C37   A    
C42   O9    A    
C25   Cl5   S    
Cu6   O13   S    
C5    C6    A    
C23   O20   A    
Cu2   O19   S    
C5    Br14  S    
C18   C19   A    
C44   O15   A    
C70   H5    S    
Cu3   O5    S    
C6    Cl16  S    
C43   O11   A    
C23   O21   A    
C31   C32   A    
C45   C56   S    
C8    C9    A    
C23   C33   S    
C43   O13   A    
C50   Cl9   S    
C4    C12   S    
C28   H2    S    
C9    C10   A    
Cu1   O1    S    
Cu5   O9    S    
Cu2   O12   S    
C41   O8    A    
C46   O16   A    
C59   C60   A    
C21   C22   A    
C42   C68   S    
C61   C62   A    
C24   Br3   S    
C18   Cl4   S    
C5    C10   A    
C25   C26   A    
Cu5   O14   S    
C17   C18   A    
C66   Br12  S    
C4    C45   S    
Cu3   Cu4   S    
C22   C34   S    
C45   C69   S    
C51   C52   A    
C24   C25   A    
C2    C67   S    
C60   Cl13  S    
C16   C17   A    
C19   Br4   S    
Cu6   O15   S    
Cu5   O16   S    
C34   O22   A    
C31   C37   A    
C60   C61   A    
C3    Br13  S    
C35   C36   A    
C38   O24   A    
Cu5   Cu6   S    
C56   Cl1   S    
C48   Br10  S    
C62   C63   A    
C44   O14   A    
C3    C56   S    
C47   Br9   S    
C47   C48   A    
C44   C57   S    
C20   C21   A    
C50   C51   A    
C35   Br5   S    
Cu2   O23   S    
Cu3   O3    S    
C47   C52   A    
C58   H3    S    
Cu6   O10   S    
C51   C57   A    
C48   C49   A    
Cu1   O20   S    
C65   C66   A    
C55   C57   A    
C22   C24   A    
C2    H6    S    
C1    O1    A    
C39   O3    A    
C3    C4    S    
C17   Cl3   S    
C52   C53   A    
Cu5   O11   S    
C27   Br7   S    
C45   Br6   S    
C58   C63   A    
C14   Br2   S    
C54   C55   A    
C28   C29   A    
C38   O2    A    
C27   C32   A    
C7    Br1   S    
C34   O23   A    
C39   C67   S    
Cu4   O2    S    
C59   H4    S    
C1    O12   A    
C65   Cl12  S    
C6    C7    A    
Cu2   O21   S    
Cu4   O4    S    
C56   C67   S    
C49   Br11  S    
Cu1   O18   S    
C40   C64   S    
C62   C68   A    
Cu4   O6    S    
C32   C33   A    
Cu4   O8    S    
C2    C3    S    
C9    C15   A    
Cu3   O7    S    
C12   O19   A    
C2    C70   S    
C8    Cl2   S    
C64   C65   A    
C11   C13   A    
C40   O6    A    
Cu3   O24   S    
C30   C31   A    
C38   C53   S    
C20   C26   A    
C33   C35   A    
C36   Br8   S    
C42   O10   A    
C54   Cl8   S    
C69   C70   S    
C58   C59   A    
C12   O18   A    
C10   C11   A    
C61   Cl14  S    
C15   C43   S    
C63   C64   A    
Cu1   Cu2   S    
C55   Cl11  S    
C69   Cl10  S    
C49   C50   A    
C27   C28   A    
C14   C15   A    
C16   H1    S    
C39   O4    A    
C67   C69   S    
C37   C46   S    
C13   C14   A    
C26   C41   S    
