data_mof_unit_12764.cif
_audit_creation_date              2012-12-10T19:00:49-0500
_audit_creation_method            fapswitch 2.2
_symmetry_space_group_name_H-M    P1
_symmetry_Int_Tables_number       1
_space_group_crystal_system       triclinic
_cell_length_a                    15.034949
_cell_length_b                    10.818217
_cell_length_c                    9.58868
_cell_angle_alpha                 89.496925
_cell_angle_beta                  89.063472
_cell_angle_gamma                 90.884042
_cell_volume                      1559.15406381

loop_
_atom_site_label
_atom_site_type_symbol
_atom_type_description
_atom_site_fract_x
_atom_site_fract_y
_atom_site_fract_z
_atom_type_partial_charge
C1    C     C_R   0.503095 0.262567 0.500283 0.842330
C2    C     C_R   0.907726 0.598913 0.433773 -0.174535
C3    C     C_R   0.950515 0.336462 0.677720 -0.121198
C4    C     C_R   0.042484 0.341943 0.687614 0.423439
C5    C     C_R   0.092186 0.425707 0.601529 -0.071159
C6    C     C_R   0.047014 0.513761 0.518782 -0.126268
C7    C     C_R   0.095581 0.601825 0.436244 -0.173678
C8    C     C_R   0.049508 0.695156 0.363865 0.430981
C9    C     C_R   0.956679 0.693968 0.363123 0.407166
C10   C     C_R   0.185264 0.420896 0.591703 0.505704
C11   C     C_R   0.232462 0.503884 0.505206 -0.268136
C12   C     C_R   0.329007 0.500199 0.501108 0.943579
C13   C     C_R   0.188659 0.592857 0.426846 0.538621
C14   C     C_R   0.502494 0.062288 0.623867 -0.129865
C15   C     C_R   0.514952 0.129869 0.500721 -0.221232
C16   C     C_R   0.543602 0.067573 0.379630 0.521376
C17   C     C_R   0.544146 0.937075 0.377931 0.332018
C18   C     C_R   0.514823 0.870963 0.498561 -0.128048
C19   C     C_R   0.501314 0.935341 0.622229 -0.163177
C20   C     C_3   0.428657 0.924925 0.730316 0.460700
C21   C     C_3   0.429729 0.065781 0.732640 0.232817
C22   C     C_R   0.559128 0.572608 0.070700 0.244406
C23   C     C_R   0.503357 0.737559 0.499271 0.933990
C24   C     C_R   0.436102 0.439031 0.078263 0.044463
C25   C     C_R   0.435810 0.437337 0.930720 0.504453
C26   C     C_R   0.558534 0.573601 0.923722 0.102328
C27   C     C_3   0.657464 0.570903 0.912974 -0.498238
C28   C     C_3   0.658527 0.568120 0.071085 0.204344
C29   C     C_R   0.670952 0.498718 0.499216 0.849052
C30   C     C_R   0.814673 0.588819 0.424734 0.518669
C31   C     C_R   0.767644 0.496502 0.499061 -0.246075
C32   C     C_R   0.812427 0.409906 0.582188 0.297798
C33   C     C_R   0.905146 0.419032 0.592061 0.030936
C34   C     C_R   0.953228 0.511359 0.515686 -0.071439
Cu1   Cu    Cu3+1 0.500000 0.499980 0.640670 1.008968
Cu2   Cu    Cu3+1 0.500000 0.500020 0.359330 1.093675
H1    H     H_    0.449753 0.879009 0.828293 0.105133
H2    H     H_    0.367735 0.109018 0.695317 0.208897
H3    H     H_    0.385950 0.386683 0.136721 0.172490
H4    H     H_    0.682713 0.484735 0.865127 0.268276
H5    H     H_    0.685893 0.657980 0.867380 0.176396
H6    H     H_    0.689851 0.651113 0.118547 0.197143
H7    H     H_    0.914556 0.268249 0.741012 0.223603
N1    N     N_R   0.500570 0.500930 0.147930 -0.213458
N2    N     N_R   0.500570 0.500890 0.852020 -0.238523
O1    O     O_R   0.500000 0.319640 0.618810 -0.607859
O2    O     O_R   0.500010 0.319680 0.381230 -0.518539
O3    O     O_R   0.370250 0.499950 0.618800 -0.562001
O4    O     O_R   0.370260 0.499990 0.381220 -0.571924
O5    O     O_R   0.499990 0.680320 0.618770 -0.593161
O6    O     O_R   0.500000 0.680360 0.381190 -0.525259
O7    O     O_R   0.629740 0.500010 0.618780 -0.606941
O8    O     O_R   0.629750 0.500050 0.381200 -0.498878
F1    F     F_    0.768214 0.668881 0.345204 -0.669274
O9    O     O_3   0.570107 0.873218 0.260112 -0.695684
H8    H     H_    0.589067 0.932284 0.185553 0.372256
F2    F     F_    0.350591 0.877052 0.676421 -0.626084
O10   O     O_3   0.458366 0.114623 0.860276 -0.676814
H9    H     H_    0.516673 0.078272 0.883345 0.342612
O11   O     O_3   0.368727 0.368968 0.871978 -0.656081
H10   H     H_    0.389272 0.341557 0.780188 0.402353
O12   O     O_3   0.689187 0.454916 0.122055 -0.632173
H11   H     H_    0.755022 0.462779 0.122260 0.348611
O13   O     O_3   0.768009 0.314805 0.653224 -0.716770
H12   H     H_    0.710127 0.297704 0.609076 0.334106
O14   O     O_3   0.080871 0.264066 0.782916 -0.641550
H13   H     H_    0.126234 0.313091 0.833088 0.383984
F3    F     F_    0.230673 0.329186 0.655426 -0.641611
F4    F     F_    0.237710 0.667555 0.339424 -0.618803
O15   O     O_3   0.092808 0.792707 0.297231 -0.599424
H14   H     H_    0.137453 0.825846 0.362611 0.375817
O16   O     O_3   0.916059 0.790149 0.295484 -0.614251
H15   H     H_    0.872961 0.825725 0.362772 0.365602
F5    F     F_    0.567636 0.132434 0.262548 -0.630983

loop_
_geom_bond_atom_site_label_1
_geom_bond_atom_site_label_2
_ccdc_geom_bond_type
C8    C9    A    
O9    H8    S    
C19   C20   S    
C9    O16   S    
C12   O3    A    
C21   O10   S    
C12   O4    A    
C7    C8    A    
C30   F1    S    
C3    H7    S    
C26   C27   S    
C13   F4    S    
C16   F5    S    
C14   C21   S    
C30   C31   A    
C1    O1    A    
C3    C33   A    
C15   C16   A    
C24   H3    S    
Cu2   O2    S    
C18   C19   A    
Cu2   O8    S    
C26   N2    A    
C22   N1    A    
C21   H2    S    
Cu1   Cu2   S    
C16   C17   A    
O15   H14   S    
C1    C15   S    
C25   O11   S    
C17   O9    S    
C2    C34   A    
O14   H13   S    
C22   C28   S    
Cu1   O3    S    
C17   C18   A    
C18   C23   S    
C24   C25   A    
C32   O13   S    
C4    C5    A    
C23   O5    A    
O10   H9    S    
C6    C34   A    
O11   H10   S    
O12   H11   S    
C27   H5    S    
C23   O6    A    
C31   C32   A    
C27   H4    S    
Cu1   O5    S    
C33   C34   A    
Cu2   O6    S    
C24   N1    A    
Cu2   N1    S    
C3    C4    A    
Cu1   N2    S    
C25   N2    A    
Cu1   O7    S    
C14   C19   A    
C1    O2    A    
O16   H15   S    
C11   C12   S    
C6    C7    A    
C10   F3    S    
Cu1   O1    S    
C8    O15   S    
C2    C30   A    
O13   H12   S    
C5    C10   A    
C29   C31   S    
C32   C33   A    
C4    O14   S    
C20   H1    S    
C11   C13   A    
C5    C6    A    
C29   O8    A    
C28   H6    S    
C10   C11   A    
C7    C13   A    
C20   C21   S    
C22   C26   A    
C27   C28   S    
C14   C15   A    
C20   F2    S    
C2    C9    A    
Cu2   O4    S    
C29   O7    A    
C28   O12   S    
