data_mof_unit_23639.cif
_audit_creation_date              2012-12-10T19:28:32-0500
_audit_creation_method            fapswitch 2.2
_symmetry_space_group_name_H-M    P1
_symmetry_Int_Tables_number       1
_space_group_crystal_system       triclinic
_cell_length_a                    27.737305
_cell_length_b                    10.496957
_cell_length_c                    9.763029
_cell_angle_alpha                 89.738334
_cell_angle_beta                  90.271109
_cell_angle_gamma                 90.003692
_cell_volume                      2842.51567516

loop_
_atom_site_label
_atom_site_type_symbol
_atom_type_description
_atom_site_fract_x
_atom_site_fract_y
_atom_site_fract_z
_atom_type_partial_charge
C1    C     C_R   0.500890 0.257659 0.500353 0.902255
C2    C     C_R   0.873299 0.380876 0.515745 -0.026604
C3    C     C_R   0.353472 0.506807 0.498464 -0.157745
C4    C     C_R   0.646480 0.493869 0.501421 -0.155893
C5    C     C_R   0.975119 0.383097 0.505015 0.046955
C6    C     C_R   0.024727 0.620676 0.499258 0.046995
C7    C     C_R   0.973655 0.618543 0.496326 0.046650
C8    C     C_R   0.026031 0.385188 0.494518 0.046726
C9    C     C_R   0.949181 0.499760 0.502429 0.072104
C10   C     C_R   0.050587 0.503955 0.495196 0.071952
C11   C     C_R   0.949041 0.267929 0.519255 -0.212771
C12   C     C_R   0.499091 0.742336 0.499647 0.902104
C13   C     C_R   0.051076 0.735911 0.507191 -0.212567
C14   C     C_R   0.899116 0.267110 0.524021 -0.134002
C15   C     C_R   0.101034 0.736589 0.505765 -0.133898
C16   C     C_R   0.406156 0.501651 0.499730 0.889320
C17   C     C_R   0.593825 0.498470 0.500264 0.888926
C18   C     C_R   0.053453 0.272170 0.482208 -0.212877
C19   C     C_R   0.945964 0.731488 0.486454 -0.212638
C20   C     C_3   0.514675 0.037882 0.621755 0.656361
C21   C     C_3   0.485277 0.962099 0.378249 0.656670
C22   C     C_3   0.545055 0.955342 0.525535 -0.333837
C23   C     C_R   0.101644 0.505993 0.492072 -0.051876
C24   C     C_3   0.454898 0.044645 0.474464 -0.333128
C25   C     C_3   0.499062 0.877264 0.499218 -0.115893
C26   C     C_3   0.500893 0.122722 0.500781 -0.116297
C27   C     C_3   0.468908 0.958458 0.597740 -0.329364
C28   C     C_3   0.531042 0.041518 0.402259 -0.330010
C29   C     C_3   0.495294 0.385352 0.049331 -0.212180
C30   C     C_3   0.504704 0.614652 0.950675 -0.213397
C31   C     C_3   0.534766 0.432841 0.953184 0.511939
C32   C     C_3   0.465233 0.567161 0.046832 0.510641
C33   C     C_3   0.460069 0.453326 0.950877 -0.173430
C34   C     C_R   0.898128 0.497590 0.505734 -0.051584
C35   C     C_3   0.539928 0.546678 0.049131 -0.171790
C36   C     C_R   0.178202 0.395396 0.482955 0.517606
C37   C     C_R   0.821394 0.607704 0.500521 0.518282
C38   C     C_R   0.177073 0.622383 0.495314 0.519198
C39   C     C_R   0.822889 0.380881 0.517780 0.519523
C40   C     C_R   0.277261 0.547681 0.610336 -0.192009
C41   C     C_R   0.722625 0.449981 0.390597 -0.193129
C42   C     C_R   0.327493 0.548095 0.614368 0.487443
C43   C     C_R   0.672393 0.449105 0.386926 0.488728
C44   C     C_R   0.328587 0.471920 0.378758 -0.241593
C45   C     C_R   0.127822 0.391348 0.484148 -0.026241
C46   C     C_R   0.671399 0.533209 0.619419 -0.241606
C47   C     C_R   0.278591 0.474454 0.375144 -0.091210
C48   C     C_R   0.721409 0.531741 0.622529 -0.092408
C49   C     C_R   0.252953 0.511326 0.491114 0.238196
C50   C     C_R   0.746937 0.490941 0.507972 0.242213
C51   C     C_3   0.538554 0.989334 0.841542 -0.251714
C52   C     C_3   0.461396 0.010640 0.158461 -0.251735
C53   C     C_3   0.641925 0.276797 0.277954 -0.221395
C54   C     C_3   0.357792 0.717014 0.729610 -0.220468
C55   C     C_R   0.871767 0.612106 0.498647 -0.026797
C56   C     C_R   0.103359 0.275457 0.477681 -0.132930
C57   C     C_R   0.896028 0.728050 0.488013 -0.133139
C58   C     C_R   0.126659 0.622637 0.497307 -0.025841
Cl1   Cl    Cl    0.582794 0.340092 0.886188 -0.566950
Cl2   Cl    Cl    0.417238 0.659902 0.114016 -0.572960
H1    H     H_    0.347733 0.441109 0.288303 0.204196
H2    H     H_    0.740430 0.563306 0.713363 0.159907
H3    H     H_    0.122718 0.186205 0.469077 0.191576
H4    H     H_    0.876482 0.817201 0.480331 0.191504
H5    H     H_    0.742808 0.418921 0.302088 0.163696
H6    H     H_    0.257073 0.575752 0.699994 0.165955
H7    H     H_    0.880816 0.176371 0.534221 0.190183
H8    H     H_    0.119519 0.827350 0.511938 0.190225
H9    H     H_    0.966055 0.176215 0.529772 0.137700
H10   H     H_    0.034334 0.827835 0.517573 0.137320
H11   H     H_    0.037533 0.179044 0.473136 0.137880
H12   H     H_    0.652252 0.566905 0.708673 0.200948
H13   H     H_    0.961613 0.824675 0.474424 0.137950
H14   H     H_    0.581166 0.914254 0.547588 0.166227
H15   H     H_    0.418789 0.085742 0.452406 0.166563
H16   H     H_    0.565121 0.919057 0.802510 0.154247
H17   H     H_    0.504139 0.941324 0.868113 0.135995
H18   H     H_    0.553725 0.030192 0.937017 0.203397
H19   H     H_    0.495808 0.058655 0.131880 0.136068
H20   H     H_    0.434828 0.080915 0.197494 0.154493
H21   H     H_    0.446224 0.969777 0.062990 0.203212
H22   H     H_    0.620283 0.250525 0.369649 0.140493
H23   H     H_    0.444299 0.920320 0.677323 0.155153
H24   H     H_    0.676922 0.224936 0.278986 0.169442
H25   H     H_    0.621417 0.245532 0.186248 0.209834
H26   H     H_    0.322762 0.768694 0.730548 0.170472
H27   H     H_    0.379393 0.746272 0.638866 0.140092
H28   H     H_    0.378314 0.745521 0.822317 0.212602
H29   H     H_    0.555630 0.079557 0.322586 0.154700
H30   H     H_    0.491705 0.289163 0.095516 0.150546
H31   H     H_    0.508292 0.710842 0.904494 0.150531
H32   H     H_    0.426419 0.415027 0.904825 0.187545
H33   H     H_    0.573578 0.584975 0.095189 0.186080
H34   H     H_    0.259659 0.446634 0.282737 0.162708
N1    N     N_R   0.201581 0.509764 0.488871 -0.344061
N2    N     N_R   0.798249 0.493226 0.509652 -0.345117
N3    N     N_3   0.499960 0.500030 0.863290 -0.116632
N4    N     N_3   0.500040 0.499970 0.136710 -0.116025
O1    O     O_R   0.500000 0.313960 0.616610 -0.552882
O2    O     O_2   0.795629 0.716605 0.492057 -0.548618
O3    O     O_2   0.798579 0.269833 0.527949 -0.548844
O4    O     O_2   0.201511 0.733559 0.499259 -0.551502
O5    O     O_3   0.530592 0.089119 0.747351 -0.557099
O6    O     O_3   0.469362 0.910859 0.252653 -0.556875
O7    O     O_3   0.649109 0.409540 0.269077 -0.589577
O8    O     O_3   0.350694 0.584037 0.733697 -0.591480
O9    O     O_R   0.500000 0.686040 0.383390 -0.552734
O10   O     O_R   0.500020 0.313950 0.383350 -0.648969
O11   O     O_R   0.499980 0.686050 0.616650 -0.649721
O12   O     O_R   0.428750 0.500030 0.616610 -0.582016
O13   O     O_R   0.571250 0.499970 0.383390 -0.582085
O14   O     O_R   0.428770 0.500020 0.383360 -0.586542
O15   O     O_R   0.571230 0.499980 0.616640 -0.586256
O16   O     O_2   0.203733 0.286034 0.477628 -0.549615
Zn1   Zn    Zn3+2 0.499990 0.500010 0.655740 1.014809
Zn2   Zn    Zn3+2 0.500010 0.499990 0.344260 1.015515

loop_
_geom_bond_atom_site_label_1
_geom_bond_atom_site_label_2
_ccdc_geom_bond_type
C23   C58   A    
C30   C32   S    
C3    C42   A    
C23   C45   A    
C24   C27   S    
C36   O16   S    
C1    O1    A    
C16   O12   A    
C47   C49   A    
C20   O5    S    
C4    C46   A    
C19   C57   A    
C30   N3    S    
C30   C35   S    
C53   H24   S    
C24   C26   S    
C5    C11   A    
O1    Zn1   S    
C54   H27   S    
C11   C14   A    
C13   H10   S    
C51   O5    S    
C40   C49   A    
C29   C33   S    
C43   O7    S    
C31   Cl1   S    
C29   H30   S    
C38   C58   A    
C21   O6    S    
N4    Zn2   S    
C2    C39   A    
C45   C56   A    
C22   C25   S    
C38   N1    A    
C14   H7    S    
O13   Zn2   S    
N3    Zn1   S    
C52   H19   S    
C46   H12   S    
C44   C47   A    
C18   C56   A    
C2    C34   A    
C40   C42   A    
C34   C55   A    
C22   C28   S    
C41   C43   A    
C17   O13   A    
C12   O11   A    
C39   O3    S    
C35   H33   S    
O9    Zn2   S    
C46   C48   A    
C3    C44   A    
C54   O8    S    
C17   O15   A    
C19   H13   S    
C51   H16   S    
C33   H32   S    
C54   H26   S    
C41   H5    S    
C8    C18   A    
C37   N2    A    
C53   H22   S    
C51   H17   S    
C5    C9    A    
C5    C8    A    
C48   H2    S    
C56   H3    S    
C36   C45   A    
C49   N1    S    
C48   C50   A    
C42   O8    S    
C28   H29   S    
C4    C17   S    
C29   N4    S    
C8    C10   A    
C4    C43   A    
C21   C28   S    
C20   C22   S    
C7    C19   A    
C13   C15   A    
C9    C34   A    
C44   H1    S    
C15   C58   A    
C31   C35   S    
C32   Cl2   S    
C35   N4    S    
C41   C50   A    
O14   Zn2   S    
C16   O14   A    
C57   H4    S    
C18   H11   S    
C7    C9    A    
C21   C25   S    
C52   O6    S    
C30   H31   S    
C6    C10   A    
C12   O9    A    
C11   H9    S    
C24   H15   S    
C6    C7    A    
C20   C27   S    
C10   C23   A    
C25   C27   S    
C26   C28   S    
C12   C25   S    
C32   C33   S    
O10   Zn2   S    
C55   C57   A    
C51   H18   S    
C29   C31   S    
C6    C13   A    
C54   H28   S    
C36   N1    A    
C50   N2    S    
C1    C26   S    
C20   C26   S    
C15   H8    S    
C27   H23   S    
C40   H6    S    
C47   H34   S    
C32   N4    S    
C33   N3    S    
C31   N3    S    
C52   H21   S    
C2    C14   A    
C39   N2    A    
O11   Zn1   S    
C1    O10   A    
C37   C55   A    
C53   O7    S    
C38   O4    S    
C21   C24   S    
C22   H14   S    
C53   H25   S    
C52   H20   S    
O12   Zn1   S    
C37   O2    S    
C3    C16   S    
O15   Zn1   S    
