data_mof_unit_44646.cif
_audit_creation_date              2012-12-11T14:41:00-0500
_audit_creation_method            fapswitch 2.2
_symmetry_space_group_name_H-M    P1
_symmetry_Int_Tables_number       1
_space_group_crystal_system       triclinic
_cell_length_a                    24.679265
_cell_length_b                    17.481496
_cell_length_c                    15.467672
_cell_angle_alpha                 89.772515
_cell_angle_beta                  129.110385
_cell_angle_gamma                 90.425248
_cell_volume                      5177.82460982

loop_
_atom_site_label
_atom_site_type_symbol
_atom_type_description
_atom_site_fract_x
_atom_site_fract_y
_atom_site_fract_z
_atom_type_partial_charge
C1    C     C_R   0.346548 0.363602 0.231554 -0.189227
C2    C     C_R   0.685762 0.613155 0.500544 0.153119
C3    C     C_R   0.150253 0.823016 0.502411 0.032304
C4    C     C_R   0.187015 0.109021 0.502245 0.147798
C5    C     C_R   0.354758 0.322333 0.504969 0.103049
C6    C     C_R   0.322380 0.620429 0.506193 0.154820
C7    C     C_R   0.861644 0.815453 0.503234 0.105661
C8    C     C_R   0.850097 0.170232 0.506888 0.114528
C9    C     C_3   0.358439 0.215418 0.619625 0.166862
C10   C     C_3   0.302484 0.680431 0.630561 0.219479
C11   C     C_3   0.862776 0.703091 0.610246 0.168371
C12   C     C_R   0.350897 0.640971 0.244364 -0.183226
C13   C     C_3   0.851040 0.264984 0.629637 0.169798
C14   C     C_3   0.813131 0.641669 0.601052 0.266011
C15   C     C_3   0.807074 0.330675 0.623411 0.246473
C16   C     C_3   0.312376 0.149655 0.610718 0.263520
C17   C     C_3   0.259211 0.743881 0.630065 0.193658
C18   C     C_3   0.253343 0.302587 0.493071 -0.439219
C19   C     C_3   0.200802 0.638436 0.434306 -0.491049
C20   C     C_3   0.764677 0.801443 0.504889 -0.448702
C21   C     C_3   0.742297 0.189921 0.476515 -0.447398
C22   C     C_3   0.284639 0.204568 0.410447 -0.728740
C23   C     C_R   0.833680 0.891625 0.199074 -0.197614
C24   C     C_3   0.279464 0.749084 0.466162 -0.701997
C25   C     C_3   0.780469 0.704989 0.400374 -0.741228
C26   C     C_3   0.791797 0.293401 0.427545 -0.747935
C27   C     C_3   0.314364 0.262092 0.508107 0.201249
C28   C     C_3   0.276728 0.670028 0.509726 0.188081
C29   C     C_3   0.819153 0.756932 0.505708 0.205324
C30   C     C_3   0.810103 0.228636 0.511117 0.208995
C31   C     C_3   0.735326 0.661523 0.501134 -0.041794
C32   C     C_3   0.732033 0.329843 0.506711 -0.030562
C33   C     C_3   0.234560 0.160883 0.503204 -0.040356
C34   C     C_R   0.847786 0.136952 0.232937 -0.186531
C35   C     C_3   0.195995 0.766786 0.506240 0.020287
C36   C     C_3   0.722543 0.745740 0.518681 0.193330
C37   C     C_3   0.701317 0.247078 0.489778 0.190605
C38   C     C_3   0.212889 0.244406 0.507031 0.190698
C39   C     C_3   0.154996 0.690732 0.445205 0.235035
C40   C     C_R   0.666340 0.391083 0.798513 -0.100378
C41   C     C_R   0.650198 0.638975 0.757395 -0.095473
C42   C     C_R   0.167126 0.894807 0.802134 -0.141640
C43   C     C_R   0.166568 0.108624 0.799444 -0.098007
C44   C     C_3   0.724539 0.656501 0.390222 0.463471
C45   C     C_R   0.645975 0.370917 0.861058 0.148872
C46   C     C_3   0.737753 0.347172 0.413548 0.447119
C47   C     C_3   0.230031 0.151652 0.398376 0.455893
C48   C     C_3   0.224386 0.801823 0.448393 0.398982
C49   C     C_2   0.691384 0.341680 0.975079 -0.212778
C50   C     C_2   0.642042 0.752421 0.851528 -0.210731
C51   C     C_2   0.191373 0.846489 0.979165 -0.212687
C52   C     C_2   0.190529 0.157145 0.975707 -0.212051
C53   C     C_2   0.760699 0.343082 0.035331 -0.117717
C54   C     C_2   0.693437 0.792433 0.865727 -0.101015
C55   C     C_2   0.260801 0.845903 0.040369 -0.112583
C56   C     C_R   0.617454 0.680464 0.789415 0.141566
C57   C     C_2   0.259841 0.154724 0.038190 -0.115214
C58   C     C_2   0.355490 0.757229 0.150665 -0.188765
C59   C     C_2   0.350436 0.249030 0.136428 -0.184133
C60   C     C_2   0.852094 0.250354 0.135426 -0.180639
C61   C     C_2   0.804348 0.846140 0.018170 -0.192726
C62   C     C_2   0.301922 0.793144 0.133951 -0.086226
C63   C     C_2   0.301575 0.208836 0.129315 -0.090523
C64   C     C_2   0.802744 0.289691 0.127082 -0.088546
C65   C     C_2   0.735218 0.844319 0.960356 -0.086674
C66   C     C_R   0.618725 0.400882 0.411509 0.616634
C67   C     C_R   0.146537 0.874912 0.864416 0.158066
C68   C     C_R   0.617701 0.597927 0.409007 0.606086
C69   C     C_R   0.096874 0.863319 0.408665 0.556219
C70   C     C_R   0.118844 0.094170 0.409916 0.600705
C71   C     C_R   0.410242 0.362016 0.595982 -0.103280
C72   C     C_R   0.389140 0.601972 0.596008 -0.143473
C73   C     C_R   0.913267 0.858796 0.594733 -0.119618
C74   C     C_R   0.907861 0.133942 0.597293 -0.103798
C75   C     C_R   0.688963 0.397630 0.594851 -0.274274
C76   C     C_R   0.689774 0.600402 0.592220 -0.271743
C77   C     C_R   0.166730 0.861535 0.594219 -0.141813
C78   C     C_R   0.145815 0.128534 0.861444 0.148151
C79   C     C_R   0.189970 0.098755 0.593183 -0.252518
C80   C     C_R   0.330431 0.364216 0.410515 -0.143773
C81   C     C_R   0.313481 0.603078 0.411105 -0.168961
C82   C     C_R   0.837397 0.858056 0.408844 -0.143409
C83   C     C_R   0.827802 0.131900 0.411118 -0.152950
C84   C     C_R   0.576796 0.391732 0.801455 -0.168109
C85   C     C_R   0.559298 0.639202 0.758274 -0.142681
C86   C     C_R   0.076855 0.893628 0.802510 -0.156726
C87   C     C_R   0.076462 0.108041 0.801050 -0.164046
C88   C     C_R   0.439616 0.357909 0.238725 0.503331
C89   C     C_R   0.685499 0.382956 0.504667 0.154419
C90   C     C_R   0.441897 0.645427 0.245426 0.496346
C91   C     C_R   0.921641 0.895104 0.193570 0.564828
C92   C     C_R   0.940239 0.140945 0.237500 0.529141
C93   C     C_R   0.378375 0.320028 0.200702 -0.002774
C94   C     C_R   0.382909 0.685393 0.213795 0.000841
C95   C     C_R   0.851895 0.873856 0.133591 -0.022058
C96   C     C_R   0.879802 0.179729 0.200556 -0.018037
H1    H     H_    0.294777 0.355210 0.204917 0.118388
H2    H     H_    0.199393 0.578958 0.458768 0.214277
H3    H     H_    0.790648 0.844347 0.573504 0.201287
H4    H     H_    0.754479 0.138546 0.528706 0.208128
H5    H     H_    0.742210 0.751232 0.605985 0.148401
H6    H     H_    0.708695 0.231237 0.566424 0.155663
H7    H     H_    0.228023 0.253707 0.590996 0.158085
H8    H     H_    0.145612 0.660515 0.498219 0.140484
H9    H     H_    0.753299 0.737864 0.321940 0.176216
H10   H     H_    0.769658 0.270402 0.344124 0.175495
H11   H     H_    0.258919 0.233785 0.329379 0.169573
H12   H     H_    0.303180 0.652731 0.230673 0.118980
H13   H     H_    0.269642 0.743885 0.385542 0.177580
H14   H     H_    0.672789 0.680753 0.320782 0.099747
H15   H     H_    0.686967 0.335259 0.330313 0.109892
H16   H     H_    0.177618 0.169854 0.322677 0.101126
H17   H     H_    0.181802 0.804898 0.356971 0.117001
H18   H     H_    0.281481 0.774808 0.175597 0.125823
H19   H     H_    0.284517 0.224874 0.176549 0.126540
H20   H     H_    0.785752 0.273792 0.174643 0.125141
H21   H     H_    0.711232 0.869943 0.992543 0.128085
H22   H     H_    0.785152 0.372430 0.005811 0.132345
H23   H     H_    0.781564 0.893605 0.173053 0.117322
H24   H     H_    0.712810 0.777057 0.821684 0.134007
H25   H     H_    0.286037 0.873600 0.011090 0.132871
H26   H     H_    0.284586 0.124881 0.009972 0.130605
H27   H     H_    0.373507 0.776068 0.105571 0.130088
H28   H     H_    0.365260 0.232907 0.086129 0.126785
H29   H     H_    0.867239 0.266626 0.085415 0.125700
H30   H     H_    0.826848 0.818402 0.984650 0.131523
H31   H     H_    0.667510 0.311839 0.005434 0.134783
H32   H     H_    0.623207 0.767986 0.896411 0.133708
H33   H     H_    0.166667 0.818396 0.009280 0.136108
H34   H     H_    0.796785 0.146246 0.208607 0.118903
H35   H     H_    0.166267 0.187581 0.004495 0.133915
H36   H     H_    0.843720 0.566465 0.545503 0.354379
H37   H     H_    0.861443 0.406735 0.611930 0.359895
H38   H     H_    0.354908 0.076919 0.572384 0.349693
H39   H     H_    0.331607 0.821090 0.674201 0.366041
H40   H     H_    0.315832 0.154081 0.685540 0.114755
H41   H     H_    0.237632 0.720988 0.670183 0.114303
H42   H     H_    0.820576 0.643975 0.679657 0.115934
H43   H     H_    0.802951 0.318849 0.689618 0.113124
H44   H     H_    0.328181 0.170647 0.426538 0.212959
H45   H     H_    0.405471 0.192264 0.633677 0.080177
H46   H     H_    0.332550 0.774746 0.526651 0.213456
H47   H     H_    0.818994 0.667923 0.405765 0.213001
H48   H     H_    0.840161 0.325442 0.458389 0.213393
H49   H     H_    0.708718 0.580157 0.285551 0.325505
H50   H     H_    0.750486 0.432953 0.348142 0.333930
H51   H     H_    0.226499 0.071255 0.308632 0.323389
H52   H     H_    0.257073 0.899438 0.435423 0.347256
H53   H     H_    0.218404 0.329648 0.409213 0.167961
H54   H     H_    0.180244 0.635900 0.346466 0.162273
H55   H     H_    0.729583 0.833840 0.425431 0.173094
H56   H     H_    0.358451 0.698457 0.687111 0.072632
H57   H     H_    0.710188 0.169782 0.388691 0.165991
H58   H     H_    0.718392 0.390646 0.824057 0.086373
H59   H     H_    0.697656 0.653415 0.771061 0.093285
H60   H     H_    0.219873 0.897687 0.830736 0.100683
H61   H     H_    0.218914 0.108992 0.826076 0.085965
H62   H     H_    0.632990 0.766761 0.371123 0.329212
H63   H     H_    0.620784 0.249328 0.329909 0.338211
H64   H     H_    0.125592 0.254516 0.353262 0.331256
H65   H     H_    0.094929 0.717565 0.286325 0.350364
H66   H     H_    0.554256 0.439668 0.262626 0.339499
H67   H     H_    0.904500 0.675724 0.612838 0.081541
H68   H     H_    0.549005 0.560678 0.259749 0.332935
H69   H     H_    0.074933 0.910824 0.279631 0.354320
H70   H     H_    0.054094 0.045049 0.267682 0.345985
H71   H     H_    0.439605 0.350260 0.683174 0.160694
H72   H     H_    0.412177 0.599566 0.682885 0.116950
H73   H     H_    0.941394 0.847356 0.681660 0.171804
H74   H     H_    0.937121 0.144886 0.684788 0.147320
H75   H     H_    0.734105 0.398023 0.682022 0.149868
H76   H     H_    0.736031 0.600838 0.678652 0.130665
H77   H     H_    0.206221 0.848832 0.681212 0.176621
H78   H     H_    0.902419 0.287011 0.657441 0.075421
H79   H     H_    0.235212 0.099965 0.680287 0.131235
H80   H     H_    0.281592 0.356901 0.327842 0.090837
H81   H     H_    0.265645 0.604928 0.325927 0.094949
H82   H     H_    0.793797 0.846312 0.323065 0.103112
H83   H     H_    0.779336 0.139382 0.327949 0.091494
H84   H     H_    0.548675 0.393574 0.833721 0.110707
H85   H     H_    0.523051 0.655178 0.771964 0.100177
H86   H     H_    0.048070 0.895735 0.833621 0.109515
H87   H     H_    0.047953 0.105840 0.832656 0.107264
H88   H     H_    0.472795 0.282678 0.190694 0.323982
H89   H     H_    0.273003 0.349363 0.555282 0.210461
H90   H     H_    0.478897 0.724607 0.207488 0.319080
H91   H     H_    0.921626 0.895912 0.068247 0.319319
H92   H     H_    0.972696 0.211611 0.182513 0.313883
H93   H     H_    0.419652 0.236349 0.778688 0.320551
H94   H     H_    0.324553 0.616308 0.751826 0.325671
H95   H     H_    0.932410 0.712667 0.771031 0.323972
H96   H     H_    0.900806 0.229938 0.781944 0.320907
N1    N     N_R   0.389430 0.421450 0.294590 -0.066548
N2    N     N_R   0.581780 0.577610 0.443390 -0.117540
N3    N     N_R   0.081780 0.922390 0.443390 -0.128070
N4    N     N_R   0.081780 0.077610 0.443390 -0.108820
N5    N     N_R   0.419850 0.423100 0.556610 -0.049366
N6    N     N_R   0.419850 0.576900 0.556610 -0.043636
N7    N     N_R   0.919850 0.923100 0.556610 -0.052049
N8    N     N_R   0.919850 0.076900 0.556610 -0.050113
N9    N     N_R   0.627410 0.423100 0.556610 -0.071767
N10   N     N_R   0.627410 0.576900 0.556610 -0.065819
N11   N     N_R   0.127410 0.923100 0.556610 -0.076141
N12   N     N_R   0.389430 0.578550 0.294590 -0.068845
N13   N     N_R   0.127410 0.076900 0.556610 -0.066724
N14   N     N_R   0.374220 0.422390 0.443390 -0.035421
N15   N     N_R   0.374220 0.577610 0.443390 -0.034008
N16   N     N_R   0.874220 0.922390 0.443390 -0.039956
N17   N     N_R   0.874220 0.077610 0.443390 -0.036741
N18   N     N_R   0.555000 0.424040 0.705410 -0.045373
N19   N     N_R   0.555000 0.575960 0.705410 -0.044317
N20   N     N_R   0.055000 0.924040 0.705410 -0.044680
N21   N     N_R   0.055000 0.075960 0.705410 -0.043824
N22   N     N_R   0.446630 0.421450 0.294590 -0.100148
N23   N     N_R   0.889430 0.921450 0.294590 -0.071655
N24   N     N_R   0.446630 0.578550 0.294590 -0.101093
N25   N     N_R   0.946630 0.921450 0.294590 -0.095903
N26   N     N_R   0.946630 0.078550 0.294590 -0.092193
N27   N     N_R   0.889430 0.078550 0.294590 -0.069459
N28   N     N_R   0.612200 0.424040 0.705410 -0.039664
N29   N     N_R   0.612200 0.575960 0.705410 -0.042806
N30   N     N_R   0.112200 0.924040 0.705410 -0.045485
N31   N     N_R   0.112200 0.075960 0.705410 -0.039496
N32   N     N_R   0.581780 0.422390 0.443390 -0.119298
Ni1   Ni    Ni4+2 0.382890 0.500000 0.370170 0.205364
Ni2   Ni    Ni4+2 0.882890 0.000000 0.370170 0.199471
Ni3   Ni    Ni4+2 0.618740 0.500000 0.629830 0.214459
Ni4   Ni    Ni4+2 0.118740 0.000000 0.629830 0.218532
Ni5   Ni    Ni4+2 0.514090 0.500000 0.370170 0.235922
Ni6   Ni    Ni4+2 0.014090 0.000000 0.370170 0.259371
Ni7   Ni    Ni4+2 0.487550 0.500000 0.629830 0.222916
Ni8   Ni    Ni4+2 0.987550 0.000000 0.629830 0.216078
O1    O     O_3   0.830287 0.566551 0.593857 -0.656180
O2    O     O_3   0.629042 0.240812 0.400743 -0.719518
O3    O     O_3   0.140379 0.257672 0.429413 -0.725554
O4    O     O_3   0.088710 0.702457 0.341422 -0.705242
O5    O     O_3   0.600621 0.415477 0.308913 -0.729537
O6    O     O_3   0.596418 0.583030 0.304461 -0.724310
O7    O     O_3   0.078116 0.857671 0.304693 -0.744030
O8    O     O_3   0.099615 0.071971 0.308697 -0.745110
O9    O     O_3   0.487480 0.333349 0.227327 -0.766373
O10   O     O_3   0.489958 0.671213 0.234483 -0.776185
O11   O     O_3   0.952375 0.913282 0.146688 -0.766202
O12   O     O_3   0.840160 0.402596 0.648762 -0.676678
O13   O     O_3   0.987167 0.161877 0.221653 -0.761649
O14   O     O_3   0.379988 0.262539 0.710072 -0.788494
O15   O     O_3   0.295649 0.611185 0.669750 -0.767266
O16   O     O_3   0.894083 0.744733 0.709171 -0.794704
O17   O     O_3   0.862529 0.209909 0.706385 -0.782755
O18   O     O_3   0.337601 0.076378 0.615352 -0.689873
O19   O     O_3   0.302396 0.806812 0.695269 -0.735268
O20   O     O_3   0.727028 0.580472 0.364049 -0.659842
O21   O     O_3   0.755949 0.423958 0.416704 -0.648929
O22   O     O_3   0.240404 0.075186 0.384305 -0.697737
O23   O     O_3   0.251776 0.875913 0.488290 -0.693862
O24   O     O_3   0.651353 0.766002 0.449469 -0.725262

loop_
_geom_bond_atom_site_label_1
_geom_bond_atom_site_label_2
_ccdc_geom_bond_type
C78   C87   A    
C58   C62   D    
C80   N14   A    
C55   H25   S    
C58   H27   S    
C64   H20   S    
C54   H24   S    
C8    C83   A    
N21   N31   A    
C42   N30   A    
H49   O20   S    
C42   H60   S    
C69   N3    A    
C14   C31   S    
C12   C94   A    
C26   H10   S    
C90   N24   A    
C75   N9    A    
C25   H9    S    
C39   H8    S    
C7    C73   A    
C54   C65   S    
C23   N23   A    
C43   C78   A    
C6    C72   A    
H65   O4    S    
H94   O15   S    
C50   C54   D    
C88   N22   A    
C23   C95   A    
C7    C29   S    
C11   O16   S    
C21   H4    S    
C17   C35   S    
C60   H29   S    
C3    C69   A    
C9    C16   S    
C34   C96   A    
C62   H18   S    
C2    C68   A    
N23   N25   A    
H37   O12   S    
C23   H23   S    
C37   H6    S    
N20   Ni8   S    
C53   C64   S    
C76   N10   A    
N3    N11   A    
C42   C67   A    
C10   C17   S    
H70   O8    S    
C22   H11   S    
N2    N10   A    
C55   C62   S    
C22   H44   S    
C92   C96   A    
C19   H54   S    
N18   N28   A    
N13   Ni4   S    
C76   H76   S    
N4    N13   A    
C84   H84   S    
N26   Ni6   S    
C10   H56   S    
C51   H33   S    
C47   H16   S    
N16   Ni2   S    
C57   H26   S    
C5    C27   S    
C44   O20   S    
C6    C28   S    
C14   H42   S    
C24   H46   S    
H64   O3    S    
C85   H85   S    
N18   Ni7   S    
C71   N5    A    
C61   H30   S    
C3    C35   S    
C18   H53   S    
H36   O1    S    
C46   O21   S    
C39   O4    S    
C81   N15   A    
C63   H19   S    
C8    C30   S    
C22   C47   S    
N6    N15   A    
C6    C81   A    
C71   H71   S    
C46   H15   S    
C40   N28   A    
H90   O10   S    
H95   O16   S    
C72   H72   S    
N2    Ni5   S    
C40   H58   S    
N5    N14   A    
C25   H47   S    
C70   O8    S    
C52   C78   S    
C35   C48   S    
C85   N19   A    
C25   C44   S    
C4    C70   A    
N11   Ni4   S    
C19   H2    S    
N15   Ni1   S    
C90   C94   A    
C66   C89   A    
C15   H43   S    
C20   C29   S    
N5    Ni7   S    
C26   C46   S    
C25   C29   S    
C40   C45   A    
C49   H31   S    
H69   O7    S    
C31   C44   S    
C24   H13   S    
C24   C48   S    
C79   H79   S    
C13   C30   S    
C15   C32   S    
C84   N18   A    
C80   H80   S    
C4    C79   A    
H91   O11   S    
C1    H1    S    
C88   O9    S    
C12   H12   S    
H66   O5    S    
C16   O18   S    
C34   N27   A    
N20   N30   A    
C37   O2    S    
C79   N13   A    
C91   C95   A    
C17   O19   S    
C50   C56   S    
N28   Ni3   S    
C36   H5    S    
C48   O23   S    
C11   H67   S    
C91   N25   A    
C1    N1    A    
N7    Ni8   S    
C41   C56   A    
C38   H7    S    
C19   C28   S    
C87   H87   S    
N25   Ni6   S    
C10   O15   S    
C66   N32   A    
C32   C89   S    
N30   Ni4   S    
H88   O9    S    
N26   N27   A    
C82   H82   S    
N14   Ni1   S    
C8    C74   A    
C45   C49   S    
C87   N21   A    
C5    C71   A    
H92   O13   S    
C36   O24   S    
C32   C37   S    
C5    C80   A    
C92   N26   A    
C9    O14   S    
C69   O7    S    
C11   C29   S    
C83   N17   A    
N21   Ni8   S    
C19   C39   S    
C47   O22   S    
C60   C96   S    
C53   H22   S    
C81   H81   S    
C91   O11   S    
C26   C30   S    
C22   C27   S    
C90   O10   S    
C66   O5    S    
C75   H75   S    
C74   N8    A    
C33   C47   S    
H63   O2    S    
C45   C84   A    
C50   H32   S    
N17   Ni2   S    
H38   O18   S    
C73   H73   S    
C16   H40   S    
C82   N16   A    
C38   O3    S    
C2    C76   A    
C13   H78   S    
C9    C27   S    
N6    Ni7   S    
N24   Ni5   S    
N3    Ni6   S    
C58   C94   S    
C10   C28   S    
C59   H28   S    
N9    Ni3   S    
N29   Ni3   S    
C4    C33   S    
C67   C86   A    
C77   H77   S    
N31   Ni4   S    
N1    N22   A    
H93   O14   S    
C15   O12   S    
C52   H35   S    
C32   C46   S    
C18   C27   S    
C24   C28   S    
C57   C63   S    
H39   O19   S    
C43   H61   S    
C68   N2    A    
C92   O13   S    
C61   C95   S    
C70   N4    A    
N10   Ni3   S    
C86   N20   A    
C13   O17   S    
C21   C30   S    
N12   N24   A    
H51   O22   S    
C59   C63   D    
N8    N17   A    
C20   H55   S    
C83   H83   S    
C60   C64   D    
N23   Ni2   S    
C59   C93   S    
C13   C15   S    
N19   Ni7   S    
N1    Ni1   S    
H50   O21   S    
C16   C33   S    
C68   O6    S    
N32   Ni5   S    
H68   O6    S    
C26   H48   S    
C56   C85   A    
C51   C67   S    
C20   H3    S    
C49   C53   D    
C35   C39   S    
C73   N7    A    
N7    N16   A    
C11   C14   S    
C18   H89   S    
C88   C93   A    
C51   C55   D    
C12   N12   A    
N27   Ni2   S    
C18   C38   S    
H62   O24   S    
C74   H74   S    
C9    H45   S    
C52   C57   D    
C75   C89   A    
N4    Ni6   S    
C72   N6    A    
C20   C36   S    
C61   C65   D    
C77   N11   A    
C7    C82   A    
C21   C37   S    
C34   H34   S    
H52   O23   S    
C1    C93   A    
C86   H86   S    
C65   H21   S    
C31   C36   S    
C2    C31   S    
C33   C38   S    
C17   H41   S    
C21   H57   S    
N8    Ni8   S    
N9    N32   A    
N12   Ni1   S    
C3    C77   A    
N22   Ni5   S    
C14   O1    S    
C41   N29   A    
C43   N31   A    
H96   O17   S    
C44   H14   S    
C48   H17   S    
C41   H59   S    
N19   N29   A    
