data_mof_unit_28574.cif
_audit_creation_date              2012-12-10T19:53:41-0500
_audit_creation_method            fapswitch 2.2
_symmetry_space_group_name_H-M    P1
_symmetry_Int_Tables_number       1
_space_group_crystal_system       triclinic
_cell_length_a                    15.078292
_cell_length_b                    14.150527
_cell_length_c                    10.486241
_cell_angle_alpha                 90.120526
_cell_angle_beta                  89.792884
_cell_angle_gamma                 89.782568
_cell_volume                      2237.36922583

loop_
_atom_site_label
_atom_site_type_symbol
_atom_type_description
_atom_site_fract_x
_atom_site_fract_y
_atom_site_fract_z
_atom_type_partial_charge
C1    C     C_R   0.328016 0.500206 0.500516 1.062860
C2    C     C_R   0.672691 0.499847 0.499108 0.982168
C3    C     C_R   0.511046 0.104667 0.386277 -0.285823
C4    C     C_R   0.537348 0.894899 0.601299 -0.283349
C5    C     C_R   0.489103 0.105097 0.613715 -0.298052
C6    C     C_R   0.462739 0.894875 0.398603 -0.289947
C7    C     C_R   0.510973 0.204029 0.388399 0.016632
C8    C     C_R   0.536677 0.795541 0.599405 0.034934
C9    C     C_R   0.489378 0.204436 0.611621 -0.003157
C10   C     C_R   0.463422 0.795535 0.400508 -0.011340
C11   C     C_R   0.499993 0.053170 0.499978 0.142621
C12   C     C_R   0.500026 0.946590 0.499960 0.140685
C13   C     C_R   0.499786 0.499886 0.257298 0.925294
C14   C     C_R   0.500762 0.500121 0.742723 0.935444
C15   C     C_3   0.447553 0.570976 0.042084 -0.325735
C16   C     C_3   0.554412 0.428843 0.957581 -0.365037
C17   C     C_3   0.531875 0.584609 0.959511 -0.258713
C18   C     C_3   0.470301 0.415119 0.040790 -0.312366
C19   C     C_3   0.419570 0.486847 0.958966 0.573824
C20   C     C_3   0.582702 0.513046 0.041761 0.579958
C21   C     C_3   0.501960 0.500390 0.877343 -0.093458
C22   C     C_3   0.499820 0.499669 0.122713 -0.100407
C23   C     C_R   0.095466 0.557689 0.411435 0.365690
C24   C     C_R   0.908236 0.414115 0.483201 0.393000
C25   C     C_R   0.907468 0.585557 0.511228 0.379256
C26   C     C_R   0.094979 0.442894 0.585799 0.354338
C27   C     C_R   0.187331 0.566577 0.423567 0.310746
C28   C     C_R   0.816554 0.413119 0.494983 0.272194
C29   C     C_R   0.815901 0.586248 0.499089 0.291004
C30   C     C_R   0.186670 0.435791 0.576985 0.275446
C31   C     C_R   0.232633 0.500775 0.500266 -0.393428
C32   C     C_R   0.769356 0.499662 0.497942 -0.438948
C33   C     C_R   0.049573 0.500251 0.498315 -0.173857
C34   C     C_R   0.953681 0.499913 0.497219 -0.167804
H1    H     H_    0.403314 0.627098 0.080817 0.164764
H2    H     H_    0.595934 0.371234 0.916661 0.155430
H3    H     H_    0.558304 0.652249 0.922018 0.158943
H4    H     H_    0.445439 0.347270 0.079561 0.153557
H5    H     H_    0.521125 0.068586 0.296249 0.135645
H6    H     H_    0.568192 0.930811 0.680742 0.137059
H7    H     H_    0.479265 0.069409 0.703813 0.138102
H8    H     H_    0.431941 0.930761 0.319104 0.135055
H9    H     H_    0.520239 0.242156 0.300195 0.129787
H10   H     H_    0.566203 0.756767 0.677331 0.134796
H11   H     H_    0.481144 0.242890 0.699998 0.140735
H12   H     H_    0.433947 0.756757 0.322533 0.146091
N1    N     N_R   0.500000 0.252470 0.500000 -0.091098
N2    N     N_R   0.500000 0.747530 0.500000 -0.103375
O1    O     O_R   0.369060 0.579480 0.500010 -0.593973
O2    O     O_R   0.630940 0.420520 0.499990 -0.586027
O3    O     O_R   0.630940 0.579480 0.499990 -0.575971
O4    O     O_R   0.369060 0.420520 0.500010 -0.619119
O5    O     O_R   0.499980 0.579460 0.313950 -0.621703
O6    O     O_R   0.500020 0.420540 0.686050 -0.631852
O7    O     O_R   0.500020 0.579460 0.686050 -0.646772
O8    O     O_R   0.499980 0.420540 0.313950 -0.658592
Zn1   Zn    Zn3+2 0.500000 0.606140 0.500000 0.967261
Zn2   Zn    Zn3+2 0.500000 0.393860 0.500000 0.954282
O9    O     O_3   0.334622 0.474348 0.905573 -0.627953
C35   C     C_3   0.271063 0.459244 0.003054 0.096145
H13   H     H_    0.212473 0.504302 0.982240 0.142850
H14   H     H_    0.293747 0.479730 0.100554 0.124645
C36   C     C_3   0.242067 0.355788 0.002210 -0.302373
H15   H     H_    0.206733 0.340800 0.911873 0.266576
H16   H     H_    0.301024 0.308760 0.007029 0.214511
C37   C     C_3   0.180795 0.333728 0.114170 -1.057266
H17   H     H_    0.214360 0.348717 0.206151 0.266298
H18   H     H_    0.162408 0.257868 0.111600 0.275368
H19   H     H_    0.119380 0.376689 0.107757 0.256032
O10   O     O_3   0.665265 0.534028 0.099161 -0.669047
C38   C     C_3   0.731605 0.469357 0.060120 0.028243
H20   H     H_    0.797029 0.503425 0.075177 0.154532
H21   H     H_    0.728481 0.453552 0.956084 0.131861
C39   C     C_3   0.728558 0.379396 0.141669 -0.319145
H22   H     H_    0.751297 0.396446 0.239534 0.239487
H23   H     H_    0.659722 0.352300 0.148898 0.231077
C40   C     C_3   0.787300 0.301727 0.085565 -0.976534
H24   H     H_    0.762424 0.280225 0.990256 0.253951
H25   H     H_    0.786541 0.239242 0.149435 0.282361
H26   H     H_    0.856545 0.326765 0.075925 0.260860
O11   O     O_3   0.049449 0.609705 0.321367 -0.569692
C41   C     C_3   0.055892 0.563862 0.202228 0.101435
H27   H     H_    0.021706 0.494510 0.205451 0.104782
H28   H     H_    0.126330 0.553614 0.173031 0.154730
C42   C     C_3   0.010486 0.624222 0.101802 -0.864901
H29   H     H_    0.042342 0.694768 0.096985 0.259915
H30   H     H_    0.016181 0.589592 0.007006 0.192224
H31   H     H_    0.939161 0.633209 0.126038 0.247575
O12   O     O_3   0.952547 0.328925 0.467310 -0.548373
C43   C     C_3   0.979979 0.319372 0.339035 0.129639
H32   H     H_    0.046138 0.352278 0.326442 0.123607
H33   H     H_    0.932425 0.351784 0.270510 0.125007
C44   C     C_3   0.988129 0.214985 0.306584 -0.814388
H34   H     H_    0.923078 0.179753 0.320171 0.265889
H35   H     H_    0.009146 0.206508 0.205596 0.203690
H36   H     H_    0.038150 0.180954 0.369188 0.246745
O13   O     O_3   0.951388 0.670847 0.523652 -0.547581
C45   C     C_3   0.969911 0.687251 0.653618 0.129150
H37   H     H_    0.028643 0.645003 0.682947 0.108987
H38   H     H_    0.912398 0.670115 0.716707 0.128212
C46   C     C_3   0.991756 0.791155 0.672052 -0.809324
H39   H     H_    0.933662 0.835421 0.645782 0.261784
H40   H     H_    0.008738 0.804707 0.773399 0.199444
H41   H     H_    0.049097 0.810901 0.611099 0.252940
O14   O     O_3   0.049909 0.386334 0.671742 -0.551218
C47   C     C_3   0.033212 0.438714 0.783868 0.132566
H42   H     H_    0.985434 0.496958 0.765042 0.098824
H43   H     H_    0.095586 0.468305 0.823884 0.143885
C48   C     C_3   0.991856 0.374147 0.883049 -0.866592
H44   H     H_    0.036553 0.313363 0.902448 0.271663
H45   H     H_    0.980559 0.413983 0.972986 0.193141
H46   H     H_    0.927280 0.347212 0.848039 0.245896
O15   O     O_3   0.234888 0.631874 0.352002 -0.619488
C49   C     C_3   0.211125 0.726162 0.384945 0.166689
H47   H     H_    0.139844 0.741475 0.369431 0.198067
H48   H     H_    0.247627 0.774018 0.319620 0.135086
C50   C     C_3   0.236469 0.752971 0.521681 -0.876489
H49   H     H_    0.219342 0.828294 0.539061 0.206028
H50   H     H_    0.199708 0.709279 0.591859 0.243228
H51   H     H_    0.308642 0.744044 0.536625 0.284663
O16   O     O_3   0.773612 0.326949 0.490032 -0.556645
C51   C     C_3   0.773971 0.286541 0.613195 0.182456
H52   H     H_    0.728747 0.326722 0.677865 0.113960
H53   H     H_    0.841659 0.285048 0.655557 0.164410
C52   C     C_3   0.741692 0.185104 0.604321 -0.810276
H54   H     H_    0.788674 0.142464 0.545861 0.256702
H55   H     H_    0.737174 0.153934 0.701213 0.192310
H56   H     H_    0.675365 0.183031 0.559218 0.269889
O17   O     O_3   0.772528 0.672537 0.494373 -0.560003
C53   C     C_3   0.774806 0.705163 0.367004 0.174744
H57   H     H_    0.737833 0.656267 0.303100 0.161506
H58   H     H_    0.844204 0.712041 0.331373 0.172088
C54   C     C_3   0.731450 0.802164 0.360195 -0.803997
H59   H     H_    0.735387 0.829511 0.261167 0.198345
H60   H     H_    0.660745 0.797306 0.388345 0.267078
H61   H     H_    0.765819 0.852102 0.425049 0.256645
O18   O     O_3   0.231583 0.372801 0.654587 -0.559193
C55   C     C_3   0.225725 0.281112 0.601028 0.185433
H62   H     H_    0.269554 0.275413 0.515816 0.144324
H63   H     H_    0.156903 0.262459 0.572007 0.167322
C56   C     C_3   0.255780 0.208642 0.698856 -0.848366
H64   H     H_    0.205619 0.202899 0.776173 0.244800
H65   H     H_    0.263550 0.138407 0.652607 0.208488
H66   H     H_    0.320119 0.229895 0.740909 0.260357

loop_
_geom_bond_atom_site_label_1
_geom_bond_atom_site_label_2
_ccdc_geom_bond_type
C37   H18   S    
C36   H16   S    
C9    H11   S    
C44   H34   S    
C50   H49   S    
O14   C47   S    
C4    C8    A    
C24   O12   S    
C49   H47   S    
N2    Zn1   S    
C40   H24   S    
C15   C19   S    
C16   C21   S    
C39   H23   S    
C35   C36   S    
C14   C21   S    
C2    C32   S    
C19   C21   S    
C5    C11   A    
C29   C32   A    
C3    C7    A    
C56   H65   S    
C6    C12   A    
C30   C31   A    
C42   H31   S    
C37   H19   S    
C47   H42   S    
C45   H37   S    
O13   C45   S    
C1    C31   S    
C17   C20   S    
O1    Zn1   S    
C35   H14   S    
C18   C19   S    
C2    O2    A    
C48   H45   S    
O15   C49   S    
C15   C22   S    
C29   O17   S    
C4    H6    S    
C23   C33   A    
C39   C40   S    
C10   H12   S    
C52   H56   S    
O10   C38   S    
O3    Zn1   S    
C23   C27   A    
C4    C12   A    
C25   C34   A    
C13   O8    A    
C40   H25   S    
C14   O7    A    
C36   C37   S    
C3    H5    S    
O9    C35   S    
C46   H40   S    
C30   O18   S    
C50   H51   S    
C20   O10   S    
C26   O14   S    
C15   H1    S    
O11   C41   S    
C13   O5    A    
C42   H30   S    
C25   C29   A    
C39   H22   S    
C27   C31   A    
O2    Zn2   S    
C46   H39   S    
C8    H10   S    
C28   C32   A    
C55   H62   S    
C48   H46   S    
O12   C43   S    
C38   H21   S    
O5    Zn1   S    
C28   O16   S    
C19   O9    S    
C42   H29   S    
C24   C34   A    
C35   H13   S    
C7    N1    A    
C53   H58   S    
C8    N2    A    
C5    C9    A    
C54   H61   S    
C26   C33   A    
C43   H33   S    
C16   C20   S    
C33   C34   S    
C16   C18   S    
C17   H3    S    
O16   C51   S    
O4    Zn2   S    
C27   O15   S    
C25   O13   S    
C14   O6    A    
C20   C22   S    
C26   C30   A    
C44   H36   S    
C45   H38   S    
O7    Zn1   S    
C10   N2    A    
C54   H59   S    
C56   H66   S    
C53   C54   S    
C51   H53   S    
C41   C42   S    
C43   C44   S    
C52   H55   S    
O17   C53   S    
O6    Zn2   S    
C40   H26   S    
C7    H9    S    
C15   C17   S    
C5    H7    S    
C23   O11   S    
C18   C22   S    
C24   C28   A    
C55   C56   S    
C6    C10   A    
C38   C39   S    
C49   H48   S    
C11   C12   S    
C9    N1    A    
C55   H63   S    
C46   H41   S    
C45   C46   S    
O18   C55   S    
C41   H28   S    
C51   C52   S    
C50   H50   S    
C53   H57   S    
C18   H4    S    
C38   H20   S    
C56   H64   S    
C16   H2    S    
N1    Zn2   S    
C43   H32   S    
C52   H54   S    
C47   H43   S    
O8    Zn2   S    
C13   C22   S    
C37   H17   S    
C1    O4    A    
C17   C21   S    
C49   C50   S    
C3    C11   A    
C2    O3    A    
C36   H15   S    
C44   H35   S    
C41   H27   S    
C6    H8    S    
C54   H60   S    
C51   H52   S    
C48   H44   S    
C1    O1    A    
C47   C48   S    
