data_mof_unit_29993.cif
_audit_creation_date              2012-12-10T16:36:38-0500
_audit_creation_method            fapswitch 2.2
_symmetry_space_group_name_H-M    P1
_symmetry_Int_Tables_number       1
_space_group_crystal_system       triclinic
_cell_length_a                    14.091936
_cell_length_b                    16.462138
_cell_length_c                    15.241684
_cell_angle_alpha                 89.740961
_cell_angle_beta                  92.871168
_cell_angle_gamma                 90.189606
_cell_volume                      3531.32613997

loop_
_atom_site_label
_atom_site_type_symbol
_atom_type_description
_atom_site_fract_x
_atom_site_fract_y
_atom_site_fract_z
_atom_type_partial_charge
Br1   Br    Br    0.231775 0.974713 0.979990 -0.569623
Br2   Br    Br    0.731813 0.474182 0.980034 -0.569686
Br3   Br    Br    0.661478 0.057135 0.837323 -0.583576
Br4   Br    Br    0.161408 0.557243 0.837333 -0.583631
Br5   Br    Br    0.664723 0.720306 0.368095 -0.571730
Br6   Br    Br    0.628306 0.308073 0.412071 -0.587499
Br7   Br    Br    0.164764 0.220336 0.368059 -0.571710
Br8   Br    Br    0.128322 0.808061 0.412036 -0.587448
C1    C     C_R   0.678809 0.844335 0.519433 0.542328
C2    C     C_R   0.939073 0.495099 0.106582 -0.029665
C3    C     C_R   0.926024 0.170050 0.522760 -0.037278
C4    C     C_R   0.608406 0.031689 0.125091 -0.046070
C5    C     C_R   0.108399 0.531663 0.125086 -0.046066
C6    C     C_R   0.612259 0.036584 0.034776 -0.110080
C7    C     C_R   0.112239 0.536566 0.034772 -0.110103
C8    C     C_2   0.250619 0.221601 0.470967 0.110695
C9    C     C_2   0.244860 0.782836 0.478465 0.094725
C10   C     C_2   0.750610 0.721595 0.470978 0.110704
C11   C     C_2   0.744860 0.282837 0.478469 0.094691
C12   C     C_2   0.749099 0.782471 0.530491 -0.001141
C13   C     C_R   0.679814 0.154696 0.519474 0.541336
C14   C     C_2   0.754590 0.213266 0.525775 -0.011546
C15   C     C_2   0.249094 0.282465 0.530493 -0.001154
C16   C     C_2   0.254585 0.713270 0.525780 -0.011556
C17   C     C_R   0.319849 0.156175 0.480389 0.526391
C18   C     C_R   0.319714 0.843866 0.480773 0.522103
C19   C     C_R   0.819848 0.656174 0.480391 0.526394
C20   C     C_R   0.819715 0.343866 0.480773 0.522072
C21   C     C_R   0.519296 0.001530 0.259995 0.512892
C22   C     C_R   0.019296 0.501524 0.259996 0.512875
C23   C     C_R   0.480571 0.999776 0.737880 0.550733
C24   C     C_R   0.178810 0.344336 0.519436 0.542325
C25   C     C_R   0.980566 0.499776 0.737878 0.550745
C26   C     C_R   0.522621 0.009007 0.162700 -0.001206
C27   C     C_R   0.022623 0.508969 0.162700 -0.001188
C28   C     C_R   0.467569 0.999441 0.831006 0.019209
C29   C     C_R   0.967552 0.499433 0.831003 0.019175
C30   C     C_R   0.364912 0.981504 0.952307 0.129521
C31   C     C_R   0.864924 0.481328 0.952309 0.129546
C32   C     C_R   0.379991 0.975233 0.862212 -0.040453
C33   C     C_R   0.879996 0.475148 0.862199 -0.040441
C34   C     C_R   0.543023 0.023595 0.887517 0.125572
C35   C     C_R   0.179814 0.654695 0.519476 0.541351
C36   C     C_R   0.042991 0.523600 0.887520 0.125557
C37   C     C_R   0.348119 0.975262 0.146439 0.093742
C38   C     C_R   0.288288 0.038259 0.172294 -0.003059
C39   C     C_R   0.203302 0.019899 0.211659 -0.055321
C40   C     C_R   0.177757 0.938993 0.225751 -0.049838
C41   C     C_R   0.237773 0.876208 0.201799 -0.059362
C42   C     C_R   0.323221 0.894077 0.162848 -0.047702
C43   C     C_R   0.848117 0.475264 0.146462 0.093795
C44   C     C_R   0.788272 0.538308 0.172152 -0.003290
C45   C     C_R   0.703283 0.520017 0.211551 -0.055398
C46   C     C_R   0.533172 0.019722 0.978562 0.010069
C47   C     C_R   0.677753 0.439139 0.225849 -0.049773
C48   C     C_R   0.737788 0.376314 0.202065 -0.059175
C49   C     C_R   0.823239 0.394111 0.163078 -0.047474
C50   C     C_R   0.696593 0.052870 0.177350 0.050604
C51   C     C_R   0.775232 0.000618 0.178215 -0.066425
C52   C     C_R   0.858936 0.020804 0.226490 -0.089289
C53   C     C_R   0.864837 0.093353 0.273733 -0.094233
C54   C     C_R   0.787087 0.145924 0.272731 -0.091871
C55   C     C_R   0.703229 0.126075 0.224392 -0.055231
C56   C     C_R   0.196584 0.552873 0.177339 0.050588
C57   C     C_R   0.033152 0.519682 0.978562 0.010070
C58   C     C_R   0.275255 0.500659 0.178187 -0.066430
C59   C     C_R   0.358952 0.520878 0.226454 -0.089314
C60   C     C_R   0.364815 0.593421 0.273709 -0.094291
C61   C     C_R   0.287035 0.645955 0.272721 -0.091908
C62   C     C_R   0.203184 0.626074 0.224390 -0.055276
C63   C     C_R   0.304204 0.942176 0.799844 0.083281
C64   C     C_R   0.273352 0.861317 0.808373 -0.038556
C65   C     C_R   0.204851 0.829099 0.748574 -0.105340
C66   C     C_R   0.168645 0.876368 0.678402 -0.102469
C67   C     C_R   0.199015 0.956631 0.669128 -0.119950
C68   C     C_R   0.443905 0.999077 0.013235 0.006075
C69   C     C_R   0.265452 0.989836 0.730188 -0.079119
C70   C     C_R   0.804213 0.442132 0.799805 0.083295
C71   C     C_R   0.773392 0.361254 0.808234 -0.038433
C72   C     C_R   0.704895 0.329084 0.748407 -0.105283
C73   C     C_R   0.668672 0.376417 0.678296 -0.102472
C74   C     C_R   0.699020 0.456695 0.669114 -0.119940
C75   C     C_R   0.765448 0.489852 0.730208 -0.079176
C76   C     C_R   0.302875 0.283806 0.616876 0.038382
C77   C     C_R   0.371772 0.344085 0.634844 -0.073884
C78   C     C_R   0.420645 0.346627 0.716953 -0.099555
C79   C     C_R   0.943904 0.498972 0.013237 0.006064
C80   C     C_R   0.401145 0.289101 0.781413 -0.073028
C81   C     C_R   0.331561 0.229735 0.764424 -0.083457
C82   C     C_R   0.281768 0.227560 0.682750 -0.057098
C83   C     C_R   0.344410 0.683194 0.570344 0.027316
C84   C     C_R   0.346260 0.662649 0.659955 -0.080516
C85   C     C_R   0.429350 0.632806 0.702217 -0.092915
C86   C     C_R   0.510819 0.622032 0.655115 -0.110990
C87   C     C_R   0.509033 0.640093 0.565369 -0.086871
C88   C     C_R   0.426003 0.670019 0.522799 -0.037300
C89   C     C_R   0.802913 0.783846 0.616854 0.038392
C90   C     C_R   0.439067 0.995174 0.106578 -0.029653
C91   C     C_R   0.871717 0.844203 0.634818 -0.073951
C92   C     C_R   0.920606 0.846778 0.716914 -0.099602
C93   C     C_R   0.901219 0.789206 0.781366 -0.073063
C94   C     C_R   0.831725 0.729764 0.764383 -0.083384
C95   C     C_R   0.781909 0.727559 0.682724 -0.056967
C96   C     C_R   0.844424 0.183173 0.570314 0.027320
C97   C     C_R   0.846269 0.162541 0.659902 -0.080599
C98   C     C_R   0.929360 0.132666 0.702137 -0.092957
C99   C     C_R   0.010837 0.121950 0.655030 -0.111043
C100  C     C_R   0.009058 0.140097 0.565304 -0.086879
H1    H     H_    0.679699 0.053713 0.009280 0.178708
H2    H     H_    0.611348 0.425235 0.255369 0.148796
H3    H     H_    0.717840 0.313855 0.213547 0.122155
H4    H     H_    0.869397 0.345094 0.145086 0.111178
H5    H     H_    0.771460 0.944261 0.141787 0.125642
H6    H     H_    0.919299 0.980267 0.227171 0.123007
H7    H     H_    0.929803 0.108882 0.310829 0.129051
H8    H     H_    0.791959 0.202059 0.309333 0.122535
H9    H     H_    0.643421 0.167255 0.223913 0.120449
H10   H     H_    0.271512 0.444309 0.141748 0.125678
H11   H     H_    0.419340 0.480370 0.227121 0.123009
H12   H     H_    0.179669 0.553723 0.009272 0.178687
H13   H     H_    0.429774 0.608975 0.310799 0.129070
H14   H     H_    0.291877 0.702089 0.309328 0.122673
H15   H     H_    0.143354 0.667229 0.223922 0.120428
H16   H     H_    0.302431 0.823383 0.861321 0.136469
H17   H     H_    0.180098 0.767344 0.756365 0.143513
H18   H     H_    0.116839 0.850856 0.631367 0.155959
H19   H     H_    0.171139 0.993094 0.614539 0.108384
H20   H     H_    0.288032 0.052100 0.722400 0.094869
H21   H     H_    0.802476 0.323267 0.861124 0.136631
H22   H     H_    0.680154 0.267319 0.756132 0.143474
H23   H     H_    0.307541 0.101138 0.161522 0.127021
H24   H     H_    0.616869 0.350940 0.631238 0.155961
H25   H     H_    0.671137 0.493204 0.614567 0.108360
H26   H     H_    0.788013 0.552126 0.722491 0.094803
H27   H     H_    0.387569 0.388881 0.585340 0.125814
H28   H     H_    0.473432 0.393344 0.730722 0.126462
H29   H     H_    0.439434 0.290921 0.844738 0.133715
H30   H     H_    0.315931 0.185670 0.814663 0.122217
H31   H     H_    0.227098 0.182130 0.670395 0.082878
H32   H     H_    0.283400 0.669701 0.697022 0.137239
H33   H     H_    0.430482 0.617819 0.771477 0.143061
H34   H     H_    0.156973 0.068324 0.230759 0.148205
H35   H     H_    0.575070 0.599297 0.688207 0.109759
H36   H     H_    0.571957 0.630794 0.528868 0.134134
H37   H     H_    0.425367 0.683683 0.453247 0.108998
H38   H     H_    0.887428 0.889036 0.585321 0.125823
H39   H     H_    0.973321 0.893553 0.730679 0.126462
H40   H     H_    0.939523 0.791048 0.844680 0.133669
H41   H     H_    0.816180 0.685662 0.814616 0.122042
H42   H     H_    0.727302 0.682074 0.670375 0.082787
H43   H     H_    0.783402 0.169544 0.696971 0.137247
H44   H     H_    0.930485 0.117607 0.771379 0.143133
H45   H     H_    0.111355 0.925037 0.255244 0.148822
H46   H     H_    0.075090 0.099194 0.688105 0.109766
H47   H     H_    0.071988 0.130839 0.528798 0.134144
H48   H     H_    0.925392 0.183775 0.453220 0.108979
H49   H     H_    0.217810 0.813725 0.213117 0.122029
H50   H     H_    0.369362 0.845089 0.144716 0.111144
H51   H     H_    0.807513 0.601163 0.161223 0.126881
H52   H     H_    0.656940 0.568472 0.230527 0.148175
O1    O     O_3   0.500000 0.000000 0.500000 -0.458846
O2    O     O_R   0.885830 0.337110 0.539910 -0.546520
O3    O     O_R   0.692160 0.095230 0.468550 -0.537879
O4    O     O_R   0.692160 0.904770 0.468550 -0.515108
O5    O     O_R   0.192160 0.595230 0.468550 -0.537876
O6    O     O_R   0.192160 0.404770 0.468550 -0.515070
O7    O     O_R   0.316720 0.904790 0.427870 -0.510357
O8    O     O_R   0.316720 0.095210 0.427870 -0.509704
O9    O     O_R   0.816720 0.404790 0.427870 -0.510392
O10   O     O_R   0.816720 0.595210 0.427870 -0.509636
O11   O     O_R   0.594900 0.000000 0.310900 -0.514019
O12   O     O_3   0.000000 0.500000 0.500000 -0.458852
O13   O     O_R   0.094900 0.500000 0.310900 -0.514008
O14   O     O_R   0.483090 0.932320 0.697550 -0.530785
O15   O     O_R   0.483090 0.067680 0.697550 -0.525092
O16   O     O_R   0.983090 0.432320 0.697550 -0.530784
O17   O     O_R   0.983090 0.567680 0.697550 -0.525078
O18   O     O_R   0.438930 0.000000 0.294000 -0.547540
O19   O     O_R   0.938930 0.500000 0.294000 -0.547526
O20   O     O_R   0.605310 0.837110 0.563680 -0.532755
O21   O     O_R   0.605310 0.162890 0.563680 -0.513239
O22   O     O_R   0.105310 0.337110 0.563680 -0.532784
O23   O     O_R   0.105310 0.662890 0.563680 -0.513221
O24   O     O_R   0.385830 0.162890 0.539910 -0.545940
O25   O     O_R   0.385830 0.837110 0.539910 -0.546519
O26   O     O_R   0.885830 0.662890 0.539910 -0.545964
Zn1   Zn    Zn3+2 0.493670 0.096680 0.574000 0.969306
Zn2   Zn    Zn3+2 0.493670 0.903320 0.574000 0.965083
Zn3   Zn    Zn3+2 0.993670 0.596680 0.574000 0.969322
Zn4   Zn    Zn3+2 0.993670 0.403320 0.574000 0.965073
Zn5   Zn    Zn3+2 0.617760 0.000000 0.438070 0.986336
Zn6   Zn    Zn3+2 0.117760 0.500000 0.438070 0.986359
Zn7   Zn    Zn3+2 0.394920 0.000000 0.413930 0.967970
Zn8   Zn    Zn3+2 0.894920 0.500000 0.413930 0.967986

loop_
_geom_bond_atom_site_label_1
_geom_bond_atom_site_label_2
_ccdc_geom_bond_type
C6    H1    S    
C40   H45   S    
Br3   C34   S    
C93   C94   A    
C13   O3    A    
C32   C63   S    
C24   O6    A    
C65   C66   A    
C52   H6    S    
C87   C88   A    
C31   C79   A    
O1    Zn5   S    
C81   H30   S    
C82   H31   S    
O21   Zn1   S    
C20   O2    A    
C31   C33   A    
C30   C68   A    
C37   C38   A    
C42   H50   S    
C13   O21   A    
Br6   C11   S    
C5    C56   S    
C39   H34   S    
C85   C86   A    
C22   C27   S    
C9    C18   S    
C61   H14   S    
C93   H40   S    
C24   O22   A    
C5    C27   A    
O1    Zn2   S    
C37   C90   S    
C55   H9    S    
C18   O25   A    
C78   C80   A    
C49   H4    S    
C98   C99   A    
C92   H39   S    
C68   C90   A    
C71   H21   S    
C8    C17   S    
O5    Zn6   S    
C14   C96   S    
C7    H12   S    
C10   C12   D    
C25   O16   A    
C84   C85   A    
C75   H26   S    
O20   Zn2   S    
C95   H42   S    
O14   Zn2   S    
C83   C88   A    
O12   Zn8   S    
C70   C75   A    
C12   C89   S    
C91   C92   A    
C60   C61   A    
O2    Zn4   S    
C53   H7    S    
C22   O19   A    
C3    C96   A    
C43   C49   A    
C56   C62   A    
O4    Zn5   S    
C22   O13   A    
C67   H19   S    
C53   C54   A    
C83   C84   A    
C17   O24   A    
C4    C50   S    
C44   H51   S    
C45   C47   A    
C58   C59   A    
C51   C52   A    
C13   C14   S    
C64   H16   S    
O7    Zn7   S    
C41   H49   S    
C36   C57   A    
C94   C95   A    
C76   C82   A    
O12   Zn6   S    
C2    C43   S    
O23   Zn3   S    
C96   C97   A    
C89   C91   A    
C57   C79   A    
C35   O5    A    
C17   O8    A    
C97   H43   S    
O18   Zn7   S    
C2    C79   A    
C9    C16   D    
O17   Zn3   S    
C15   C76   S    
C25   O17   A    
C59   C60   A    
C33   C70   S    
C28   C32   A    
C11   C14   D    
C72   H22   S    
C76   C77   A    
C66   C67   A    
C38   H23   S    
O10   Zn8   S    
C70   C71   A    
C72   C73   A    
C73   H24   S    
C23   O15   A    
Br5   C10   S    
Br4   C36   S    
O12   Zn4   S    
C50   C51   A    
C77   C78   A    
C21   C26   S    
C73   C74   A    
C43   C44   A    
C52   C53   A    
C19   O26   A    
C56   C58   A    
C60   H13   S    
C1    O4    A    
C54   H8    S    
C54   C55   A    
C18   O7    A    
Br2   C31   S    
C1    C12   S    
O16   Zn4   S    
C39   C40   A    
C51   H5    S    
C47   C48   A    
O11   Zn5   S    
C86   C87   A    
C89   C95   A    
C21   O11   A    
C11   C20   S    
C67   C69   A    
C19   O10   A    
C2    C27   A    
C69   H20   S    
C3    H48   S    
C77   H27   S    
C46   C68   A    
Br1   C30   S    
C78   H28   S    
Br7   C8    S    
C6    C46   A    
C91   H38   S    
C4    C6    A    
C41   C42   A    
C8    C15   D    
C21   O18   A    
C5    C7    A    
C47   H2    S    
C98   H44   S    
C48   C49   A    
C86   H35   S    
C99   C100  A    
C4    C26   A    
C84   H32   S    
C16   C83   S    
C63   C69   A    
C85   H33   S    
C44   C45   A    
C50   C55   A    
C88   H37   S    
C38   C39   A    
C40   C41   A    
C45   H52   S    
C48   H3    S    
C10   C19   S    
C64   C65   A    
O25   Zn2   S    
C28   C34   A    
O9    Zn8   S    
O12   Zn3   S    
C97   C98   A    
O13   Zn6   S    
Br8   C9    S    
O24   Zn1   S    
O8    Zn7   S    
C1    O20   A    
C15   C24   S    
C74   H25   S    
C63   C64   A    
O1    Zn1   S    
C34   C46   A    
C30   C32   A    
C66   H18   S    
C100  H47   S    
C37   C42   A    
O26   Zn3   S    
C65   H17   S    
C35   O23   A    
C92   C93   A    
C26   C90   A    
O6    Zn6   S    
C29   C33   A    
C61   C62   A    
C25   C29   S    
C80   H29   S    
C99   H46   S    
O1    Zn7   S    
C62   H15   S    
C94   H41   S    
O15   Zn1   S    
C71   C72   A    
C29   C36   A    
C20   O9    A    
C87   H36   S    
C80   C81   A    
C74   C75   A    
C58   H10   S    
C3    C100  A    
C16   C35   S    
C23   C28   S    
O3    Zn5   S    
O22   Zn4   S    
C81   C82   A    
C59   H11   S    
O19   Zn8   S    
C23   O14   A    
C7    C57   A    
