data_mof_unit_47865.cif
_audit_creation_date              2013-03-05T15:58:38-0500
_audit_creation_method            fapswitch 2.2
_symmetry_space_group_name_H-M    P1
_symmetry_Int_Tables_number       1
_space_group_crystal_system       triclinic
_cell_length_a                    12.615431
_cell_length_b                    13.104441
_cell_length_c                    14.131915
_cell_angle_alpha                 91.284178
_cell_angle_beta                  101.594294
_cell_angle_gamma                 82.093088
_cell_volume                      2266.8006039

loop_
_atom_site_label
_atom_site_type_symbol
_atom_site_description
_atom_site_fract_x
_atom_site_fract_y
_atom_site_fract_z
_atom_type_partial_charge
O1    O     O_R   0.366740 0.627160 0.478260 -0.494949
O2    O     O_R   0.544830 0.662520 0.507340 -0.573018
C1    C     C_R   0.438679 0.690934 0.481117 0.903978
O3    O     O_R   0.410930 0.482320 0.611740 -0.526581
O4    O     O_R   0.589030 0.517680 0.640820 -0.571054
C2    C     C_R   0.500990 0.500054 0.670493 0.899846
Zn1   Zn    Zn3+2 0.381090 0.476390 0.480580 1.067922
Zn2   Zn    Zn3+2 0.618910 0.523610 0.519420 0.989436
O5    O     O_R   0.455170 0.337480 0.492660 -0.640849
O6    O     O_R   0.633260 0.372840 0.521740 -0.636712
O7    O     O_R   0.410970 0.482320 0.359180 -0.576302
O8    O     O_R   0.589070 0.517680 0.388260 -0.632210
C3    C     C_R   0.561808 0.308215 0.512183 0.841967
C4    C     C_R   0.499177 0.499610 0.329518 0.863834
C5    C     C_1   0.502692 0.500218 0.772405 -0.077337
C6    C     C_1   0.502563 0.500146 0.857748 0.080425
C7    C     C_1   0.501275 0.499866 0.957536 0.072517
C8    C     C_1   0.499777 0.499568 0.042630 0.061487
C9    C     C_1   0.498174 0.499287 0.142362 0.040339
C10   C     C_1   0.497692 0.499252 0.227645 -0.127528
C11   C     C_R   0.739004 0.044853 0.531903 -0.017945
C12   C     C_R   0.601665 0.197420 0.523378 -0.158048
C13   C     C_R   0.292342 0.843832 0.465980 0.362984
C14   C     C_R   0.276551 0.935498 0.518307 -0.169878
C15   C     C_R   0.365741 0.992315 0.547914 -0.119800
C16   C     C_R   0.463349 0.964028 0.510530 -0.001237
C17   C     C_R   0.479447 0.867325 0.467500 0.074228
C18   C     C_R   0.546453 0.027453 0.515027 0.066164
C19   C     C_R   0.651972 0.986348 0.500786 0.048947
C20   C     C_R   0.663196 0.892346 0.450205 -0.036683
C21   C     C_R   0.574800 0.836957 0.430524 -0.138603
C22   C     C_R   0.521806 0.133269 0.518118 -0.262470
C23   C     C_R   0.713461 0.153631 0.537702 -0.061969
C24   C     C_R   0.400191 0.801367 0.462291 -0.239014
H1    H     H_    0.437021 0.166332 0.506534 0.181744
H2    H     H_    0.580426 0.768913 0.385661 0.128552
C25   C     C_R   0.078849 0.399854 0.324845 0.389784
N1    N     N_R   0.222200 0.444680 0.454480 -0.191424
C26   C     C_R   0.813325 0.559488 0.643141 0.465428
C27   C     C_R   0.907804 0.493777 0.686159 0.218682
C28   C     C_R   0.976951 0.450512 0.626423 -0.223514
C29   C     C_R   0.955320 0.480558 0.529200 0.053307
C30   C     C_R   0.847898 0.520858 0.486671 0.149451
C31   C     C_R   0.035900 0.468525 0.473134 -0.166182
C32   C     C_R   0.002377 0.455109 0.373165 -0.020931
C33   C     C_R   0.894280 0.497102 0.328219 -0.000782
C34   C     C_R   0.819199 0.532864 0.386420 -0.252177
C35   C     C_R   0.146696 0.480325 0.509781 0.503824
C36   C     C_R   0.190728 0.394809 0.368547 -0.143438
N2    N     N_R   0.776970 0.554780 0.545050 -0.207277
H3    H     H_    0.052368 0.402534 0.657088 0.240847
H4    H     H_    0.742116 0.576307 0.353596 0.150433
C37   C     C_2   0.801560 0.220058 0.554956 0.583754
H5    H     H_    0.804247 0.277777 0.611357 0.055747
O9    O     O_2   0.870610 0.211936 0.504818 -0.491287
C38   C     C_2   0.861935 0.523417 0.224082 0.550736
H6    H     H_    0.776514 0.530219 0.188603 0.045511
O10   O     O_2   0.928892 0.543695 0.178404 -0.459400
S1    S     S_3+6 0.035150 0.315476 0.227990 0.113700
O11   O     O_2   0.048103 0.359303 0.134222 -0.147426
O12   O     O_2   0.103873 0.211807 0.244612 -0.262096
O13   O     O_3   0.903891 0.298993 0.221131 -0.548760
H7    H     H_    0.885558 0.256620 0.162718 0.401436
S2    S     S_3+6 0.180912 0.555200 0.618094 0.064311
O14   O     O_2   0.080965 0.619351 0.640865 -0.292450
O15   O     O_2   0.230375 0.482489 0.700914 -0.322813
O16   O     O_3   0.267083 0.639955 0.611950 -0.482799
H8    H     H_    0.281789 0.670682 0.677182 0.372792
S3    S     S_3+6 0.761625 0.665510 0.708581 0.091248
O17   O     O_2   0.685284 0.742341 0.641457 -0.325374
O18   O     O_2   0.703157 0.630550 0.782086 -0.253708
O19   O     O_3   0.866779 0.724018 0.765989 -0.486729
H9    H     H_    0.833050 0.782994 0.799792 0.394818
S4    S     S_3+6 0.944582 0.467451 0.811688 0.152287
O20   O     O_2   0.844581 0.457148 0.851260 -0.207707
O21   O     O_2   0.021556 0.368457 0.830088 -0.233680
O22   O     O_3   0.006617 0.563311 0.869421 -0.398176
H10   H     H_    0.072087 0.564868 0.841038 0.390629
C39   C     C_2   0.757180 0.855774 0.403818 0.384100
H11   H     H_    0.775207 0.774431 0.388330 0.065744
O23   O     O_2   0.811591 0.915953 0.377852 -0.506384
C40   C     C_2   0.850094 0.989342 0.572971 0.537573
H12   H     H_    0.864220 0.905822 0.573741 0.093115
O24   O     O_2   0.925480 0.034608 0.611720 -0.493796
S5    S     S_3+6 0.178632 0.791536 0.395872 0.064199
O25   O     O_2   0.107772 0.875789 0.333059 -0.250887
O26   O     O_2   0.214812 0.706057 0.331891 -0.257915
O27   O     O_3   0.104412 0.747773 0.468579 -0.507773
H13   H     H_    0.045343 0.717616 0.424597 0.380723
C41   C     C_2   0.360617 0.075155 0.621411 0.487761
H14   H     H_    0.432957 0.083874 0.675715 0.078737
O28   O     O_2   0.278604 0.137407 0.618784 -0.507960
C42   C     C_2   0.170505 0.964142 0.548745 0.670561
H15   H     H_    0.094440 0.968370 0.496288 0.136613
O29   O     O_2   0.167098 0.978089 0.633840 -0.466359
C43   C     C_2   0.273795 0.336881 0.320681 0.646757
H16   H     H_    0.333697 0.277615 0.359524 0.046841
O30   O     O_2   0.274571 0.353575 0.236178 -0.494429

loop_
_geom_bond_atom_site_label_1
_geom_bond_atom_site_label_2
_geom_bond_distance
_ccdc_geom_bond_type
C42   H15   1.083847 S    
C28   C29   1.400429 A    
C9    C10   1.206455 T    
N1    C36   1.378952 A    
S5    O25   1.503166 D    
Zn1   O7    1.834516 S    
C16   C17   1.400431 A    
O13   H7    0.990612 S    
C12   C22   1.388272 A    
C18   C19   1.417117 A    
C20   C21   1.391674 A    
O7    C4    1.313932 A    
C35   S2    1.809865 S    
C11   C23   1.421803 A    
C5    C6    1.206410 T    
C38   H6    1.085816 S    
C8    C9    1.413711 S    
S3    O18   1.501752 D    
O5    C3    1.321590 A    
C2    C5    1.436011 S    
C38   O10   1.220427 D    
C6    C7    1.413649 S    
S4    O22   1.680483 S    
C43   O30   1.221087 D    
C13   C14   1.408202 A    
N1    C35   1.377203 A    
O22   H10   0.990777 S    
C37   O9    1.221220 D    
S1    O11   1.503160 D    
C42   O29   1.220714 D    
C29   C31   1.400019 A    
O3    Zn1   1.817824 S    
S5    O26   1.503472 D    
C17   C24   1.399119 A    
C23   C37   1.483297 S    
O2    Zn2   1.922995 S    
S1    O12   1.503594 D    
S4    O20   1.502100 D    
C17   C21   1.410697 A    
O16   H8    0.990716 S    
S2    O16   1.672518 S    
C4    C10   1.435928 S    
C18   C22   1.380403 A    
C14   C15   1.422220 A    
O3    C2    1.311116 A    
C26   C27   1.407673 A    
C39   O23   1.221021 D    
C1    C24   1.474058 S    
C15   C16   1.435242 A    
C32   C33   1.423709 A    
C11   C19   1.417412 A    
O1    C1    1.310002 A    
S2    O15   1.503319 D    
S3    O19   1.680828 S    
C22   H1    1.078829 S    
C19   C20   1.414798 A    
C25   C36   1.415495 A    
C41   O28   1.221080 D    
Zn2   O8    1.817825 S    
C13   C24   1.407991 A    
C43   H16   1.080025 S    
C7    C8    1.206571 T    
C26   S3    1.773822 S    
O27   H13   0.990772 S    
C25   S1    1.787899 S    
S4    O21   1.503494 D    
C20   C39   1.485655 S    
C27   C28   1.390506 A    
O8    C4    1.310689 A    
C40   O24   1.219617 D    
C29   C30   1.402344 A    
C25   C32   1.404189 A    
Zn2   N2    2.049682 S    
C31   C32   1.405269 A    
S5    O27   1.679921 S    
Zn1   O5    1.922997 S    
C12   C23   1.423783 A    
C33   C34   1.402490 A    
S1    O13   1.682552 S    
O1    Zn1   1.959483 S    
C15   C41   1.489497 S    
O19   H9    0.990573 S    
O6    C3    1.305344 A    
O4    Zn2   1.834513 S    
C30   N2    1.360045 A    
C37   H5    1.085238 S    
C34   H4    1.078475 S    
C16   C18   1.415825 A    
S2    O14   1.503147 D    
O2    C1    1.318636 A    
C14   C42   1.483779 S    
C41   H14   1.085387 S    
O4    C2    1.313355 A    
Zn1   N1    2.061968 S    
C27   S4    1.770249 S    
C3    C12   1.470829 S    
C36   C43   1.474797 S    
S3    O17   1.499952 D    
C39   H11   1.085694 S    
C26   N2    1.372646 A    
C11   C40   1.497186 S    
Zn2   O6    1.959483 S    
C40   H12   1.084381 S    
C13   S5    1.782641 S    
C33   C38   1.481168 S    
C21   H2    1.085100 S    
C30   C34   1.396836 A    
C28   H3    1.081757 S    
C31   C35   1.417993 A    
