data_mof_unit_67259.cif
_audit_creation_date              2013-03-05T16:01:28-0500
_audit_creation_method            fapswitch 2.2
_symmetry_space_group_name_H-M    P1
_symmetry_Int_Tables_number       1
_space_group_crystal_system       triclinic
_cell_length_a                    20.273782
_cell_length_b                    20.628289
_cell_length_c                    9.106479
_cell_angle_alpha                 90.3009
_cell_angle_beta                  92.844604
_cell_angle_gamma                 89.734087
_cell_volume                      3803.67006551

loop_
_atom_site_label
_atom_site_type_symbol
_atom_site_description
_atom_site_fract_x
_atom_site_fract_y
_atom_site_fract_z
_atom_type_partial_charge
P1    P     P_3+3 0.136530 0.426510 0.931350 0.484766
P2    P     P_3+3 0.136530 0.573490 0.431350 0.483693
P3    P     P_3+3 0.636530 0.926510 0.931350 0.484539
P4    P     P_3+3 0.636530 0.073490 0.431350 0.483377
O1    O     O_2   0.130070 0.404060 0.104920 -0.359702
O2    O     O_2   0.130070 0.595940 0.604920 -0.368295
O3    O     O_2   0.630070 0.904060 0.104920 -0.359691
O4    O     O_2   0.630070 0.095940 0.604920 -0.368305
O5    O     O_3   0.075780 0.466370 0.861070 -0.401774
O6    O     O_3   0.075780 0.533630 0.361070 -0.383592
O7    O     O_3   0.575780 0.966370 0.861070 -0.402035
O8    O     O_3   0.575780 0.033630 0.361070 -0.383727
O9    O     O_3   0.022320 0.344950 0.359800 -0.368030
O10   O     O_3   0.022320 0.655050 0.859800 -0.373736
O11   O     O_3   0.522320 0.844950 0.359800 -0.368071
O12   O     O_3   0.522320 0.155050 0.859800 -0.373750
O13   O     O_2   0.139398 0.307511 0.288102 -0.285645
O14   O     O_2   0.138405 0.695076 0.788891 -0.280507
O15   O     O_2   0.639403 0.807500 0.288190 -0.285628
O16   O     O_2   0.638401 0.195077 0.788900 -0.280366
O17   O     O_3   0.209371 0.471265 0.918712 -0.568842
O18   O     O_3   0.209043 0.526990 0.424273 -0.589702
O19   O     O_3   0.709396 0.971225 0.918716 -0.568915
O20   O     O_3   0.709064 0.027000 0.424297 -0.589608
O21   O     O_3   0.065660 0.208602 0.346250 -0.451918
O22   O     O_3   0.060912 0.791692 0.847447 -0.431679
O23   O     O_3   0.565645 0.708594 0.346284 -0.451913
O24   O     O_3   0.560903 0.291682 0.847418 -0.431676
C1    C     C_3   0.993834 0.112814 0.340518 0.824951
C2    C     C_3   0.986839 0.885951 0.843723 0.842076
C3    C     C_3   0.493837 0.612792 0.340639 0.825280
C4    C     C_3   0.486886 0.385971 0.843685 0.842488
P5    P     P_3+3 0.863410 0.426100 0.379280 0.424777
P6    P     P_3+3 0.863410 0.573900 0.879280 0.425130
P7    P     P_3+3 0.363410 0.926100 0.379280 0.424805
P8    P     P_3+3 0.363410 0.073900 0.879280 0.425096
P9    P     P_3+3 0.917697 0.286740 0.894096 0.433435
P10   P     P_3+3 0.919210 0.714862 0.392958 0.440306
P11   P     P_3+3 0.417688 0.786742 0.894133 0.433600
P12   P     P_3+3 0.419216 0.214865 0.392946 0.440467
O25   O     O_2   0.869860 0.403670 0.205810 -0.397941
O26   O     O_2   0.869860 0.596330 0.705810 -0.416911
O27   O     O_2   0.369860 0.903670 0.205810 -0.397897
O28   O     O_2   0.369860 0.096330 0.705810 -0.416941
O29   O     O_3   0.977590 0.344880 0.951200 -0.372094
O30   O     O_3   0.977590 0.655120 0.451200 -0.369622
O31   O     O_3   0.477590 0.844880 0.951200 -0.372070
O32   O     O_3   0.477590 0.155120 0.451200 -0.369525
O33   O     O_2   0.868260 0.283950 0.018314 -0.375195
O34   O     O_2   0.870383 0.719122 0.517889 -0.378777
O35   O     O_2   0.368257 0.783970 0.018365 -0.375150
O36   O     O_2   0.370395 0.219135 0.517885 -0.378719
O37   O     O_3   0.785930 0.467542 0.375824 -0.582168
O38   O     O_3   0.785107 0.535305 0.879169 -0.579154
O39   O     O_3   0.285931 0.967546 0.375816 -0.582153
O40   O     O_3   0.285104 0.035306 0.879159 -0.579125
O41   O     O_3   0.955680 0.209992 0.902959 -0.582229
O42   O     O_3   0.957195 0.791491 0.402420 -0.574654
O43   O     O_3   0.455662 0.709987 0.903032 -0.582097
O44   O     O_3   0.457214 0.291489 0.402402 -0.574547
C5    C     C_3   0.023696 0.213397 0.875318 0.873768
C6    C     C_3   0.025451 0.788405 0.375930 0.872165
C7    C     C_3   0.523684 0.713387 0.875428 0.873763
C8    C     C_3   0.525471 0.288389 0.375918 0.872149
H1    H     H_    0.031485 0.248436 0.787853 -0.004008
H2    H     H_    0.034144 0.753155 0.287738 -0.008571
H3    H     H_    0.531478 0.748414 0.787950 -0.003947
H4    H     H_    0.534157 0.253136 0.287729 -0.008645
C9    C     C_3   0.049837 0.146747 0.820342 -0.056298
C10   C     C_3   0.050737 0.855882 0.324363 -0.074917
C11   C     C_3   0.549839 0.646736 0.820490 -0.056208
C12   C     C_3   0.550777 0.355859 0.324348 -0.074441
C13   C     C_3   0.776092 0.470918 0.828445 0.779945
C14   C     C_3   0.784412 0.532538 0.327414 0.739699
C15   C     C_3   0.276087 0.970920 0.828425 0.780070
C16   C     C_3   0.284415 0.032542 0.327395 0.739750
C17   C     C_3   0.700711 0.456761 0.824738 -0.316477
C18   C     C_3   0.712230 0.559440 0.330877 -0.334848
C19   C     C_3   0.200704 0.956761 0.824681 -0.316751
C20   C     C_3   0.212237 0.059453 0.330856 -0.334887
H5    H     H_    0.675313 0.487234 0.740235 0.201336
H6    H     H_    0.679106 0.527561 0.262387 0.225686
H7    H     H_    0.175314 0.987224 0.740150 0.201282
H8    H     H_    0.179104 0.027581 0.262369 0.225659
H9    H     H_    0.690513 0.405693 0.791997 0.264866
H10   H     H_    0.709226 0.608341 0.279936 0.244536
H11   H     H_    0.190505 0.905691 0.791955 0.264803
H12   H     H_    0.209240 0.108354 0.279905 0.244515
Ba1   Ba    Ba6+2 0.999980 0.452130 0.155200 1.532320
Ba2   Ba    Ba6+2 0.999980 0.547870 0.655200 1.529745
Ba3   Ba    Ba6+2 0.499980 0.952130 0.155200 1.532187
Ba4   Ba    Ba6+2 0.499980 0.047870 0.655200 1.529620
C21   C     C_3   0.222223 0.513781 0.036569 0.535960
C22   C     C_3   0.225856 0.497845 0.559389 0.576191
C23   C     C_3   0.722174 0.013849 0.036423 0.535548
C24   C     C_3   0.725746 0.997769 0.559366 0.576215
H13   H     H_    0.196188 0.500690 0.136639 0.101988
H14   H     H_    0.219649 0.530585 0.654719 0.100348
H15   H     H_    0.696117 0.000807 0.136502 0.101932
H16   H     H_    0.719746 0.030595 0.654665 0.099865
C25   C     C_3   0.297261 0.512628 0.076864 0.349934
C26   C     C_3   0.298852 0.478944 0.568559 0.277759
C27   C     C_3   0.797204 0.012782 0.076849 0.350925
C28   C     C_3   0.798647 0.978433 0.568496 0.277645
H17   H     H_    0.305987 0.536471 0.185582 0.119659
H18   H     H_    0.308946 0.456129 0.676867 0.113706
H19   H     H_    0.805884 0.036741 0.185485 0.119798
H20   H     H_    0.808639 0.955727 0.676982 0.113587
O45   O     O_3   0.924190 0.533610 0.949240 -0.412774
O46   O     O_3   0.924190 0.466390 0.449240 -0.415107
O47   O     O_3   0.424190 0.033610 0.949240 -0.412759
O48   O     O_3   0.424190 0.966390 0.449240 -0.415103
P13   P     P_3+3 0.085326 0.711926 0.899651 0.604978
P14   P     P_3+3 0.087088 0.289335 0.398707 0.595659
P15   P     P_3+3 0.585320 0.211927 0.899657 0.604998
P16   P     P_3+3 0.587074 0.789325 0.398757 0.595549
C29   C     C_3   0.998467 0.189406 0.361111 0.779036
C30   C     C_3   0.993464 0.809728 0.865479 0.797273
C31   C     C_3   0.498457 0.689389 0.361193 0.779224
C32   C     C_3   0.493466 0.309744 0.865493 0.797306
H21   H     H_    0.055156 0.151455 0.701207 0.227440
H22   H     H_    0.057298 0.851314 0.204994 0.229096
H23   H     H_    0.555155 0.651432 0.701350 0.227461
H24   H     H_    0.557327 0.351301 0.204972 0.229079
C33   C     C_R   0.238390 0.301311 0.000402 0.043508
C34   C     C_R   0.242564 0.695687 0.494387 0.005495
C35   C     C_R   0.738414 0.801338 0.000409 0.043207
C36   C     C_R   0.742601 0.195660 0.494337 0.004774
C37   C     C_R   0.146958 0.345744 0.829691 0.298942
C38   C     C_R   0.149879 0.652207 0.325034 0.280052
C39   C     C_R   0.646932 0.845724 0.829759 0.299121
C40   C     C_R   0.649893 0.152198 0.325017 0.280099
C41   C     C_R   0.107761 0.334224 0.696993 -0.197638
C42   C     C_R   0.110254 0.663425 0.193356 -0.214917
C43   C     C_R   0.607716 0.834181 0.697087 -0.197522
C44   C     C_R   0.610264 0.163418 0.193349 -0.214982
C45   C     C_R   0.130911 0.293102 0.586428 0.154577
C46   C     C_R   0.129115 0.708793 0.087893 0.150951
C47   C     C_R   0.630876 0.793069 0.586505 0.154423
C48   C     C_R   0.629110 0.208799 0.087899 0.150785
C49   C     C_R   0.188966 0.256813 0.614560 0.305488
C50   C     C_R   0.183959 0.748739 0.119669 0.316481
C51   C     C_R   0.688940 0.756793 0.614622 0.305315
C52   C     C_R   0.683954 0.248746 0.119668 0.316425
C53   C     C_R   0.221162 0.255894 0.755963 -0.085120
C54   C     C_R   0.219207 0.746331 0.257750 -0.085760
C55   C     C_R   0.721144 0.755884 0.756013 -0.085272
C56   C     C_R   0.719215 0.246326 0.257732 -0.085790
C57   C     C_R   0.202154 0.302001 0.863162 -0.126517
C58   C     C_R   0.204040 0.696865 0.359888 -0.112337
C59   C     C_R   0.702146 0.801999 0.863204 -0.126576
C60   C     C_R   0.704059 0.196852 0.359860 -0.112169
C61   C     C_R   0.803750 0.704828 0.932309 -0.071284
C62   C     C_R   0.803681 0.295339 0.432688 -0.073672
C63   C     C_R   0.303752 0.204825 0.932287 -0.071253
C64   C     C_R   0.303667 0.795347 0.432714 -0.073838
C65   C     C_R   0.788269 0.754130 0.035428 0.058155
C66   C     C_R   0.790700 0.244187 0.531979 0.073799
C67   C     C_R   0.288256 0.254115 0.035419 0.058215
C68   C     C_R   0.290675 0.744204 0.532020 0.073878
C69   C     C_R   0.852113 0.655195 0.974581 0.324012
C70   C     C_R   0.851149 0.345510 0.476304 0.322508
C71   C     C_R   0.352116 0.155195 0.974567 0.323887
C72   C     C_R   0.351142 0.845513 0.476321 0.322497
C73   C     C_R   0.883627 0.659278 0.114419 -0.481050
C74   C     C_R   0.882291 0.341546 0.616757 -0.478909
C75   C     C_R   0.383630 0.159278 0.114405 -0.481083
C76   C     C_R   0.382279 0.841550 0.616781 -0.478985
C77   C     C_R   0.869886 0.708148 0.214648 0.318211
C78   C     C_R   0.870706 0.291224 0.713099 0.300796
C79   C     C_R   0.369887 0.208146 0.214636 0.318073
C80   C     C_R   0.370691 0.791230 0.713134 0.300572
C81   C     C_R   0.821899 0.755139 0.175101 -0.059975
C82   C     C_R   0.824805 0.242889 0.670926 -0.086444
C83   C     C_R   0.321886 0.255126 0.175096 -0.059754
C84   C     C_R   0.324780 0.742903 0.670969 -0.085886
C85   C     C_R   0.770371 0.707794 0.792501 -0.096302
C86   C     C_R   0.768136 0.294284 0.295719 -0.092718
C87   C     C_R   0.270385 0.207801 0.792462 -0.096339
C88   C     C_R   0.268128 0.794288 0.295737 -0.092704
H25   H     H_    0.811497 0.793208 0.253179 0.177773
H26   H     H_    0.815845 0.204058 0.747057 0.157996
H27   H     H_    0.311475 0.293191 0.253179 0.177800
H28   H     H_    0.315812 0.704077 0.747106 0.158278
H29   H     H_    0.916553 0.620849 0.148898 0.141872
H30   H     H_    0.913466 0.380582 0.655856 0.147596
H31   H     H_    0.416555 0.120849 0.148881 0.141892
H32   H     H_    0.413453 0.880586 0.655878 0.147623
H33   H     H_    0.226776 0.336074 0.084016 0.185789
H34   H     H_    0.234047 0.658317 0.573803 0.156578
H35   H     H_    0.726827 0.836124 0.084002 0.185784
H36   H     H_    0.734105 0.158272 0.573727 0.156267
H37   H     H_    0.780636 0.671081 0.712638 0.209905
H38   H     H_    0.776203 0.333017 0.220482 0.208731
H39   H     H_    0.280658 0.171095 0.712589 0.209923
H40   H     H_    0.276205 0.833014 0.220489 0.208762
C89   C     C_3   0.952076 0.222868 0.246765 -0.722065
H41   H     H_    0.954665 0.196363 0.144233 0.252833
H42   H     H_    0.899868 0.221769 0.278084 0.212367
H43   H     H_    0.964102 0.273193 0.222862 0.319293
C90   C     C_3   0.947041 0.775418 0.753226 -0.747221
H44   H     H_    0.953838 0.797452 0.647290 0.268271
H45   H     H_    0.954748 0.723360 0.740470 0.312408
H46   H     H_    0.894593 0.782068 0.779650 0.212819
C91   C     C_3   0.452053 0.722843 0.246852 -0.722195
H47   H     H_    0.454624 0.696328 0.144323 0.252783
H48   H     H_    0.399850 0.721755 0.278202 0.212459
H49   H     H_    0.464087 0.773164 0.222923 0.319283
C92   C     C_3   0.447010 0.275432 0.753313 -0.747324
H50   H     H_    0.453888 0.297358 0.647305 0.268466
H51   H     H_    0.454596 0.223345 0.740850 0.312195
H52   H     H_    0.394565 0.282203 0.779632 0.212810
C93   C     C_3   0.667474 0.471798 0.967763 -0.730502
H53   H     H_    0.678614 0.434509 0.052746 0.262034
H54   H     H_    0.680820 0.520575 0.008594 0.239306
H55   H     H_    0.614044 0.474248 0.945934 0.332886
C94   C     C_3   0.682252 0.564742 0.480322 -0.705972
H56   H     H_    0.715782 0.587676 0.564568 0.233838
H57   H     H_    0.638826 0.597162 0.470860 0.325953
H58   H     H_    0.665770 0.516206 0.513563 0.257587
C95   C     C_3   0.167448 0.971811 0.967671 -0.730360
H59   H     H_    0.178553 0.934513 0.052653 0.262125
H60   H     H_    0.180804 0.020579 0.008535 0.239295
H61   H     H_    0.114024 0.974288 0.945762 0.332858
C96   C     C_3   0.182262 0.064770 0.480299 -0.706099
H62   H     H_    0.215802 0.087690 0.564543 0.233871
H63   H     H_    0.138850 0.097209 0.470828 0.325949
H64   H     H_    0.165758 0.016241 0.513535 0.257609
C97   C     C_3   0.200047 0.580976 0.987232 -0.962831
H65   H     H_    0.218097 0.616995 0.069928 0.193627
H66   H     H_    0.219839 0.593803 0.879811 0.268677
H67   H     H_    0.145829 0.581685 0.971135 0.262379
C98   C     C_3   0.183925 0.438792 0.572016 -0.935610
H68   H     H_    0.210485 0.403064 0.642931 0.189750
H69   H     H_    0.137927 0.455220 0.619744 0.260675
H70   H     H_    0.172480 0.416081 0.462829 0.266217
C99   C     C_3   0.699969 0.081001 0.986782 -0.962446
H71   H     H_    0.718007 0.117092 0.069351 0.193487
H72   H     H_    0.719775 0.093757 0.879319 0.268572
H73   H     H_    0.645748 0.081684 0.970668 0.262513
C100  C     C_3   0.683461 0.938958 0.572038 -0.934573
H74   H     H_    0.637623 0.955594 0.620185 0.261026
H75   H     H_    0.671730 0.916387 0.462827 0.266132
H76   H     H_    0.709950 0.903042 0.642547 0.189113
Cl1   Cl    Cl    0.326885 0.431265 0.091767 -0.703829
Cl2   Cl    Cl    0.347769 0.550149 0.566801 -0.702493
Cl3   Cl    Cl    0.826881 0.931439 0.092238 -0.703769
Cl4   Cl    Cl    0.848021 0.049332 0.566224 -0.701827
C101  C     C_3   0.338150 0.546962 0.964033 -0.878687
H77   H     H_    0.320420 0.533514 0.852106 0.277945
H78   H     H_    0.334599 0.600430 0.976275 0.234838
H79   H     H_    0.390611 0.532397 0.978098 0.300724
C102  C     C_3   0.317196 0.430116 0.450018 -0.784106
H80   H     H_    0.282503 0.434025 0.353216 0.276851
H81   H     H_    0.368257 0.438046 0.416973 0.284072
H82   H     H_    0.313497 0.379831 0.492150 0.227415
C103  C     C_3   0.838102 0.047034 0.963871 -0.879369
H83   H     H_    0.820398 0.033493 0.851908 0.277922
H84   H     H_    0.834560 0.100527 0.975942 0.234797
H85   H     H_    0.890565 0.032475 0.978085 0.300695
C104  C     C_3   0.816664 0.929277 0.450272 -0.783343
H86   H     H_    0.781925 0.933208 0.353522 0.276901
H87   H     H_    0.867795 0.936823 0.417006 0.284269
H88   H     H_    0.812714 0.879068 0.492894 0.227147
Cl5   Cl    Cl    0.968113 0.210854 0.533651 -0.787360
Cl6   Cl    Cl    0.965959 0.788410 0.040040 -0.775497
Cl7   Cl    Cl    0.468117 0.710845 0.533742 -0.786884
Cl8   Cl    Cl    0.465973 0.288441 0.040077 -0.775231
Cl9   Cl    Cl    0.013249 0.068001 0.503306 -0.644214
Cl10  Cl    Cl    0.000929 0.931206 0.008368 -0.668957
Cl11  Cl    Cl    0.513197 0.567986 0.503471 -0.644517
Cl12  Cl    Cl    0.500890 0.431232 0.008359 -0.668951
C105  C     C_3   0.925855 0.088888 0.282730 -0.860137
H89   H     H_    0.918563 0.099435 0.164955 0.215010
H90   H     H_    0.885836 0.113804 0.339375 0.280379
H91   H     H_    0.921284 0.035558 0.294722 0.316289
C106  C     C_3   0.919759 0.909456 0.780088 -0.925482
H92   H     H_    0.912000 0.895071 0.663423 0.238389
H93   H     H_    0.917637 0.963154 0.782323 0.316378
H94   H     H_    0.879116 0.889758 0.842913 0.291365
C107  C     C_3   0.425881 0.588847 0.282753 -0.861001
H95   H     H_    0.418663 0.599342 0.164953 0.215243
H96   H     H_    0.385826 0.613784 0.339196 0.280622
H97   H     H_    0.421304 0.535531 0.294852 0.315677
C108  C     C_3   0.419870 0.409513 0.779796 -0.926339
H98   H     H_    0.412188 0.395090 0.663146 0.238299
H99   H     H_    0.417790 0.463217 0.781950 0.316233
H100  H     H_    0.379163 0.389868 0.842479 0.291509
C109  C     C_3   0.042830 0.367409 0.662388 -0.712081
H101  H     H_    0.019087 0.387994 0.754879 0.262675
H102  H     H_    0.046290 0.405883 0.579234 0.251106
H103  H     H_    0.007947 0.330358 0.621216 0.230879
C110  C     C_3   0.046699 0.628560 0.159296 -0.687949
H104  H     H_    0.052720 0.586418 0.085365 0.244688
H105  H     H_    0.021521 0.613356 0.254309 0.255960
H106  H     H_    0.011107 0.663833 0.112401 0.224484
C111  C     C_3   0.542795 0.867375 0.662448 -0.712210
H107  H     H_    0.519061 0.888004 0.754898 0.262750
H108  H     H_    0.546261 0.905826 0.579259 0.251078
H109  H     H_    0.507909 0.830327 0.621294 0.230926
C112  C     C_3   0.546720 0.128538 0.159287 -0.687874
H110  H     H_    0.552761 0.086380 0.085419 0.244652
H111  H     H_    0.521526 0.113353 0.254291 0.255955
H112  H     H_    0.511133 0.163800 0.112323 0.224453
Cl13  Cl    Cl    0.223798 0.216540 0.466705 -0.692487
Cl14  Cl    Cl    0.209531 0.800257 0.980556 -0.674337
Cl15  Cl    Cl    0.723780 0.716531 0.466760 -0.692465
Cl16  Cl    Cl    0.709527 0.300261 0.980546 -0.674258
Cl17  Cl    Cl    0.052233 0.084651 0.215949 -0.690074
Cl18  Cl    Cl    0.046287 0.914113 0.723037 -0.674208
Cl19  Cl    Cl    0.552274 0.584625 0.216163 -0.690256
Cl20  Cl    Cl    0.546415 0.414097 0.723153 -0.674409
Cl21  Cl    Cl    0.070404 0.242200 0.032938 -0.585906
Cl22  Cl    Cl    0.071576 0.759587 0.533635 -0.573369
Cl23  Cl    Cl    0.570377 0.742210 0.033046 -0.585810
Cl24  Cl    Cl    0.571584 0.259564 0.533635 -0.573176
C113  C     C_3   0.119758 0.128500 0.876601 -0.860244
H113  H     H_    0.121562 0.114482 0.993092 0.328683
H114  H     H_    0.139002 0.088524 0.809177 0.263269
H115  H     H_    0.152849 0.169751 0.866790 0.247710
C114  C     C_3   0.119410 0.876738 0.386014 -0.793611
H116  H     H_    0.119084 0.892627 0.501531 0.321796
H117  H     H_    0.154562 0.836418 0.380387 0.240844
H118  H     H_    0.138111 0.917362 0.320435 0.254276
C115  C     C_3   0.619765 0.628511 0.876766 -0.860262
H119  H     H_    0.621566 0.614480 0.993251 0.328674
H120  H     H_    0.639030 0.588549 0.809326 0.263257
H121  H     H_    0.652844 0.669776 0.866994 0.247753
C116  C     C_3   0.619454 0.376700 0.386003 -0.793800
H122  H     H_    0.619115 0.392652 0.501471 0.321793
H123  H     H_    0.654584 0.336357 0.380533 0.240934
H124  H     H_    0.638193 0.417279 0.320348 0.254238
C117  C     C_3   0.001934 0.090879 0.844315 -0.502277
H125  H     H_    0.024023 0.043913 0.813192 0.299756
H126  H     H_    0.988961 0.088697 0.959982 0.257681
H127  H     H_    0.955540 0.098076 0.776376 0.285366
C118  C     C_3   0.000655 0.910643 0.346419 -0.486766
H128  H     H_    0.021214 0.957699 0.313581 0.305175
H129  H     H_    0.954910 0.901480 0.277798 0.277946
H130  H     H_    0.986867 0.914036 0.461683 0.268195
C119  C     C_3   0.501955 0.590861 0.844503 -0.502699
H131  H     H_    0.524045 0.543904 0.813312 0.299750
H132  H     H_    0.489022 0.588662 0.960197 0.257748
H133  H     H_    0.455539 0.598058 0.776641 0.285554
C120  C     C_3   0.500713 0.410626 0.346449 -0.488011
H134  H     H_    0.454947 0.401465 0.277889 0.278145
H135  H     H_    0.486965 0.414012 0.461747 0.268124
H136  H     H_    0.521270 0.457682 0.313596 0.305277
C121  C     C_3   0.797146 0.465493 0.675895 -0.916075
H137  H     H_    0.777186 0.420425 0.624464 0.216432
H138  H     H_    0.775799 0.506567 0.617823 0.260501
H139  H     H_    0.851512 0.468291 0.674611 0.252721
C122  C     C_3   0.800804 0.533123 0.171908 -0.853090
H140  H     H_    0.772312 0.494498 0.121382 0.248740
H141  H     H_    0.784786 0.579618 0.122417 0.203993
H142  H     H_    0.853710 0.522864 0.158670 0.271493
C123  C     C_3   0.297150 0.965498 0.675884 -0.916005
H143  H     H_    0.277192 0.920431 0.624449 0.216411
H144  H     H_    0.275801 0.006571 0.617808 0.260489
H145  H     H_    0.351515 0.968300 0.674610 0.252725
C124  C     C_3   0.300796 0.033118 0.171886 -0.853035
H146  H     H_    0.272279 0.994505 0.121373 0.248692
H147  H     H_    0.284793 0.079618 0.122402 0.203986
H148  H     H_    0.353697 0.022840 0.158629 0.271528
C125  C     C_3   0.812844 0.418949 0.918743 -0.723396
H149  H     H_    0.808642 0.372954 0.857964 0.213566
H150  H     H_    0.865758 0.430304 0.938605 0.269420
H151  H     H_    0.788410 0.407574 0.019981 0.253430
C126  C     C_3   0.833405 0.575663 0.412094 -0.718299
H152  H     H_    0.877696 0.586763 0.352638 0.197925
H153  H     H_    0.810804 0.620392 0.452143 0.264054
H154  H     H_    0.854015 0.547737 0.501148 0.283001
C127  C     C_3   0.312832 0.918948 0.918730 -0.723483
H155  H     H_    0.308608 0.872954 0.857977 0.213581
H156  H     H_    0.365748 0.930288 0.938575 0.269399
H157  H     H_    0.288403 0.907591 0.019980 0.253443
C128  C     C_3   0.333418 0.075664 0.412054 -0.718391
H158  H     H_    0.377718 0.086738 0.352603 0.197939
H159  H     H_    0.310828 0.120406 0.452056 0.264033
H160  H     H_    0.354012 0.047747 0.501138 0.283011

loop_
_geom_bond_atom_site_label_1
_geom_bond_atom_site_label_2
_geom_bond_distance
_ccdc_geom_bond_type
C41   C45   1.409912 A    
C123  H143  1.107913 S    
C111  H108  1.104571 S    
C50   C54   1.416120 A    
O8    Ba3   2.899600 S    
C39   C59   1.455694 A    
P6    O26   1.659934 D    
C44   C48   1.411962 A    
P6    C69   1.902300 S    
C19   H11   1.110866 S    
C118  H128  1.106590 S    
C87   H39   1.074031 S    
C117  H125  1.106891 S    
C107  H97   1.110681 S    
C43   C47   1.409965 A    
C85   H37   1.074038 S    
P3    C39   1.917653 S    
P11   O31   1.768497 S    
C62   C66   1.427044 A    
P1    C37   1.917658 S    
O20   C24   1.398391 S    
C23   H15   1.110724 S    
C117  H127  1.109707 S    
C105  H91   1.110841 S    
C6    C10   1.567866 S    
P12   O32   1.769724 S    
P14   C45   1.888449 S    
C9    C113  1.529271 S    
C89   H42   1.110137 S    
O10   Ba2   2.906393 S    
C128  H160  1.064497 S    
C54   C58   1.429029 A    
C66   C82   1.411799 A    
C26   Cl2   1.776692 S    
P2    O18   1.755318 S    
O4    Ba4   2.880589 S    
C20   C96   1.520938 S    
P4    O8    1.590043 S    
C35   C65   1.426105 A    
C88   H40   1.073607 S    
C49   C53   1.414661 A    
C126  H154  1.064501 S    
C91   H48   1.110136 S    
C12   H24   1.105162 S    
P5    O37   1.783853 S    
C90   H46   1.109540 S    
C38   C42   1.429126 A    
C122  H141  1.102533 S    
C93   H54   1.101126 S    
C73   C77   1.392810 A    
C124  H148  1.104653 S    
C72   C76   1.400630 A    
C127  H157  1.094986 S    
C21   C25   1.547239 S    
O11   P16   1.763534 S    
C44   C112  1.496728 S    
C75   C79   1.392808 A    
C112  H110  1.106724 S    
C27   Cl3   1.783799 S    
C61   C69   1.454374 A    
C41   C109  1.501180 S    
C113  H115  1.092790 S    
C97   H65   1.105611 S    
C51   Cl15  1.754712 S    
C86   H38   1.073603 S    
C18   H6    1.109346 S    
C6    Cl22  1.777881 S    
C53   C87   1.432455 A    
P8    O47   1.591598 S    
C54   C88   1.433001 A    
C120  H136  1.106623 S    
C33   C57   1.418031 A    
C37   C41   1.432369 A    
C16   C128  1.515785 S    
C7    C11   1.560172 S    
P6    O38   1.779209 S    
C123  H145  1.104618 S    
C24   C28   1.527452 S    
C40   C60   1.458366 A    
P8    O28   1.659934 D    
P9    O29   1.768481 S    
O12   P15   1.761565 S    
C118  H130  1.101355 S    
P10   C77   1.869103 S    
C83   H27   1.083614 S    
C78   C82   1.405970 A    
C112  H112  1.095591 S    
C84   H28   1.083954 S    
C10   C118  1.534445 S    
C74   H30   1.074272 S    
O5    Ba2   2.902743 S    
Ba4   O47   3.168323 S    
O41   C5    1.416099 S    
C110  H106  1.095586 S    
O22   C30   1.432527 S    
O43   C7    1.416114 S    
O44   C8    1.417524 S    
C26   C102  1.530708 S    
C3    Cl19  1.773740 S    
C127  H156  1.104974 S    
C1    Cl9   1.777684 S    
C20   H12   1.112676 S    
C125  H149  1.097446 S    
C64   C88   1.409338 A    
O17   C21   1.397664 S    
O19   C23   1.397797 S    
C7    Cl23  1.780807 S    
O27   Ba3   2.884590 S    
P3    O7    1.587609 S    
O11   Ba3   2.918059 S    
C111  H107  1.075154 S    
C5    H1    1.096075 S    
C22   C26   1.527035 S    
C108  H99   1.108532 S    
C114  H116  1.100512 S    
C103  H84   1.110702 S    
C13   C17   1.555927 S    
C27   H19   1.110101 S    
O26   Ba2   2.874412 S    
O21   P14   1.779946 S    
C14   C126  1.515778 S    
C15   C19   1.555967 S    
C92   H52   1.109510 S    
P12   C79   1.869165 S    
P9    O41   1.757802 S    
O25   Ba1   2.884590 S    
C121  H137  1.107924 S    
P12   O44   1.761398 S    
C96   H64   1.105457 S    
P4    C40   1.921927 S    
C101  H77   1.098477 S    
C16   C124  1.470638 S    
C8    H4    1.100677 S    
C11   H23   1.100419 S    
C3    C107  1.533439 S    
C97   H67   1.101734 S    
C18   C94   1.520974 S    
C104  H86   1.103388 S    
P2    Ba2   3.561417 S    
C100  H74   1.099773 S    
C23   C99   1.518702 S    
C34   H34   1.080080 S    
C55   C85   1.432435 A    
C35   C59   1.418056 A    
C47   C51   1.405418 A    
C36   C60   1.419861 A    
O6    Ba1   2.899600 S    
C38   C58   1.458365 A    
P8    C71   1.902235 S    
C13   C125  1.523690 S    
P7    O27   1.654964 D    
C98   H68   1.103177 S    
C104  H87   1.106229 S    
C75   H31   1.072137 S    
O40   C15   1.413630 S    
P10   O42   1.761379 S    
C99   H71   1.105778 S    
C90   H45   1.090883 S    
O14   P13   1.548152 D    
C23   C27   1.547297 S    
C96   H62   1.105375 S    
C119  H132  1.099469 S    
C1    C105  1.533481 S    
C61   C85   1.413339 A    
C6    H2    1.100695 S    
C63   C67   1.425073 A    
C64   C68   1.427041 A    
O24   C32   1.432528 S    
C125  H151  1.095020 S    
Ba3   Ba4   4.953581 S    
C2    C30   1.590056 S    
C63   C71   1.454361 A    
C94   H56   1.105383 S    
O2    Ba2   2.880589 S    
Ba1   O46   3.164385 S    
C4    Cl20  1.772748 S    
C35   H35   1.077047 S    
C36   H36   1.080103 S    
Ba3   O48   3.164385 S    
C55   C59   1.424881 A    
C37   C57   1.455690 A    
C110  H104  1.106750 S    
P5    Ba1   3.564349 S    
C98   H69   1.099607 S    
C10   H22   1.105150 S    
C15   C127  1.523690 S    
C40   C44   1.429093 A    
C114  H118  1.110555 S    
C92   H50   1.083730 S    
C10   C114  1.537566 S    
C31   C91   1.532905 S    
C74   C78   1.390945 A    
C121  H139  1.104623 S    
C21   H13   1.110678 S    
C101  H79   1.105340 S    
C56   C86   1.433003 A    
C11   C119  1.533901 S    
C62   C70   1.456703 A    
C25   C101  1.530419 S    
C56   C60   1.429036 A    
O28   Ba4   2.874412 S    
C104  H88   1.112603 S    
C107  H96   1.105910 S    
C103  H85   1.105455 S    
C99   H72   1.109441 S    
C34   C58   1.419848 A    
O15   P16   1.547115 D    
C1    C29   1.592726 S    
C24   H16   1.109052 S    
C5    Cl21  1.780837 S    
C105  H90   1.106072 S    
C14   C122  1.470676 S    
C89   H41   1.082933 S    
C98   H70   1.111388 S    
O1    Ba1   2.870488 S    
C24   C100  1.496982 S    
C128  H159  1.096995 S    
O32   Ba4   2.915816 S    
C106  H94   1.106204 S    
C77   C81   1.405689 A    
P5    O46   1.594075 S    
Ba2   O45   3.168323 S    
C29   Cl5   1.769007 S    
P7    O48   1.594075 S    
C80   C84   1.405968 A    
C126  H153  1.096999 S    
O42   C6    1.417500 S    
C76   H32   1.074258 S    
P11   O35   1.549573 D    
O37   C14   1.413309 S    
C2    Cl10  1.773803 S    
C20   H8    1.109358 S    
C25   Cl1   1.783552 S    
C122  H140  1.074360 S    
C17   C93   1.525642 S    
C93   H53   1.108559 S    
C94   H58   1.105476 S    
C124  H147  1.102525 S    
C69   C73   1.398410 A    
P1    O1    1.660947 D    
C95   H61   1.092555 S    
P3    O3    1.660947 D    
C43   C111  1.501151 S    
P4    O20   1.755556 S    
C119  H133  1.109694 S    
C22   H14   1.108814 S    
C21   C97   1.518559 S    
C109  H103  1.095703 S    
P3    Ba3   3.554423 S    
C116  H122  1.100476 S    
C113  H114  1.106663 S    
C70   C74   1.400607 A    
C28   Cl4   1.776912 S    
C68   C84   1.411815 A    
C120  H135  1.101391 S    
O29   Ba1   2.904185 S    
O9    P14   1.763520 S    
C52   C56   1.416121 A    
P16   C47   1.888454 S    
P8    Ba4   3.557241 S    
C117  H126  1.099445 S    
C81   H25   1.083603 S    
C123  H144  1.078644 S    
C12   C120  1.534360 S    
C82   H26   1.083943 S    
C1    Cl17  1.773721 S    
C118  H129  1.108694 S    
C63   C87   1.413377 A    
C19   C95   1.525605 S    
C112  H111  1.075032 S    
C16   C20   1.564408 S    
P1    O5    1.587609 S    
C46   C50   1.404668 A    
C15   C123  1.476915 S    
Ba4   O48   2.899764 S    
C119  H131  1.106893 S    
C89   H43   1.092918 S    
C108  H98   1.105390 S    
P8    O40   1.779248 S    
O24   P15   1.776334 S    
O16   P15   1.548151 D    
O38   C13   1.413612 S    
P9    O33   1.549576 D    
C9    C117  1.533954 S    
C13   C121  1.476939 S    
O3    Ba3   2.870488 S    
C50   Cl14  1.757136 S    
C3    C31   1.592776 S    
C11   C115  1.529287 S    
C62   C86   1.409331 A    
C3    Cl11  1.777738 S    
C4    Cl12  1.773866 S    
C28   C104  1.531287 S    
C28   H20   1.104774 S    
C122  H142  1.104662 S    
C93   H55   1.092562 S    
C32   C92   1.527982 S    
C45   C49   1.405426 A    
O31   Ba3   2.904185 S    
C48   C52   1.404674 A    
C33   C67   1.426089 A    
C22   C98   1.496874 S    
O30   Ba2   2.915816 S    
C34   C68   1.429242 A    
O10   P13   1.761629 S    
P7    C72   1.909806 S    
P5    O25   1.654964 D    
C100  H76   1.103025 S    
C102  H82   1.111999 S    
P5    C70   1.909755 S    
O22   P13   1.776438 S    
C97   H66   1.109337 S    
C19   H7    1.102351 S    
C102  H80   1.103165 S    
C49   Cl13  1.754680 S    
P2    C38   1.921945 S    
C61   C65   1.425101 A    
C115  H119  1.099826 S    
C76   C80   1.390977 A    
P15   C48   1.892211 S    
C110  H105  1.075053 S    
C14   C18   1.564388 S    
P13   C46   1.892213 S    
C109  H102  1.104676 S    
Ba1   Ba2   4.953581 S    
C53   C57   1.424875 A    
C52   Cl16  1.757146 S    
C65   C81   1.413112 A    
P4    Ba4   3.561417 S    
P1    O17   1.754154 S    
C90   H44   1.083800 S    
P3    O19   1.754137 S    
P4    O4    1.655972 D    
C36   C66   1.429254 A    
C91   H47   1.082964 S    
C51   C55   1.414630 A    
P11   C80   1.864963 S    
C103  H83   1.099112 S    
C108  H100  1.106090 S    
C39   C43   1.432433 A    
C125  H150  1.105011 S    
Ba1   O45   2.902912 S    
C115  H120  1.106674 S    
Ba3   O47   2.902912 S    
C96   H63   1.103364 S    
C30   Cl6   1.768859 S    
O7    Ba4   2.902743 S    
C12   C116  1.537580 S    
C114  H117  1.095440 S    
C17   H5    1.102363 S    
O23   P16   1.779942 S    
C18   H10   1.112677 S    
P11   O43   1.757849 S    
C121  H138  1.078636 S    
C67   C83   1.413145 A    
C27   C103  1.530671 S    
P2    O2    1.655972 D    
C4    C32   1.590127 S    
O13   P14   1.547086 D    
C25   H17   1.109811 S    
C7    H3    1.096018 S    
C101  H78   1.110355 S    
P10   O30   1.769731 S    
P7    O39   1.783883 S    
C4    C108  1.529273 S    
P9    C78   1.864880 S    
C102  H81   1.105438 S    
C111  H109  1.095655 S    
C107  H95   1.098008 S    
P12   O36   1.546554 D    
C79   C83   1.405703 A    
C32   Cl8   1.768885 S    
O18   C22   1.398512 S    
C73   H29   1.072133 S    
C100  H75   1.111362 S    
C115  H121  1.092819 S    
C71   C75   1.398413 A    
P6    Ba2   3.557241 S    
C95   H59   1.108559 S    
C9    H21   1.100406 S    
C31   Cl7   1.769009 S    
C105  H89   1.098132 S    
C116  H123  1.095386 S    
C2    Cl18  1.772744 S    
C128  H158  1.096987 S    
O39   C16   1.413314 S    
C106  H93   1.108449 S    
C116  H124  1.110516 S    
C99   H73   1.101815 S    
C30   C90   1.527998 S    
Ba2   O46   2.899764 S    
P2    O6    1.590043 S    
C29   C89   1.532863 S    
C109  H101  1.075190 S    
C126  H152  1.096981 S    
C91   H49   1.092963 S    
C5    C9    1.560170 S    
C2    C106  1.529386 S    
P1    Ba1   3.554423 S    
O9    Ba1   2.918059 S    
C8    Cl24  1.777890 S    
O21   C29   1.433436 S    
C42   C46   1.411963 A    
O12   Ba4   2.906393 S    
P10   O34   1.546556 D    
O23   C31   1.433450 S    
C94   H57   1.103368 S    
C124  H146  1.074380 S    
C42   C110  1.496759 S    
C95   H60   1.101113 S    
C127  H155  1.097342 S    
C92   H51   1.090839 S    
C26   H18   1.104589 S    
C8    C12   1.567891 S    
C113  H113  1.099807 S    
C17   H9    1.110850 S    
C64   C72   1.456690 A    
P6    O45   1.591598 S    
C33   H33   1.076999 S    
C120  H134  1.108740 S    
C106  H92   1.105457 S    
P7    Ba3   3.564349 S    
