data_mof_unit_24212.cif
_audit_creation_date              2013-03-05T16:41:15-0500
_audit_creation_method            fapswitch 2.2
_symmetry_space_group_name_H-M    P1
_symmetry_Int_Tables_number       1
_space_group_crystal_system       triclinic
_cell_length_a                    10.641884
_cell_length_b                    10.685752
_cell_length_c                    9.871698
_cell_angle_alpha                 89.694988
_cell_angle_beta                  89.38205
_cell_angle_gamma                 89.996168
_cell_volume                      1122.49407875

loop_
_atom_site_label
_atom_site_type_symbol
_atom_site_description
_atom_site_fract_x
_atom_site_fract_y
_atom_site_fract_z
_atom_type_partial_charge
O1    O     O_R   0.500020 0.316790 0.614690 -0.617746
O2    O     O_R   0.500000 0.316760 0.385350 -0.629768
C1    C     C_R   0.503949 0.259869 0.500170 0.889002
O3    O     O_R   0.319080 0.500020 0.614640 -0.616094
O4    O     O_R   0.319070 0.499980 0.385300 -0.574739
C2    C     C_R   0.263193 0.512947 0.500682 0.992023
Zn1   Zn    Zn3+2 0.500010 0.500020 0.653130 0.961437
Zn2   Zn    Zn3+2 0.499990 0.499980 0.346870 0.986764
O5    O     O_R   0.500000 0.683240 0.614650 -0.624500
O6    O     O_R   0.499980 0.683210 0.385310 -0.599955
O7    O     O_R   0.680930 0.500020 0.614700 -0.625619
O8    O     O_R   0.680920 0.499980 0.385360 -0.621973
C3    C     C_R   0.504278 0.739995 0.499587 0.891699
C4    C     C_R   0.737853 0.499639 0.499137 0.945335
C5    C     C_2   0.929794 0.575957 0.405539 -0.208863
C6    C     C_2   0.870889 0.502159 0.495847 -0.378086
H1    H     H_    0.876409 0.631477 0.333553 0.187416
H2    H     H_    0.918166 0.442261 0.568041 0.162137
C7    C     C_2   0.066468 0.580991 0.397328 0.338663
C8    C     C_2   0.132509 0.543435 0.505499 -0.442503
H3    H     H_    0.088658 0.532891 0.604515 0.159124
C9    C     C_R   0.530898 0.062767 0.621845 0.134056
C10   C     C_R   0.524765 0.128412 0.499902 -0.098891
C11   C     C_R   0.543736 0.065303 0.376959 -0.210675
H4    H     H_    0.549172 0.114707 0.280954 0.173528
C12   C     C_R   0.543980 0.935876 0.376538 -0.188046
H5    H     H_    0.549516 0.887675 0.280388 0.180725
C13   C     C_R   0.525231 0.871211 0.499045 -0.099098
C14   C     C_R   0.530976 0.935034 0.621312 0.119709
C15   C     C_3   0.447889 0.926357 0.743959 -0.433362
C16   C     C_3   0.447795 0.068085 0.744685 -0.481061
H6    H     H_    0.354291 0.885267 0.722046 0.220600
H7    H     H_    0.497127 0.884483 0.832018 0.211241
H8    H     H_    0.354025 0.109215 0.723273 0.231456
H9    H     H_    0.497394 0.107618 0.833249 0.202795
C17   C     C_R   0.391661 0.477950 0.072781 0.315311
N1    N     N_R   0.499170 0.499140 0.142800 -0.120390
C18   C     C_R   0.604209 0.533324 0.070508 -0.135818
H10   H     H_    0.688999 0.558385 0.123303 0.168231
C19   C     C_R   0.604212 0.533344 0.926705 -0.123830
H11   H     H_    0.689033 0.558511 0.871823 0.167346
N2    N     N_R   0.499170 0.499180 0.857150 -0.130640
C20   C     C_R   0.391510 0.477982 0.930108 0.183330
C21   C     C_3   0.313978 0.361451 0.927699 -0.301654
C22   C     C_3   0.312892 0.362876 0.081943 -0.551366
H12   H     H_    0.366419 0.280929 0.885061 0.154143
H13   H     H_    0.219577 0.381953 0.129264 0.247688
H14   H     H_    0.364214 0.282625 0.127480 0.200233
C23   C     C_2   0.186841 0.381014 0.865679 0.999607
O9    O     O_2   0.147876 0.305553 0.783520 -0.652987
O10   O     O_R   0.113916 0.484874 0.901219 -0.751568
H15   H     H_    0.030157 0.486589 0.853259 0.332284
N3    N     N_R   0.124928 0.628263 0.275056 0.218191
O11   O     O_R   0.069947 0.612414 0.159276 -0.371234
O12   O     O_R   0.217033 0.708101 0.282123 -0.383607

loop_
_geom_bond_atom_site_label_1
_geom_bond_atom_site_label_2
_geom_bond_distance
_ccdc_geom_bond_type
C21   C23   1.505166 S    
O4    Zn2   1.958330 S    
C5    C7    1.456838 S    
C10   C11   1.404249 A    
C3    C13   1.419749 S    
C19   H11   1.081001 S    
C14   C15   1.493993 S    
C9    C14   1.364960 A    
C2    C8    1.428704 S    
N2    C20   1.364974 A    
N3    O12   1.302166 A    
C1    C10   1.422067 S    
C7    C8    1.344188 D    
Zn2   O8    1.966585 S    
C7    N3    1.441005 S    
C19   N2    1.368792 A    
O2    C1    1.284435 A    
C16   H8    1.112265 S    
C17   C22   1.490032 S    
N3    O11   1.301475 A    
C8    H3    1.083923 S    
C15   H6    1.112403 S    
C12   H5    1.083362 S    
C18   H10   1.081293 S    
O3    Zn1   1.966585 S    
O4    C2    1.287326 A    
C6    H2    1.083302 S    
C13   C14   1.391416 A    
C18   C19   1.419577 A    
N1    C18   1.368319 A    
O8    C4    1.281892 A    
Zn1   O7    1.958331 S    
C16   H9    1.111453 S    
C22   H13   1.112157 S    
C20   C21   1.494255 S    
C15   C16   1.514523 S    
O7    C4    1.285901 A    
C4    C6    1.416035 S    
Zn1   N2    2.013919 S    
Zn2   N1    2.014698 S    
C5    C6    1.337944 D    
Zn1   O5    1.992367 S    
C11   H4    1.083389 S    
O3    C2    1.284949 A    
C23   O9    1.222384 D    
C9    C16   1.494464 S    
C22   H14   1.112161 S    
C5    H1    1.088067 S    
O5    C3    1.285157 A    
C9    C10   1.392159 A    
C17   N1    1.362630 A    
C17   C20   1.408444 A    
C21   H12   1.108012 S    
C15   H7    1.111795 S    
C23   O10   1.398294 S    
O1    Zn1   1.996365 S    
C12   C13   1.402044 A    
Zn2   O6    1.996365 S    
O2    Zn2   1.992369 S    
C21   C22   1.522727 S    
O10   H15   1.013910 S    
C11   C12   1.383048 A    
O1    C1    1.286880 A    
O6    C3    1.285037 A    
