data_mof_unit_13388.cif
_audit_creation_date              2012-12-10T17:03:56-0500
_audit_creation_method            fapswitch 2.2
_symmetry_space_group_name_H-M    P1
_symmetry_Int_Tables_number       1
_space_group_crystal_system       triclinic
_cell_length_a                    18.760921
_cell_length_b                    19.119653
_cell_length_c                    18.470609
_cell_angle_alpha                 109.756685
_cell_angle_beta                  109.051447
_cell_angle_gamma                 110.229481
_cell_volume                      5060.21378944

loop_
_atom_site_label
_atom_site_type_symbol
_atom_type_description
_atom_site_fract_x
_atom_site_fract_y
_atom_site_fract_z
_atom_type_partial_charge
C1    C     C_R   0.000831 0.119633 0.621276 1.007174
C2    C     C_R   0.180939 0.177464 0.423229 0.037207
C3    C     C_R   0.314811 0.315238 0.501956 -0.087493
C4    C     C_R   0.328491 0.324378 0.585276 -0.027277
C5    C     C_R   0.262441 0.265278 0.589827 -0.080513
C6    C     C_R   0.189301 0.190035 0.506786 -0.141455
C7    C     C_R   0.407973 0.392475 0.664641 -0.274025
C8    C     C_R   0.414582 0.415420 0.746866 0.198996
C9    C     C_R   0.344987 0.366061 0.752888 0.343645
C10   C     C_R   0.274280 0.285187 0.677392 0.325356
C11   C     C_R   0.904618 0.076848 0.713283 0.500892
C12   C     C_R   0.120775 0.123907 0.504821 0.934439
C13   C     C_R   0.833242 0.051438 0.727685 -0.190961
C14   C     C_R   0.803793 0.107805 0.753083 -0.265248
C15   C     C_R   0.850176 0.192478 0.772439 -0.155917
C16   C     C_R   0.927020 0.221949 0.765940 0.056646
C17   C     C_R   0.945156 0.159966 0.722844 -0.062576
C18   C     C_R   0.002213 0.183869 0.690322 -0.084764
C19   C     C_R   0.051157 0.269377 0.713033 -0.215542
C20   C     C_R   0.047053 0.333317 0.771781 -0.221594
C21   C     C_R   0.986753 0.310794 0.800495 -0.096008
C22   C     C_R   0.854437 0.701941 0.429051 0.444038
C23   C     C_R   0.999905 0.880951 0.379314 0.935453
C24   C     C_R   0.822672 0.615958 0.368161 -0.229607
C25   C     C_R   0.738114 0.552071 0.335960 -0.253896
C26   C     C_R   0.686810 0.572097 0.369199 -0.127499
C27   C     C_R   0.719149 0.657635 0.435408 0.065529
C28   C     C_R   0.798074 0.724514 0.455206 -0.110734
C29   C     C_R   0.813303 0.809767 0.494691 -0.214504
C30   C     C_R   0.754560 0.827456 0.517488 0.482553
C31   C     C_R   0.692251 0.764644 0.520315 -0.355154
C32   C     C_R   0.675487 0.680269 0.481690 -0.164136
C33   C     C_R   0.145317 0.927885 0.348679 -0.272694
C34   C     C_R   0.879896 0.877992 0.497706 1.079380
C35   C     C_R   0.218198 0.949833 0.337597 0.255824
C36   C     C_R   0.229694 0.884494 0.290071 0.170672
C37   C     C_R   0.168644 0.797473 0.255818 0.423629
C38   C     C_R   0.085257 0.774209 0.251097 -0.124208
C39   C     C_R   0.077501 0.840763 0.304142 -0.020121
C40   C     C_R   0.002295 0.818806 0.312608 -0.074843
C41   C     C_R   0.932975 0.734593 0.266137 -0.274492
C42   C     C_R   0.934487 0.669000 0.206326 0.474558
C43   C     C_R   0.009915 0.688095 0.197417 -0.153054
C44   C     C_R   0.622431 0.503277 0.621082 0.862495
C45   C     C_R   0.114027 0.099775 0.340919 -0.199366
C46   C     C_R   0.379379 0.380542 0.499669 0.849043
C47   C     C_R   0.378986 0.498024 0.379038 0.845328
C48   C     C_R   0.616163 0.618848 0.494249 0.892043
C49   C     C_R   0.879697 0.502672 0.883087 0.845885
C50   C     C_R   0.994509 0.379480 0.874041 0.870147
C51   C     C_R   0.120245 0.504197 0.124773 0.925544
C52   C     C_R   0.003742 0.620460 0.124422 0.963355
C53   C     C_R   0.781401 0.667800 0.766954 -0.252039
C54   C     C_R   0.852902 0.745763 0.841734 -0.228360
C55   C     C_R   0.909051 0.745862 0.913358 0.573250
C56   C     C_R   0.101597 0.092969 0.259813 0.328412
C57   C     C_R   0.893710 0.667458 0.909432 -0.279463
C58   C     C_R   0.824698 0.587713 0.832022 0.033625
C59   C     C_R   0.764790 0.587938 0.762426 0.110583
C60   C     C_R   0.690791 0.507762 0.689778 -0.081467
C61   C     C_R   0.678754 0.429489 0.683951 -0.192869
C62   C     C_R   0.739982 0.429228 0.749538 -0.198461
C63   C     C_R   0.813180 0.507330 0.822252 -0.071672
C64   C     C_R   0.205311 0.429563 0.357234 -0.355553
C65   C     C_R   0.125903 0.408546 0.356259 0.420101
C66   C     C_R   0.071216 0.433518 0.313917 0.388745
C67   C     C_R   0.155940 0.162370 0.258052 -0.188211
C68   C     C_R   0.096247 0.477242 0.270471 0.087620
C69   C     C_R   0.168082 0.483395 0.256570 -0.030913
C70   C     C_R   0.227345 0.467415 0.308199 -0.002374
C71   C     C_R   0.308713 0.491888 0.311365 -0.019967
C72   C     C_R   0.327677 0.521246 0.256960 -0.232883
C73   C     C_R   0.266047 0.527667 0.198651 -0.211689
C74   C     C_R   0.186192 0.508179 0.196791 -0.087993
C75   C     C_R   0.224705 0.237166 0.337459 -0.218453
C76   C     C_R   0.240566 0.244015 0.421054 0.106603
H1    H     H_    0.799464 0.987068 0.717160 0.165582
H2    H     H_    0.746001 0.086479 0.759721 0.166995
H3    H     H_    0.823227 0.233052 0.789496 0.171752
H4    H     H_    0.090736 0.400208 0.794315 0.160905
H5    H     H_    0.863745 0.599179 0.345021 0.181431
H6    H     H_    0.712462 0.486410 0.285795 0.160701
H7    H     H_    0.620160 0.520283 0.337407 0.172788
H8    H     H_    0.070384 0.042665 0.337071 0.175550
H9    H     H_    0.655233 0.781242 0.550246 0.168942
H10   H     H_    0.877464 0.719566 0.276967 0.157623
H11   H     H_    0.141345 0.979886 0.390775 0.165985
H12   H     H_    0.621560 0.368267 0.628309 0.171395
H13   H     H_    0.740413 0.671013 0.712775 0.176045
H14   H     H_    0.864285 0.806358 0.844463 0.159330
H15   H     H_    0.935810 0.670037 0.967761 0.159809
H16   H     H_    0.731211 0.367737 0.742544 0.157192
H17   H     H_    0.390692 0.539826 0.260219 0.141469
H18   H     H_    0.249118 0.415322 0.396220 0.171967
H19   H     H_    0.280605 0.547016 0.154011 0.167119
H20   H     H_    0.145315 0.158420 0.195209 0.163541
H21   H     H_    0.263888 0.289426 0.331706 0.161682
H22   H     H_    0.465470 0.431012 0.664207 0.211339
H23   H     H_    0.093635 0.286482 0.686232 0.155540
O1    O     O_R   0.051710 0.091600 0.643330 -0.608703
O2    O     O_R   0.591640 0.448340 0.539940 -0.611481
O3    O     O_R   0.408370 0.460150 0.551730 -0.614239
O4    O     O_R   0.408410 0.356720 0.448320 -0.604466
O5    O     O_R   0.408360 0.551760 0.460120 -0.609579
O6    O     O_R   0.408400 0.448330 0.356700 -0.638082
O7    O     O_R   0.591600 0.643380 0.551740 -0.626708
O8    O     O_R   0.591640 0.539950 0.448320 -0.642336
O9    O     O_R   0.960070 0.551730 0.908390 -0.636907
O10   O     O_R   0.856640 0.448280 0.908400 -0.634605
O11   O     O_R   0.051720 0.460120 0.908370 -0.626232
O12   O     O_R   0.948270 0.091620 0.539910 -0.640327
O13   O     O_R   0.948290 0.356670 0.908380 -0.634309
O14   O     O_R   0.143340 0.551720 0.091580 -0.598950
O15   O     O_R   0.039910 0.448270 0.091590 -0.604404
O16   O     O_R   0.051690 0.643330 0.091600 -0.602295
O17   O     O_R   0.948270 0.539880 0.091610 -0.550966
O18   O     O_R   0.143340 0.091610 0.551710 -0.602039
O19   O     O_R   0.039890 0.091630 0.448290 -0.653365
O20   O     O_R   0.051730 0.908380 0.460090 -0.619395
O21   O     O_R   0.948290 0.908400 0.356670 -0.628760
O22   O     O_R   0.960110 0.908370 0.551710 -0.613297
O23   O     O_R   0.856660 0.908390 0.448290 -0.622757
O24   O     O_R   0.591600 0.551770 0.643360 -0.612045
Zn1   Zn    Zn3+2 0.069070 0.999990 0.569050 0.927533
Zn2   Zn    Zn3+2 0.930930 0.000010 0.430950 0.951582
Zn3   Zn    Zn3+2 0.499980 0.569110 0.569080 0.987540
Zn4   Zn    Zn3+2 0.500030 0.430990 0.430980 0.966084
Zn5   Zn    Zn3+2 0.069050 0.569070 0.999980 0.983525
Zn6   Zn    Zn3+2 0.930930 0.430930 0.000000 0.972636
O25   O     O_3   0.349786 0.392684 0.834628 -0.607192
C77   C     C_3   0.306959 0.440450 0.842520 0.150486
H24   H     H_    0.240936 0.405905 0.782556 0.082918
H25   H     H_    0.346915 0.504712 0.851681 0.162960
C78   C     C_3   0.293701 0.453658 0.922510 -0.358543
H26   H     H_    0.256904 0.488285 0.926082 0.175615
H27   H     H_    0.253766 0.389572 0.913503 0.222308
C79   C     C_3   0.380958 0.506169 0.009793 -0.764687
H28   H     H_    0.417609 0.471328 0.009582 0.284079
H29   H     H_    0.368301 0.515988 0.066095 0.218392
H30   H     H_    0.421743 0.570496 0.019893 0.255636
O26   O     O_3   0.935596 0.021257 0.692178 -0.627007
C80   C     C_3   0.983234 0.022130 0.770056 0.070746
H31   H     H_    0.940389 0.999746 0.796933 0.136980
H32   H     H_    0.040061 0.088659 0.821914 0.132151
C81   C     C_3   0.018120 0.961062 0.748309 -0.273387
H33   H     H_    0.962429 0.895130 0.694154 0.226295
H34   H     H_    0.064569 0.984461 0.725478 0.227457
C82   C     C_3   0.065609 0.956006 0.829323 -1.029835
H35   H     H_    0.122593 0.020893 0.884104 0.272631
H36   H     H_    0.089842 0.911041 0.811257 0.263703
H37   H     H_    0.020110 0.931443 0.852641 0.266860
O27   O     O_3   0.763847 0.908676 0.542618 -0.625466
C83   C     C_3   0.682387 0.901754 0.497253 0.070841
H38   H     H_    0.646805 0.895545 0.534612 0.139452
H39   H     H_    0.640315 0.845203 0.427821 0.137528
C84   C     C_3   0.699277 0.983667 0.492247 -0.325057
H40   H     H_    0.741568 0.041349 0.560309 0.237302
H41   H     H_    0.734295 0.990147 0.454451 0.235730
C85   C     C_3   0.613470 0.980945 0.446681 -0.905912
H42   H     H_    0.570635 0.924720 0.377648 0.272235
H43   H     H_    0.627879 0.041189 0.444074 0.276416
H44   H     H_    0.578137 0.975931 0.484339 0.268411
O28   O     O_3   0.941131 0.761959 0.463773 -0.645315
C86   C     C_3   0.993964 0.756327 0.533944 0.109068
H45   H     H_    0.986513 0.690923 0.508791 0.144522
H46   H     H_    0.975662 0.769434 0.586749 0.128669
C87   C     C_3   0.090475 0.823409 0.575173 -0.271686
H47   H     H_    0.109317 0.812520 0.522957 0.239225
H48   H     H_    0.100174 0.889442 0.603286 0.232065
C88   C     C_3   0.150221 0.817824 0.649435 -1.007995
H49   H     H_    0.133155 0.829439 0.702886 0.262686
H50   H     H_    0.219595 0.867777 0.678351 0.270701
H51   H     H_    0.143685 0.753060 0.622931 0.283429
Br1   Br    Br    0.303531 0.069986 0.393686 -0.464869
Br2   Br    Br    0.328926 0.912780 0.272002 -0.493547
O29   O     O_3   0.195271 0.737918 0.235722 -0.594121
C89   C     C_3   0.232284 0.730859 0.311445 0.111575
H52   H     H_    0.211744 0.662274 0.287268 0.194371
H53   H     H_    0.208654 0.749044 0.359188 0.137777
C90   C     C_3   0.332840 0.782512 0.360112 -0.346175
H54   H     H_    0.355586 0.769865 0.311094 0.260975
H55   H     H_    0.356710 0.852690 0.396745 0.244579
C91   C     C_3   0.372498 0.757865 0.426854 -0.941043
H56   H     H_    0.351210 0.770452 0.477036 0.272857
H57   H     H_    0.445293 0.797111 0.461603 0.257659
H58   H     H_    0.351835 0.688327 0.392265 0.283410
O30   O     O_3   0.865558 0.584508 0.162435 -0.613004
C92   C     C_3   0.786726 0.573079 0.102296 0.088062
H59   H     H_    0.766047 0.524548 0.034253 0.179773
H60   H     H_    0.792636 0.632659 0.100649 0.131739
C93   C     C_3   0.715564 0.538015 0.124878 -0.392113
H61   H     H_    0.710152 0.479193 0.127313 0.238150
H62   H     H_    0.734028 0.587569 0.191262 0.228006
C94   C     C_3   0.626459 0.515209 0.056516 -0.849442
H63   H     H_    0.629902 0.573579 0.054332 0.290768
H64   H     H_    0.576738 0.490221 0.075264 0.251116
H65   H     H_    0.605490 0.464388 0.989567 0.288047
Br3   Br    Br    0.007643 0.989424 0.151393 -0.504301
O31   O     O_3   0.976337 0.823120 0.989741 -0.599019
C95   C     C_3   0.052861 0.851741 0.982725 0.075547
H66   H     H_    0.087228 0.923512 0.016506 0.199633
H67   H     H_    0.039225 0.828265 0.912755 0.106801
C96   C     C_3   0.114095 0.826101 0.030047 -0.331873
H68   H     H_    0.126562 0.849170 0.099267 0.260623
H69   H     H_    0.082621 0.754533 0.994720 0.217140
C97   C     C_3   0.201446 0.864814 0.032453 -0.874781
H70   H     H_    0.190395 0.843190 0.963861 0.245221
H71   H     H_    0.243253 0.843003 0.064659 0.292303
H72   H     H_    0.236477 0.936631 0.071142 0.279201
O32   O     O_3   0.108480 0.375411 0.408368 -0.603277
C98   C     C_3   0.048034 0.285458 0.353406 0.088557
H73   H     H_    0.081508 0.251617 0.332783 0.146024
H74   H     H_    0.992071 0.269340 0.292383 0.121841
C99   C     C_3   0.011670 0.252205 0.405419 -0.308815
H75   H     H_    0.065151 0.258059 0.460591 0.222241
H76   H     H_    0.986551 0.292263 0.434622 0.237818
C100  C     C_3   0.936850 0.157973 0.345501 -0.887825
H77   H     H_    0.880855 0.151988 0.292999 0.246187
H78   H     H_    0.913821 0.134856 0.385710 0.272333
H79   H     H_    0.959317 0.116513 0.313501 0.281294
O33   O     O_3   0.002796 0.428995 0.329777 -0.591163
C101  C     C_3   0.920963 0.373708 0.249222 0.102766
H80   H     H_    0.893800 0.306675 0.237079 0.118376
H81   H     H_    0.925099 0.372009 0.189800 0.151589
C102  C     C_3   0.856913 0.403667 0.258101 -0.268007
H82   H     H_    0.847194 0.399869 0.313187 0.216985
H83   H     H_    0.884793 0.472113 0.274396 0.262102
C103  C     C_3   0.768227 0.348155 0.172210 -0.971903
H84   H     H_    0.776087 0.354027 0.117097 0.276363
H85   H     H_    0.722795 0.370334 0.181445 0.254551
H86   H     H_    0.738925 0.279203 0.154201 0.263404
Br4   Br    Br    0.052176 0.552921 0.264465 -0.546431
Br5   Br    Br    0.519365 0.516105 0.850395 -0.532473
O34   O     O_3   0.216317 0.228451 0.689686 -0.640164
C104  C     C_3   0.258849 0.204404 0.748368 0.183338
H87   H     H_    0.206838 0.148032 0.741401 0.166037
H88   H     H_    0.292035 0.255155 0.818985 0.170275
C105  C     C_3   0.322546 0.177562 0.729199 -0.399093
H89   H     H_    0.291221 0.130743 0.657433 0.256823
H90   H     H_    0.382713 0.235231 0.748079 0.221771
C106  C     C_3   0.350037 0.136020 0.782065 -0.961921
H91   H     H_    0.382453 0.181759 0.854482 0.268955
H92   H     H_    0.397063 0.119091 0.768493 0.276358
H93   H     H_    0.291841 0.075893 0.762295 0.252564

loop_
_geom_bond_atom_site_label_1
_geom_bond_atom_site_label_2
_ccdc_geom_bond_type
C42   O30   S    
C8    C9    A    
C66   C68   A    
C96   H68   S    
C16   C21   A    
C49   C63   S    
C7    H22   S    
C104  H88   S    
C41   C42   A    
C94   H64   S    
O28   C86   S    
C84   C85   S    
C51   C74   S    
C50   O11   A    
C91   H56   S    
C77   C78   S    
O15   Zn6   S    
C78   C79   S    
C103  H85   S    
C81   H33   S    
C53   C59   A    
C7    C8    A    
C87   H48   S    
O14   Zn5   S    
C9    O25   S    
C100  H79   S    
C41   H10   S    
C79   H29   S    
C105  C106  S    
C1    C18   S    
C62   C63   A    
C92   C93   S    
C31   H9    S    
C86   H45   S    
O18   Zn1   S    
C82   H36   S    
C54   H14   S    
C91   H57   S    
C85   H42   S    
C6    C12   S    
C30   C31   A    
C97   H71   S    
C43   C52   S    
C94   H65   S    
C16   C17   A    
C88   H49   S    
C15   C16   A    
C25   H6    S    
C26   H7    S    
C75   H21   S    
C102  C103  S    
C3    C4    A    
C92   H60   S    
C106  H91   S    
C73   C74   A    
C21   C50   S    
O22   Zn1   S    
O2    Zn4   S    
C105  H89   S    
O31   C95   S    
C23   O21   A    
C48   O7    A    
O17   Zn6   S    
C35   C36   A    
C45   C56   A    
C68   C69   A    
C89   H53   S    
C62   H16   S    
O12   Zn2   S    
C36   C37   A    
C104  H87   S    
C85   H43   S    
O29   C89   S    
C70   C71   A    
O19   Zn2   S    
C64   C70   A    
O13   Zn6   S    
C83   H39   S    
O4    Zn4   S    
C9    C10   A    
C61   C62   A    
C90   C91   S    
C72   C73   A    
C8    Br5   S    
C94   H63   S    
C59   C60   A    
C34   O23   A    
C22   C28   A    
C13   C14   A    
C32   C48   S    
C80   C81   S    
C2    C6    A    
C57   H15   S    
C4    C7    A    
C1    O1    A    
C103  H84   S    
C81   H34   S    
C90   H55   S    
C17   C18   A    
C49   O9    A    
C56   Br3   S    
C52   O17   A    
C2    C45   A    
C38   C39   A    
C102  H83   S    
C96   C97   S    
C105  H90   S    
C10   O34   S    
C51   O15   A    
O6    Zn4   S    
C93   H61   S    
C55   O31   S    
C82   H37   S    
C24   C25   A    
C91   H58   S    
C39   C40   A    
C19   H23   S    
O21   Zn2   S    
C18   C19   A    
O24   Zn3   S    
C78   H27   S    
C101  C102  S    
C47   O6    A    
C58   C59   A    
O20   Zn1   S    
C29   C34   S    
O9    Zn5   S    
O16   Zn5   S    
C60   C61   A    
O1    Zn1   S    
C44   C60   S    
C84   H40   S    
C37   C38   A    
C75   C76   A    
C93   H62   S    
C98   H73   S    
O3    Zn3   S    
C29   C30   A    
C61   H12   S    
O33   C101  S    
C96   H69   S    
C30   O27   S    
C31   C32   A    
C14   C15   A    
C24   H5    S    
C89   C90   S    
C38   C43   A    
C50   O13   A    
C102  H82   S    
C26   C27   A    
C85   H44   S    
C69   C74   A    
C20   H4    S    
C33   C39   A    
C82   H35   S    
C83   C84   S    
C101  H81   S    
C3    C76   A    
C11   O26   S    
C47   C71   S    
C65   O32   S    
C12   O19   A    
C87   C88   S    
C40   C41   A    
C98   H74   S    
C89   H52   S    
C34   O22   A    
C55   C57   A    
C13   H1    S    
C53   H13   S    
C67   H20   S    
C104  C105  S    
C22   C24   A    
C45   H8    S    
C67   C75   A    
C42   C43   A    
C72   H17   S    
C77   H24   S    
C20   C21   A    
C87   H47   S    
C81   C82   S    
C2    C76   A    
C90   H54   S    
C49   O10   A    
C79   H28   S    
C52   O16   A    
C58   C63   A    
C54   C55   A    
C28   C29   A    
C47   O5    A    
C44   O24   A    
C27   C32   A    
C97   H70   S    
C35   Br1   S    
C51   O14   A    
C86   C87   S    
C4    C5    A    
C77   H25   S    
C99   C100  S    
C11   C17   A    
C19   C20   A    
C44   O2    A    
C53   C54   A    
C78   H26   S    
C15   H3    S    
C100  H78   S    
C56   C67   A    
C46   O4    A    
O7    Zn3   S    
C3    C46   S    
C66   O33   S    
C106  H93   S    
C64   C65   A    
O23   Zn2   S    
C86   H46   S    
O25   C77   S    
C25   C26   A    
C93   C94   S    
O8    Zn4   S    
C5    C10   A    
C65   C66   A    
O26   C80   S    
C1    O12   A    
C37   O29   S    
C23   O20   A    
C22   O28   S    
C11   C13   A    
C97   H72   S    
C57   C58   A    
C5    C6    A    
C88   H50   S    
C95   H66   S    
C95   C96   S    
C79   H30   S    
C99   H75   S    
C100  H77   S    
C84   H41   S    
C33   C35   A    
C99   H76   S    
C14   H2    S    
C33   H11   S    
C69   C70   A    
C64   H18   S    
C12   O18   A    
C48   O8    A    
C68   Br4   S    
C71   C72   A    
C98   C99   S    
O5    Zn3   S    
O27   C83   S    
C36   Br2   S    
C95   H67   S    
O32   C98   S    
O34   C104  S    
C27   C28   A    
C73   H19   S    
C80   H31   S    
C92   H59   S    
O30   C92   S    
C106  H92   S    
C83   H38   S    
O10   Zn6   S    
C101  H80   S    
C103  H86   S    
C80   H32   S    
C23   C40   S    
O11   Zn5   S    
C46   O3    A    
C88   H51   S    
