data_mof_unit_42779.cif
_audit_creation_date              2012-12-10T20:37:34-0500
_audit_creation_method            fapswitch 2.2
_symmetry_space_group_name_H-M    P1
_symmetry_Int_Tables_number       1
_space_group_crystal_system       triclinic
_cell_length_a                    15.703747
_cell_length_b                    10.692987
_cell_length_c                    9.848625
_cell_angle_alpha                 90.129281
_cell_angle_beta                  90.250488
_cell_angle_gamma                 90.631704
_cell_volume                      1653.66003178

loop_
_atom_site_label
_atom_site_type_symbol
_atom_type_description
_atom_site_fract_x
_atom_site_fract_y
_atom_site_fract_z
_atom_type_partial_charge
C1    C     C_R   0.502124 0.259888 0.499542 0.908841
C2    C     C_R   0.514370 0.128444 0.499045 -0.191186
C3    C     C_R   0.539131 0.063746 0.380175 0.494707
C4    C     C_R   0.337903 0.500592 0.499704 0.920701
C5    C     C_R   0.537616 0.933627 0.382045 -0.318692
C6    C     C_R   0.514255 0.870762 0.500958 -0.179098
C7    C     C_R   0.504472 0.936924 0.620890 -0.030876
C8    C     C_3   0.442780 0.931515 0.737535 0.383861
C9    C     C_3   0.444291 0.074328 0.735991 -0.481510
C10   C     C_R   0.459021 0.406902 0.070982 0.191513
C11   C     C_R   0.546979 0.585000 0.072572 -0.133416
C12   C     C_3   0.083014 0.506163 0.500423 0.142845
C13   C     C_R   0.546993 0.585006 0.928475 -0.115128
C14   C     C_R   0.458621 0.407244 0.928159 0.219974
C15   C     C_3   0.365565 0.376950 0.922042 -0.581671
C16   C     C_R   0.503184 0.739611 0.500140 0.903327
C17   C     C_3   0.366236 0.376167 0.076832 -0.283427
C18   C     C_R   0.662179 0.500529 0.500308 0.879451
C19   C     C_3   0.972281 0.446054 0.612542 -0.134202
C20   C     C_3   0.027641 0.387080 0.500006 -0.210028
C21   C     C_1   0.249077 0.503215 0.499124 -0.156189
C22   C     C_1   0.751186 0.502311 0.501033 -0.189626
C23   C     C_3   0.972661 0.625521 0.502496 -0.273537
C24   C     C_3   0.029457 0.565205 0.613019 -0.230908
C25   C     C_2   0.349037 0.250267 0.140254 1.014946
C26   C     C_3   0.996599 0.670351 0.191729 0.070126
C27   C     C_3   0.994668 0.594226 0.059949 -0.329866
C28   C     C_3   0.924717 0.639253 0.964326 -0.980815
C29   C     C_3   0.636760 0.116119 0.215115 0.049006
C30   C     C_3   0.683152 0.240116 0.242481 -0.285496
C31   C     C_3   0.773837 0.239400 0.187771 -0.993871
C32   C     C_3   0.323239 0.892718 0.587764 0.138037
C33   C     C_3   0.226654 0.877969 0.600562 -0.360704
C34   C     C_3   0.917464 0.505700 0.501439 0.143786
C35   C     C_3   0.182747 0.880979 0.462025 -0.926691
C36   C     C_3   0.027079 0.564493 0.391746 0.561028
C37   C     C_3   0.970945 0.445961 0.388597 -0.251747
C38   C     C_1   0.173813 0.505242 0.499243 -0.018658
C39   C     C_1   0.826558 0.504057 0.501554 -0.058810
C40   C     C_R   0.506022 0.063859 0.620755 -0.044290
H1    H     H_    0.052363 0.290202 0.499828 0.155016
H2    H     H_    0.947240 0.396901 0.703409 0.138925
H3    H     H_    0.945178 0.397529 0.297377 0.136090
H4    H     H_    0.948351 0.722621 0.502086 0.134889
H5    H     H_    0.055814 0.613067 0.704380 0.157074
H6    H     H_    0.549608 0.883101 0.288652 0.177831
H7    H     H_    0.286630 0.153178 0.284929 0.325671
H8    H     H_    0.011604 0.769418 0.166760 0.165808
H9    H     H_    0.931894 0.669682 0.238358 0.119354
H10   H     H_    0.057251 0.602964 0.008307 0.231032
H11   H     H_    0.983147 0.493955 0.083393 0.216705
H12   H     H_    0.473809 0.893634 0.830205 0.113618
H13   H     H_    0.861470 0.630672 0.013747 0.265893
H14   H     H_    0.923928 0.581198 0.870846 0.270727
H15   H     H_    0.936437 0.738304 0.935501 0.264887
H16   H     H_    0.672821 0.037985 0.262636 0.110831
H17   H     H_    0.636185 0.098239 0.103935 0.165383
H18   H     H_    0.647648 0.317236 0.193243 0.249416
H19   H     H_    0.685385 0.257403 0.353711 0.206508
H20   H     H_    0.811664 0.166052 0.239178 0.264002
H21   H     H_    0.804461 0.331799 0.207228 0.268599
H22   H     H_    0.773352 0.221923 0.076549 0.265158
H23   H     H_    0.383403 0.118734 0.706276 0.193597
H24   H     H_    0.345485 0.818684 0.517932 0.142214
H25   H     H_    0.337717 0.985755 0.542863 0.131131
H26   H     H_    0.211365 0.787249 0.650369 0.235015
H27   H     H_    0.201666 0.954641 0.664986 0.224276
H28   H     H_    0.195893 0.971485 0.410638 0.259113
H29   H     H_    0.112865 0.870036 0.475325 0.267588
H30   H     H_    0.205471 0.803089 0.397194 0.287137
H31   H     H_    0.474821 0.115511 0.828075 0.203620
H32   H     H_    0.583508 0.655149 0.127483 0.142907
H33   H     H_    0.583516 0.655172 0.874430 0.139578
H34   H     H_    0.327740 0.454785 0.878913 0.223619
H35   H     H_    0.352551 0.284572 0.874099 0.212865
H36   H     H_    0.328309 0.452845 0.122156 0.181167
N1    N     N_R   0.499430 0.499140 0.142800 -0.127069
N2    N     N_R   0.499430 0.499180 0.857150 -0.102285
O1    O     O_R   0.500010 0.316790 0.614690 -0.619299
O2    O     O_R   0.292289 0.241573 0.248777 -0.816712
O3    O     O_3   0.062002 0.626153 0.277938 -0.650019
O4    O     O_3   0.551075 0.125247 0.257951 -0.596260
O5    O     O_3   0.360626 0.875406 0.717571 -0.615596
O6    O     O_R   0.500000 0.316760 0.385350 -0.573623
O7    O     O_R   0.376780 0.500010 0.614650 -0.615755
O8    O     O_R   0.376770 0.499970 0.385310 -0.605017
O9    O     O_R   0.500000 0.683240 0.614650 -0.610205
O10   O     O_R   0.499990 0.683210 0.385310 -0.629646
O11   O     O_R   0.623230 0.500030 0.614690 -0.615267
O12   O     O_R   0.623220 0.499990 0.385350 -0.634603
O13   O     O_2   0.384842 0.156744 0.098482 -0.614278
Zn1   Zn    Zn3+2 0.500010 0.500020 0.653130 0.957824
Zn2   Zn    Zn3+2 0.499990 0.499980 0.346870 0.958863

loop_
_geom_bond_atom_site_label_1
_geom_bond_atom_site_label_2
_ccdc_geom_bond_type
C15   H35   S    
C20   C37   S    
C34   C37   S    
C31   H21   S    
C19   C20   S    
C20   H1    S    
C7    C8    S    
C1    O6    A    
C26   C27   S    
C24   H5    S    
C36   C37   S    
C30   C31   S    
C4    O8    A    
C10   C17   S    
C25   O2    S    
C1    C2    S    
C11   N1    A    
O10   Zn2   S    
O7    Zn1   S    
C21   C38   T    
C35   H30   S    
C8    C9    S    
C17   H36   S    
C23   C24   S    
C12   C36   S    
C8    H12   S    
C10   N1    A    
C19   H2    S    
C26   H8    S    
C18   C22   S    
O9    Zn1   S    
C31   H22   S    
H7    O2    S    
C28   H15   S    
C27   H11   S    
C33   H26   S    
C25   O13   D    
C34   C39   S    
C18   O12   A    
C32   H24   S    
C10   C14   A    
C26   H9    S    
C28   H14   S    
C11   H32   S    
C4    O7    A    
N2    Zn1   S    
C9    C40   S    
C23   H4    S    
C31   H20   S    
C37   H3    S    
C29   C30   S    
O8    Zn2   S    
C16   O9    A    
C36   O3    S    
C7    C40   A    
C23   C34   S    
C30   H19   S    
C12   C20   S    
C3    O4    S    
O11   Zn1   S    
O1    Zn1   S    
C13   H33   S    
C26   O3    S    
C1    O1    A    
C33   H27   S    
O12   Zn2   S    
C15   C17   S    
C32   O5    S    
C13   N2    A    
C9    H23   S    
C18   O11   A    
C9    H31   S    
C8    O5    S    
C29   H17   S    
C3    C5    A    
C19   C34   S    
C28   H13   S    
C27   H10   S    
C6    C7    A    
C29   H16   S    
C5    H6    S    
C12   C24   S    
C17   C25   S    
C32   C33   S    
C2    C3    A    
C29   O4    S    
C4    C21   S    
C11   C13   A    
C5    C6    A    
C35   H28   S    
C22   C39   T    
C30   H18   S    
N1    Zn2   S    
C33   C35   S    
C19   C24   S    
O6    Zn2   S    
C14   N2    A    
C12   C38   S    
C6    C16   S    
C2    C40   A    
C15   H34   S    
C35   H29   S    
C23   C36   S    
C27   C28   S    
C16   O10   A    
C14   C15   S    
C32   H25   S    
