data_mof_unit_48098.cif
_audit_creation_date              2013-03-05T15:51:15-0500
_audit_creation_method            fapswitch 2.2
_symmetry_space_group_name_H-M    P1
_symmetry_Int_Tables_number       1
_space_group_crystal_system       triclinic
_cell_length_a                    19.173401
_cell_length_b                    11.067924
_cell_length_c                    18.792923
_cell_angle_alpha                 89.856025
_cell_angle_beta                  89.23619
_cell_angle_gamma                 89.838013
_cell_volume                      3987.65888189

loop_
_atom_site_label
_atom_site_type_symbol
_atom_site_description
_atom_site_fract_x
_atom_site_fract_y
_atom_site_fract_z
_atom_type_partial_charge
O1    O     O_R   0.787520 0.042810 0.170440 -0.426797
O2    O     O_R   0.212480 0.042810 0.829560 -0.416099
O3    O     O_R   0.287520 0.542810 0.170440 -0.426776
O4    O     O_R   0.712480 0.542810 0.829560 -0.415964
O5    O     O_R   0.765640 0.292100 0.175020 -0.453504
O6    O     O_R   0.234360 0.292100 0.824980 -0.466439
O7    O     O_R   0.265640 0.792100 0.175020 -0.453304
O8    O     O_R   0.734360 0.792100 0.824980 -0.465836
C1    C     C_R   0.731251 0.378743 0.147696 0.554297
C2    C     C_R   0.288262 0.331160 0.860678 0.525558
C3    C     C_R   0.231248 0.878737 0.147693 0.555188
C4    C     C_R   0.788268 0.831147 0.860677 0.525532
O9    O     O_R   0.670190 0.408840 0.168540 -0.506248
O10   O     O_R   0.329810 0.408840 0.831460 -0.496643
O11   O     O_R   0.170190 0.908840 0.168540 -0.505836
O12   O     O_R   0.829810 0.908840 0.831460 -0.496739
O13   O     O_R   0.556620 0.251410 0.175160 -0.463673
O14   O     O_R   0.443380 0.251410 0.824840 -0.483409
O15   O     O_R   0.056620 0.751410 0.175160 -0.463569
O16   O     O_R   0.943380 0.751410 0.824840 -0.483921
C5    C     C_R   0.530516 0.156069 0.147749 0.592984
C6    C     C_R   0.464503 0.152321 0.855758 0.597424
C7    C     C_R   0.030516 0.656071 0.147750 0.593294
C8    C     C_R   0.964488 0.652318 0.855768 0.597272
O17   O     O_R   0.545960 0.049620 0.170320 -0.474392
O18   O     O_R   0.454040 0.049620 0.829680 -0.461206
O19   O     O_R   0.045960 0.549620 0.170320 -0.474445
O20   O     O_R   0.954040 0.549620 0.829680 -0.461174
O21   O     O_R   0.681390 0.958010 0.176690 -0.502785
O22   O     O_R   0.318610 0.958010 0.823310 -0.454860
O23   O     O_R   0.181390 0.458010 0.176690 -0.502091
O24   O     O_R   0.818610 0.458010 0.823310 -0.454670
C9    C     C_R   0.741731 0.975740 0.146002 0.551231
C10   C     C_R   0.269914 0.017712 0.860278 0.543149
C11   C     C_R   0.241728 0.475750 0.146000 0.551867
C12   C     C_R   0.769914 0.517710 0.860279 0.543129
O25   O     O_R   0.787510 0.044390 0.330970 -0.509816
O26   O     O_R   0.212490 0.044390 0.669030 -0.503526
O27   O     O_R   0.287510 0.544390 0.330970 -0.503204
O28   O     O_R   0.712490 0.544390 0.669030 -0.503791
O29   O     O_R   0.765630 0.293570 0.323840 -0.508152
O30   O     O_R   0.234370 0.293570 0.676160 -0.510016
O31   O     O_R   0.265630 0.793570 0.323840 -0.506441
O32   O     O_R   0.734370 0.793570 0.676160 -0.509629
C13   C     C_R   0.728148 0.375361 0.353607 0.544465
C14   C     C_R   0.270376 0.379633 0.648271 0.550669
C15   C     C_R   0.226778 0.871457 0.355045 0.545025
C16   C     C_R   0.771920 0.875514 0.646417 0.550444
O33   O     O_R   0.670190 0.410420 0.329080 -0.513162
O34   O     O_R   0.329810 0.410420 0.670920 -0.516447
O35   O     O_R   0.170190 0.910420 0.329080 -0.512896
O36   O     O_R   0.829810 0.910420 0.670920 -0.509597
O37   O     O_R   0.556610 0.252880 0.323980 -0.493665
O38   O     O_R   0.443390 0.252880 0.676020 -0.489783
O39   O     O_R   0.056610 0.752880 0.323980 -0.493795
O40   O     O_R   0.943390 0.752880 0.676020 -0.485753
C17   C     C_R   0.531821 0.157223 0.353019 0.561541
C18   C     C_R   0.466059 0.156597 0.645490 0.565186
C19   C     C_R   0.031675 0.657120 0.352962 0.559672
C20   C     C_R   0.965528 0.656710 0.645194 0.565762
O41   O     O_R   0.545950 0.051210 0.330860 -0.515990
O42   O     O_R   0.454050 0.051210 0.669140 -0.515211
O43   O     O_R   0.045950 0.551210 0.330860 -0.516419
O44   O     O_R   0.954050 0.551210 0.669140 -0.516162
O45   O     O_R   0.681390 0.959480 0.325510 -0.513891
O46   O     O_R   0.318610 0.959480 0.674490 -0.508760
O47   O     O_R   0.181390 0.459480 0.325510 -0.513236
O48   O     O_R   0.818610 0.459480 0.674490 -0.509402
C21   C     C_R   0.741611 0.970742 0.353901 0.550578
C22   C     C_R   0.257949 0.969838 0.646541 0.560077
C23   C     C_R   0.240391 0.475079 0.355770 0.546715
C24   C     C_R   0.758382 0.470980 0.646047 0.561349
Cr1   Cr    Cr6+3 0.772010 0.169670 0.250090 1.128405
Cr2   Cr    Cr6+3 0.227990 0.169670 0.749910 1.098931
Cr3   Cr    Cr6+3 0.272010 0.669670 0.250090 1.131190
Cr4   Cr    Cr6+3 0.727990 0.669670 0.749910 1.099649
Cr5   Cr    Cr6+3 0.615000 0.323260 0.249260 1.106232
Cr6   Cr    Cr6+3 0.385000 0.323260 0.750740 1.075561
Cr7   Cr    Cr6+3 0.115000 0.823260 0.249260 1.105995
Cr8   Cr    Cr6+3 0.885000 0.823260 0.750740 1.079258
Cr9   Cr    Cr6+3 0.616710 0.010760 0.250840 1.071242
Cr10  Cr    Cr6+3 0.383290 0.010760 0.749160 1.083289
Cr11  Cr    Cr6+3 0.116710 0.510760 0.250840 1.071333
Cr12  Cr    Cr6+3 0.883290 0.510760 0.749160 1.083102
O49   O     O_3   0.667900 0.167900 0.250060 -0.304776
O50   O     O_3   0.332100 0.167900 0.749940 -0.335145
O51   O     O_3   0.167900 0.667900 0.250060 -0.307206
O52   O     O_3   0.832100 0.667900 0.749940 -0.337071
C25   C     C_R   0.491328 0.151394 0.929663 -0.037621
C26   C     C_R   0.494122 0.167463 0.078969 -0.001769
C27   C     C_R   0.991292 0.651388 0.929684 -0.037630
C28   C     C_R   0.994091 0.667481 0.078986 -0.001728
C29   C     C_R   0.511098 0.261409 0.961948 -0.103556
C30   C     C_R   0.502307 0.273076 0.036955 -0.100957
C31   C     C_R   0.011083 0.761395 0.961962 -0.103537
C32   C     C_R   0.002295 0.773079 0.036966 -0.101027
C33   C     C_R   0.472293 0.059941 0.047457 0.149924
C34   C     C_R   0.477503 0.047021 0.973495 0.123704
C35   C     C_R   0.972189 0.559982 0.047497 0.149855
C36   C     C_R   0.977425 0.547033 0.973523 0.123731
C37   C     C_R   0.534373 0.363600 0.921676 0.187929
C38   C     C_R   0.500531 0.390568 0.067402 0.213728
C39   C     C_R   0.034380 0.863567 0.921686 0.187861
C40   C     C_R   0.000538 0.890574 0.067410 0.213668
C41   C     C_R   0.031500 0.977254 0.953238 -0.078703
C42   C     C_R   0.015859 0.990313 0.024889 -0.047359
C43   C     C_R   0.531482 0.477279 0.953235 -0.078645
C44   C     C_R   0.515844 0.490320 0.024888 -0.047340
H1    H     H_    0.039756 0.057279 0.921599 0.249078
H2    H     H_    0.011776 0.080216 0.046877 0.264610
H3    H     H_    0.539728 0.557314 0.921602 0.249101
H4    H     H_    0.511755 0.580217 0.046881 0.264691
C45   C     C_R   0.778296 0.855240 0.935118 -0.031783
C46   C     C_R   0.255021 0.923332 0.079639 0.026924
C47   C     C_R   0.278284 0.355272 0.935115 -0.031627
C48   C     C_R   0.755032 0.423343 0.079646 0.027054
C49   C     C_R   0.712805 0.869857 0.964359 0.094526
C50   C     C_R   0.271471 0.838319 0.027892 0.123499
C51   C     C_R   0.212792 0.369887 0.964356 0.094562
C52   C     C_R   0.771484 0.338330 0.027899 0.123889
C53   C     C_R   0.702768 0.890355 0.035822 0.027694
C54   C     C_R   0.276826 0.870321 0.956651 0.109867
C55   C     C_R   0.202757 0.390382 0.035820 0.027625
C56   C     C_R   0.776838 0.370327 0.956657 0.109848
C57   C     C_R   0.825070 0.944900 0.040526 0.189507
C58   C     C_R   0.224251 0.062778 0.986460 0.122509
C59   C     C_R   0.325061 0.444928 0.040521 0.189503
C60   C     C_R   0.724255 0.562778 0.986463 0.122478
C61   C     C_R   0.835713 0.883250 0.976587 -0.149550
C62   C     C_R   0.235704 0.038811 0.058617 -0.120279
C63   C     C_R   0.335703 0.383278 0.976584 -0.149423
C64   C     C_R   0.735713 0.538820 0.058621 -0.120407
C65   C     C_3   0.654622 0.948155 0.941524 -0.209257
C66   C     C_3   0.227365 0.732257 0.010651 -0.289165
C67   C     C_3   0.154603 0.448176 0.941526 -0.209230
C68   C     C_3   0.727384 0.232258 0.010664 -0.289051
C69   C     C_3   0.638254 0.961885 0.020431 -0.228225
C70   C     C_3   0.239261 0.760166 0.933516 -0.255201
C71   C     C_3   0.138237 0.461906 0.020437 -0.228204
C72   C     C_3   0.739275 0.260164 0.933528 -0.255257
C73   C     C_R   0.758775 0.926926 0.076514 -0.022510
C74   C     C_R   0.257881 0.985775 0.935053 -0.009423
C75   C     C_R   0.258767 0.426950 0.076509 -0.022665
C76   C     C_R   0.757886 0.485777 0.935056 -0.009571
H5    H     H_    0.886644 0.886716 0.951351 0.158277
H6    H     H_    0.215444 0.100178 0.098791 0.184228
H7    H     H_    0.386635 0.386735 0.951350 0.158342
H8    H     H_    0.715450 0.600187 0.098795 0.184104
H9    H     H_    0.116942 0.398165 0.909200 0.243364
H10   H     H_    0.672191 0.246762 0.027776 0.108162
H11   H     H_    0.616957 0.898152 0.909199 0.243389
H12   H     H_    0.172173 0.746771 0.027761 0.108132
H13   H     H_    0.673342 0.033063 0.916258 0.134997
H14   H     H_    0.250153 0.646752 0.027584 0.176618
H15   H     H_    0.173318 0.533085 0.916258 0.134930
H16   H     H_    0.750176 0.146756 0.027599 0.176704
H17   H     H_    0.639312 0.055628 0.039965 0.086163
H18   H     H_    0.274354 0.694868 0.905824 0.205395
H19   H     H_    0.139297 0.555649 0.039969 0.086083
H20   H     H_    0.774369 0.194867 0.905837 0.205406
H21   H     H_    0.592154 0.911904 0.040292 0.248980
H22   H     H_    0.190613 0.781300 0.905397 0.193933
H23   H     H_    0.092136 0.411934 0.040313 0.248701
H24   H     H_    0.690623 0.281285 0.905412 0.193922
C77   C     C_R   0.484120 0.162277 0.570561 0.019942
C78   C     C_R   0.497345 0.168302 0.421830 0.021618
C79   C     C_R   0.982650 0.662981 0.570052 0.020282
C80   C     C_R   0.996210 0.667144 0.421409 0.023982
C81   C     C_R   0.464971 0.063726 0.528982 0.036021
C82   C     C_R   0.470203 0.066288 0.456156 0.025592
C83   C     C_R   0.967517 0.561356 0.529416 0.034378
C84   C     C_R   0.973013 0.562854 0.456570 0.026501
C85   C     C_R   0.506709 0.274364 0.462001 -0.167271
C86   C     C_R   0.500926 0.271052 0.536286 -0.172094
C87   C     C_R   0.000969 0.775241 0.460569 -0.153911
C88   C     C_R   0.994793 0.772944 0.534885 -0.154970
C89   C     C_3   0.488025 0.935250 0.533862 -0.267871
C90   C     C_3   0.491292 0.935730 0.453558 -0.264606
C91   C     C_3   0.996692 0.436895 0.535715 -0.270383
C92   C     C_3   0.000746 0.435908 0.455559 -0.264786
H25   H     H_    0.524591 0.356419 0.436799 0.137853
H26   H     H_    0.511791 0.351513 0.566754 0.129490
H27   H     H_    0.016105 0.858533 0.434760 0.130983
H28   H     H_    0.002872 0.854867 0.564825 0.127768
H29   H     H_    0.959468 0.370478 0.558133 0.138123
H30   H     H_    0.054904 0.429345 0.435636 0.166625
H31   H     H_    0.447564 0.874736 0.556150 0.138837
H32   H     H_    0.544677 0.920409 0.432972 0.160988
C93   C     C_R   0.761263 0.900433 0.571624 0.021657
C94   C     C_R   0.236036 0.889418 0.430823 0.018979
C95   C     C_R   0.250006 0.429804 0.580015 0.023752
C96   C     C_R   0.739167 0.400453 0.428298 0.023467
C97   C     C_R   0.820305 0.926364 0.530183 0.039909
C98   C     C_R   0.178827 0.930283 0.470400 0.028369
C99   C     C_R   0.295636 0.506705 0.542901 0.029667
C100  C     C_R   0.680979 0.434994 0.468694 0.031336
C101  C     C_R   0.817288 0.933401 0.457347 0.033390
C102  C     C_R   0.181646 0.940534 0.543075 0.031893
C103  C     C_R   0.293449 0.514248 0.470081 0.037587
C104  C     C_R   0.683422 0.442189 0.541557 0.029879
C105  C     C_R   0.697452 0.868962 0.462682 -0.169774
C106  C     C_R   0.294957 0.846492 0.542075 -0.154621
C107  C     C_R   0.193670 0.383735 0.468210 -0.171915
C108  C     C_R   0.800692 0.363404 0.538381 -0.163472
C109  C     C_R   0.700411 0.864611 0.537018 -0.172182
C110  C     C_R   0.292031 0.837167 0.467725 -0.152794
C111  C     C_R   0.194282 0.378870 0.542736 -0.170138
C112  C     C_R   0.798138 0.357586 0.464027 -0.161264
C113  C     C_3   0.869580 0.029808 0.535597 -0.272522
C114  C     C_3   0.137365 0.043201 0.461571 -0.274596
C115  C     C_3   0.373724 0.515043 0.542052 -0.269593
C116  C     C_3   0.637377 0.546047 0.461789 -0.274904
C117  C     C_3   0.867819 0.036596 0.455326 -0.263569
C118  C     C_3   0.139657 0.054920 0.541512 -0.266029
C119  C     C_3   0.370799 0.521433 0.461844 -0.270926
C120  C     C_3   0.638296 0.553113 0.541965 -0.264294
C121  C     C_R   0.753994 0.915093 0.422718 0.022764
C122  C     C_R   0.242901 0.910886 0.579249 0.024503
C123  C     C_R   0.246081 0.446782 0.430959 0.020936
C124  C     C_R   0.745462 0.416333 0.577208 0.024009
H33   H     H_    0.649404 0.845558 0.437151 0.122971
H34   H     H_    0.339892 0.812175 0.569567 0.121323
H35   H     H_    0.154283 0.334744 0.439772 0.118205
H36   H     H_    0.847630 0.335933 0.564855 0.123978
H37   H     H_    0.654960 0.836467 0.567376 0.118646
H38   H     H_    0.334266 0.793585 0.439131 0.126567
H39   H     H_    0.154886 0.326979 0.570579 0.120955
H40   H     H_    0.842701 0.323745 0.434454 0.120564
H41   H     H_    0.921177 0.003235 0.556389 0.140069
H42   H     H_    0.084140 0.026874 0.441418 0.137484
H43   H     H_    0.399253 0.431505 0.561017 0.168823
H44   H     H_    0.584798 0.528755 0.440377 0.139275
H45   H     H_    0.844585 0.121956 0.436270 0.162638
H46   H     H_    0.170450 0.133694 0.558236 0.162212
H47   H     H_    0.388909 0.609169 0.439887 0.138641
H48   H     H_    0.665847 0.633974 0.561038 0.167605
H49   H     H_    0.918218 0.011571 0.429398 0.141260
H50   H     H_    0.087774 0.044788 0.567940 0.140036
H51   H     H_    0.393236 0.440584 0.434950 0.153278
H52   H     H_    0.586442 0.536821 0.567267 0.139370
N1    N     N_R   0.440689 0.967469 0.091560 0.103350
O53   O     O_R   0.400063 0.998754 0.144463 -0.332275
O54   O     O_R   0.456770 0.853957 0.084093 -0.212568
N2    N     N_R   0.467438 0.928136 0.943869 0.114559
O55   O     O_R   0.510764 0.840767 0.956678 -0.288292
O56   O     O_R   0.407690 0.898644 0.918685 -0.289412
N3    N     N_R   0.940473 0.467650 0.091642 0.102788
O57   O     O_R   0.900204 0.499118 0.144786 -0.332433
O58   O     O_R   0.955677 0.353912 0.083629 -0.211836
N4    N     N_R   0.967422 0.428140 0.943883 0.114666
O59   O     O_R   0.010770 0.340818 0.956727 -0.288442
O60   O     O_R   0.907708 0.398582 0.918643 -0.289240
H53   H     H_    0.539975 0.925960 0.558825 0.138914
H54   H     H_    0.450833 0.878335 0.428935 0.136694
H55   H     H_    0.048495 0.436526 0.561365 0.144390
H56   H     H_    0.963985 0.371437 0.430972 0.136166
H57   H     H_    0.845433 0.109363 0.562282 0.142435
H58   H     H_    0.167063 0.114751 0.432823 0.144551
H59   H     H_    0.392603 0.599875 0.566676 0.132019
H60   H     H_    0.666118 0.620760 0.434994 0.147573
N5    N     N_R   0.563174 0.354361 0.850378 0.093482
O61   O     O_R   0.593798 0.255783 0.828639 -0.372856
O62   O     O_R   0.562859 0.447608 0.808022 -0.306489
N6    N     N_R   0.473696 0.412530 0.138143 0.122459
O63   O     O_R   0.420870 0.351228 0.163107 -0.325265
O64   O     O_R   0.501046 0.496438 0.177320 -0.290513
N7    N     N_R   0.063187 0.854303 0.850391 0.093395
O65   O     O_R   0.093789 0.755701 0.828656 -0.372826
O66   O     O_R   0.062902 0.947550 0.808034 -0.306535
N8    N     N_R   0.973713 0.912554 0.138154 0.122524
O67   O     O_R   0.920888 0.851266 0.163132 -0.324877
O68   O     O_R   0.001075 0.996462 0.177322 -0.290705
N9    N     N_R   0.865168 0.055770 0.046189 0.055539
O69   O     O_R   0.889620 0.096371 0.105557 -0.218016
O70   O     O_R   0.881042 0.115328 0.988333 -0.327495
N10   N     N_R   0.164694 0.138854 0.971477 0.047938
O71   O     O_R   0.145639 0.167008 0.907660 -0.310654
O72   O     O_R   0.124743 0.175210 0.023765 -0.368049
N11   N     N_R   0.365157 0.555802 0.046183 0.055436
O73   O     O_R   0.389613 0.596405 0.105549 -0.218128
O74   O     O_R   0.381030 0.615358 0.988325 -0.327567
N12   N     N_R   0.664690 0.638837 0.971482 0.047931
O75   O     O_R   0.645634 0.666992 0.907665 -0.310685
O76   O     O_R   0.624738 0.675188 0.023771 -0.367913

loop_
_geom_bond_atom_site_label_1
_geom_bond_atom_site_label_2
_geom_bond_distance
_ccdc_geom_bond_type
C18   O42   1.267781 A    
C80   C87   1.410013 A    
C115  C119  1.510603 S    
C83   C84   1.371685 A    
O4    C12   1.279654 A    
C65   C69   1.519546 S    
C29   C30   1.423560 A    
O39   C19   1.281231 A    
C62   H6    1.084207 S    
C46   C62   1.387627 A    
C81   C82   1.371187 A    
C106  H34   1.078204 S    
O37   Cr5   1.946653 S    
C31   C32   1.423525 A    
C65   H11   1.101135 S    
C105  H33   1.076926 S    
C14   C95   1.454245 S    
C68   C72   1.496021 S    
C49   C65   1.478185 S    
C86   H26   1.082169 S    
Cr7   O51   1.994022 S    
C33   C34   1.399885 A    
C92   H56   1.110252 S    
O48   Cr12  1.970686 S    
O1    C9    1.244536 A    
O27   Cr3   2.078553 S    
C57   N9    1.454774 S    
C85   C86   1.399356 A    
C115  H59   1.111443 S    
C55   C75   1.388414 A    
N12   O75   1.295417 A    
C22   C122  1.457107 S    
C45   C61   1.393358 A    
C108  C124  1.405332 A    
C47   C63   1.393359 A    
C65   H13   1.110203 S    
C96   C100  1.394147 A    
C118  H50   1.111745 S    
N9    O69   1.297759 A    
C37   N5    1.446157 S    
C19   C80   1.451302 S    
O35   Cr7   2.087073 S    
O26   Cr2   2.084761 S    
N5    O61   1.301650 A    
C116  H44   1.107759 S    
C97   C101  1.372799 A    
O47   C23   1.285187 A    
O20   Cr12  2.091940 S    
C84   C92   1.500948 S    
C58   C62   1.401162 A    
N4    O60   1.288513 A    
C2    C47   1.434967 S    
C55   C71   1.497800 S    
O8    Cr4   1.963804 S    
C67   H15   1.110201 S    
N2    O55   1.297204 A    
C58   C74   1.435217 A    
C104  C124  1.401472 A    
N1    O53   1.301779 A    
O30   C14   1.284599 A    
C53   C69   1.497778 S    
O32   Cr4   1.950200 S    
C18   C77   1.446854 S    
C1    O9    1.273291 A    
O44   Cr12  2.061113 S    
O7    C3    1.273190 A    
C49   C53   1.373522 A    
C112  H40   1.079708 S    
C42   H2    1.080613 S    
C104  C120  1.499928 S    
C59   C75   1.445859 A    
C113  H57   1.111235 S    
C117  H45   1.104280 S    
C94   C110  1.407953 A    
O11   Cr7   2.067307 S    
C7    O19   1.286314 A    
C108  C112  1.400501 A    
O21   C9    1.300978 A    
C57   C73   1.445862 A    
N6    O63   1.302268 A    
C77   C86   1.400318 A    
C110  H38   1.079199 S    
C90   H54   1.110525 S    
N11   O73   1.297764 A    
C109  H37   1.081353 S    
C103  C119  1.491401 S    
O6    Cr2   1.963804 S    
C60   N12   1.447118 S    
C27   C36   1.440329 A    
O3    Cr3   2.072868 S    
Cr4   O52   1.996189 S    
C26   C33   1.398228 A    
C34   N2    1.444489 S    
N8    O67   1.302274 A    
O2    Cr2   2.068908 S    
O8    C4    1.314378 A    
C91   H55   1.109791 S    
Cr6   O50   1.999026 S    
C14   O34   1.269523 A    
N11   O74   1.303095 A    
O42   Cr10  2.061113 S    
C85   H25   1.077933 S    
O18   Cr10  2.091940 S    
O27   C23   1.269951 A    
C108  H36   1.076812 S    
O31   Cr3   1.954607 S    
C96   C112  1.403567 A    
C21   C121  1.453155 S    
C83   C91   1.490322 S    
C118  H46   1.103058 S    
C3    O11   1.273269 A    
C107  C123  1.403410 A    
C101  C121  1.400138 A    
C97   C113  1.490983 S    
O34   Cr6   2.080814 S    
C40   C42   1.390900 A    
C31   C39   1.428538 A    
C58   N10   1.447118 S    
C26   C30   1.416875 A    
C94   C98   1.392148 A    
C99   C103  1.372028 A    
C5    C26   1.481996 S    
N3    O58   1.300014 A    
C28   C32   1.416828 A    
C77   C81   1.396184 A    
C24   C124  1.454012 S    
O9    Cr5   2.067307 S    
C38   C44   1.390903 A    
O30   Cr2   1.950200 S    
C20   C79   1.447073 S    
O22   C10   1.331372 A    
C107  H35   1.079107 S    
C120  H52   1.111328 S    
C10   C74   1.463622 S    
C4    O12   1.290415 A    
O36   Cr8   2.080814 S    
C103  C123  1.395473 A    
C68   H10   1.113228 S    
C54   C70   1.486664 S    
C39   C41   1.392977 A    
C2    O10   1.290398 A    
C29   C37   1.428534 A    
C100  C104  1.373240 A    
N5    O62   1.301822 A    
O16   Cr8   1.963540 S    
C15   O35   1.269516 A    
C17   C78   1.449752 S    
C95   C99   1.400468 A    
C9    C73   1.447484 S    
N4    O59   1.297209 A    
Cr10  O50   1.994614 S    
O29   Cr1   1.954607 S    
C116  H60   1.110914 S    
C113  C117  1.511022 S    
O28   Cr4   2.084761 S    
C47   C51   1.373263 A    
O43   Cr11  2.061089 S    
O48   C24   1.284802 A    
C52   C68   1.487600 S    
C116  C120  1.509306 S    
C64   H8    1.084209 S    
O22   Cr10  1.942824 S    
O15   C7    1.281362 A    
C50   C54   1.386577 A    
C99   C115  1.500175 S    
C107  C111  1.401654 A    
C92   H30   1.101397 S    
C93   C97   1.395584 A    
C98   C114  1.489391 S    
O39   Cr7   1.946653 S    
O13   Cr5   1.968931 S    
C70   H18   1.111611 S    
C13   C96   1.449901 S    
O45   Cr9   1.966631 S    
C35   C36   1.400160 A    
C48   C64   1.387627 A    
O3    C11   1.244526 A    
C117  H49   1.111104 S    
O14   Cr6   1.963540 S    
C66   H12   1.113228 S    
C53   C73   1.388404 A    
C51   C67   1.478199 S    
C13   O33   1.268162 A    
C114  H42   1.108683 S    
O23   Cr11  1.942821 S    
C119  H47   1.108991 S    
C70   H22   1.102382 S    
O7    Cr3   1.958428 S    
O47   Cr11  1.966631 S    
Cr2   O50   1.996189 S    
O15   Cr7   1.968931 S    
O32   C16   1.282084 A    
C60   C76   1.435221 A    
C43   H3    1.076437 S    
Cr1   O49   1.996302 S    
C16   C93   1.448739 S    
C46   C50   1.387539 A    
C115  H43   1.105414 S    
C45   C49   1.373239 A    
C111  H39   1.079161 S    
O26   C22   1.267679 A    
C82   C90   1.500154 S    
O21   Cr9   1.942821 S    
C78   C82   1.397313 A    
C39   N7    1.446168 S    
C81   C89   1.490852 S    
C57   C61   1.395659 A    
C106  C110  1.403212 A    
C120  H48   1.103545 S    
O25   C21   1.271540 A    
N8    O68   1.302303 A    
C19   O43   1.272442 A    
N1    O54   1.300269 A    
C119  H51   1.111538 S    
C54   C74   1.388621 A    
C43   C44   1.383445 A    
C35   N3    1.445050 S    
C102  C118  1.498824 S    
C8    C27   1.487544 S    
O24   C12   1.331371 A    
C101  C117  1.499897 S    
C8    O20   1.256656 A    
C87   H27   1.079284 S    
C4    C45   1.434991 S    
O38   C18   1.283550 A    
O25   Cr1   2.078553 S    
C44   H4    1.080614 S    
C88   H28   1.080928 S    
C32   C40   1.422164 A    
C5    O17   1.286297 A    
C60   C64   1.401175 A    
C78   C85   1.410468 A    
O37   C17   1.279706 A    
O28   C24   1.268271 A    
O14   C6    1.305742 A    
C1    C48   1.438622 S    
N12   O76   1.301713 A    
C56   C72   1.486687 S    
O5    Cr1   1.958428 S    
Cr12  O52   1.994614 S    
O24   Cr12  1.942824 S    
O5    C1    1.273185 A    
O31   C15   1.276395 A    
O17   Cr9   2.088797 S    
C50   C66   1.487598 S    
Cr11  O51   1.999384 S    
C66   C70   1.496022 S    
N2    O56   1.288491 A    
C79   C83   1.394485 A    
N3    O57   1.301755 A    
C17   O41   1.273262 A    
C91   H29   1.104824 S    
C51   C55   1.373513 A    
C95   C111  1.405529 A    
C72   H24   1.102401 S    
C89   H53   1.111049 S    
C41   C42   1.383453 A    
O46   C22   1.287248 A    
C23   C123  1.451994 S    
C36   N4    1.444500 S    
C89   H31   1.103952 S    
O29   C13   1.279475 A    
C69   H17   1.101768 S    
C25   C34   1.440275 A    
C20   O44   1.269080 A    
N7    O65   1.301656 A    
O1    Cr1   2.072868 S    
C106  C122  1.404305 A    
C59   C63   1.395634 A    
O19   Cr11  2.088797 S    
O40   Cr8   1.946944 S    
C12   C76   1.463646 S    
C105  C121  1.406962 A    
Cr8   O52   1.999026 S    
C87   C88   1.400223 A    
C67   H9    1.101136 S    
C72   H20   1.111608 S    
O46   Cr10  1.970686 S    
C69   H21   1.104324 S    
C71   H19   1.101760 S    
N7    O66   1.301823 A    
O2    C10   1.279640 A    
C98   C102  1.372555 A    
C41   H1    1.076431 S    
C15   C94   1.451711 S    
C80   C84   1.399298 A    
O45   C21   1.284899 A    
C114  H58   1.111499 S    
O23   C11   1.300962 A    
C71   H23   1.104388 S    
C59   N11   1.454785 S    
N9    O70   1.303094 A    
C6    C25   1.487484 S    
O33   Cr5   2.087073 S    
C67   C71   1.519600 S    
C38   N6    1.440101 S    
C61   H5    1.080620 S    
O10   Cr6   2.068059 S    
C68   H16   1.089789 S    
C25   C29   1.416647 A    
C40   N8    1.440121 S    
C102  C122  1.402567 A    
O4    Cr4   2.068908 S    
O6    C2    1.314356 A    
C113  H41   1.107239 S    
Cr5   O49   1.994022 S    
C91   C92   1.507396 S    
C100  C116  1.490895 S    
C48   C52   1.387546 A    
C16   O36   1.268954 A    
O40   C20   1.281675 A    
N10   O71   1.295415 A    
C30   C38   1.422163 A    
C27   C31   1.416630 A    
N6    O64   1.302303 A    
C89   C90   1.509604 S    
C6    O18   1.256664 A    
C3    C46   1.438612 S    
C37   C43   1.392969 A    
C105  C109  1.399586 A    
C7    C28   1.482025 S    
C56   C76   1.388624 A    
O41   Cr9   2.061089 S    
C63   H7    1.080625 S    
C93   C109  1.401987 A    
C33   N1    1.444808 S    
O12   Cr8   2.068059 S    
C114  C118  1.509476 S    
C66   H14   1.089780 S    
N10   O72   1.301712 A    
C90   H32   1.102241 S    
O16   C8    1.305764 A    
Cr9   O49   1.999384 S    
Cr3   O51   1.996302 S    
C52   C56   1.386586 A    
C28   C35   1.398268 A    
C11   C75   1.447441 S    
C79   C88   1.402023 A    
O38   Cr6   1.946944 S    
O13   C5    1.281379 A    
