data_mof_unit_26129.cif
_audit_creation_date              2012-10-26T18:55:55-0400
_audit_creation_method            fapswitch 2.2
_symmetry_space_group_name_H-M    P1
_symmetry_Int_Tables_number       1
_space_group_crystal_system       triclinic
_cell_length_a                    23.07049
_cell_length_b                    22.031736
_cell_length_c                    14.750943
_cell_angle_alpha                 89.749686
_cell_angle_beta                  92.352294
_cell_angle_gamma                 90.12465
_cell_volume                      7491.2484146

loop_
_atom_site_label
_atom_site_type_symbol
_atom_type_description
_atom_site_fract_x
_atom_site_fract_y
_atom_site_fract_z
_atom_type_partial_charge
C1    C     C_R   0.079344 0.419375 0.501240 0.545316
C2    C     C_1   0.842449 0.668278 0.504773 -0.092812
C3    C     C_R   0.867273 0.862937 0.627055 -0.101178
C4    C     C_R   0.363100 0.681018 0.484658 0.039042
C5    C     C_R   0.346779 0.631507 0.427719 -0.086142
C6    C     C_R   0.388122 0.597814 0.383404 -0.107561
C7    C     C_R   0.446664 0.612002 0.394626 -0.099172
C8    C     C_R   0.464131 0.660943 0.448644 -0.116864
C9    C     C_R   0.423111 0.695327 0.492493 -0.102699
C10   C     C_R   0.307328 0.758065 0.317598 0.020407
C11   C     C_R   0.368528 0.762803 0.316765 -0.081121
C12   C     C_R   0.398605 0.750162 0.238678 -0.103455
C13   C     C_1   0.347385 0.827015 0.498559 -0.084618
C14   C     C_R   0.368576 0.734340 0.158467 -0.094075
C15   C     C_R   0.308288 0.731158 0.156081 -0.103753
C16   C     C_R   0.278037 0.743088 0.234163 -0.102201
C17   C     C_R   0.341269 0.268592 0.364963 0.019608
C18   C     C_R   0.358274 0.330553 0.367086 -0.089416
C19   C     C_R   0.403814 0.351609 0.315786 -0.108959
C20   C     C_R   0.434536 0.311541 0.263226 -0.121134
C21   C     C_R   0.422457 0.249681 0.266558 -0.115937
C22   C     C_R   0.376851 0.228307 0.317313 -0.088378
C23   C     C_R   0.364197 0.306945 0.579205 0.031457
C24   C     C_1   0.342453 0.168283 0.504773 -0.092809
C25   C     C_R   0.417435 0.283564 0.550207 -0.078676
C26   C     C_R   0.469487 0.314916 0.565543 -0.102663
C27   C     C_R   0.470346 0.371237 0.607642 -0.097378
C28   C     C_R   0.419141 0.395359 0.638169 -0.114969
C29   C     C_R   0.367275 0.362945 0.627044 -0.101180
C30   C     C_1   0.741175 0.331641 0.374305 0.177012
C31   C     C_1   0.848884 0.225003 0.632368 0.164739
C32   C     C_1   0.814556 0.740773 0.674824 0.165500
C33   C     C_1   0.760081 0.696785 0.347913 0.176889
C34   C     C_1   0.241173 0.831653 0.374316 0.177009
C35   C     C_1   0.881844 0.368151 0.498288 -0.051037
C36   C     C_1   0.348886 0.724992 0.632354 0.164736
C37   C     C_1   0.314563 0.240779 0.674822 0.165501
C38   C     C_1   0.260082 0.196784 0.347917 0.176889
C39   C     C_R   0.175432 0.766013 0.663573 0.025317
C40   C     C_R   0.179056 0.816975 0.722361 -0.110783
C41   C     C_R   0.161293 0.814080 0.811652 -0.114762
C42   C     C_R   0.139530 0.760236 0.846007 -0.103712
C43   C     C_R   0.136344 0.708975 0.791455 -0.113806
C44   C     C_R   0.154229 0.711477 0.702071 -0.095930
C45   C     C_R   0.145164 0.812711 0.512679 0.061227
C46   C     C_1   0.877942 0.628316 0.499783 -0.064016
C47   C     C_R   0.140454 0.876113 0.529632 -0.074627
C48   C     C_R   0.100672 0.912739 0.480950 -0.099480
C49   C     C_R   0.063909 0.887700 0.414169 -0.088817
C50   C     C_R   0.065611 0.825640 0.398405 -0.120015
C51   C     C_R   0.103714 0.788476 0.449015 -0.109879
C52   C     C_R   0.143206 0.192873 0.448477 0.044764
C53   C     C_R   0.115650 0.226157 0.376473 -0.102505
C54   C     C_R   0.085877 0.196638 0.304923 -0.108210
C55   C     C_R   0.080655 0.133672 0.305198 -0.094188
C56   C     C_R   0.101955 0.100385 0.379820 -0.104982
C57   C     C_1   0.381846 0.868149 0.498287 -0.051038
C58   C     C_R   0.131162 0.129793 0.451948 -0.093096
C59   C     C_R   0.145706 0.222297 0.611910 0.028998
C60   C     C_R   0.086737 0.240722 0.603615 -0.088067
C61   C     C_R   0.051751 0.242896 0.678562 -0.102327
C62   C     C_R   0.074432 0.227216 0.764266 -0.098140
C63   C     C_R   0.132278 0.209822 0.775181 -0.117544
C64   C     C_R   0.167628 0.207673 0.700488 -0.113747
C65   C     C_R   0.675420 0.266020 0.663556 0.025313
C66   C     C_R   0.679034 0.316989 0.722333 -0.110783
C67   C     C_R   0.661260 0.314102 0.811619 -0.114759
C68   C     C_1   0.377945 0.128319 0.499783 -0.064010
C69   C     C_R   0.639497 0.260259 0.845981 -0.103709
C70   C     C_R   0.636323 0.208992 0.791441 -0.113802
C71   C     C_R   0.654219 0.211486 0.702062 -0.095929
C72   C     C_R   0.645160 0.312703 0.512648 0.061229
C73   C     C_R   0.640445 0.376107 0.529586 -0.074625
C74   C     C_R   0.600664 0.412725 0.480889 -0.099474
C75   C     C_R   0.563908 0.387678 0.414104 -0.088813
C76   C     C_R   0.565615 0.325616 0.398354 -0.120016
C77   C     C_R   0.603716 0.288460 0.448982 -0.109879
C78   C     C_R   0.643204 0.692876 0.448463 0.044765
C79   C     C_3   0.966790 0.561081 0.047739 -0.075158
C80   C     C_R   0.615651 0.726163 0.376459 -0.102503
C81   C     C_R   0.585880 0.696647 0.304904 -0.108212
C82   C     C_R   0.580656 0.633681 0.305175 -0.094190
C83   C     C_R   0.601952 0.600391 0.379797 -0.104980
C84   C     C_R   0.631157 0.629796 0.451929 -0.093095
C85   C     C_R   0.645699 0.722296 0.611898 0.028998
C86   C     C_R   0.586731 0.740722 0.603600 -0.088068
C87   C     C_R   0.551742 0.742896 0.678544 -0.102324
C88   C     C_R   0.574421 0.727215 0.764249 -0.098137
C89   C     C_R   0.632266 0.709820 0.775168 -0.117545
C90   C     C_3   0.960929 0.555789 0.939752 -0.078521
C91   C     C_R   0.667619 0.707671 0.700477 -0.113746
C92   C     C_R   0.901965 0.567191 0.888314 0.011680
C93   C     C_R   0.847171 0.556656 0.924457 -0.086506
C94   C     C_R   0.795985 0.561828 0.871054 -0.121106
C95   C     C_R   0.798133 0.578520 0.780271 -0.100690
C96   C     C_R   0.851314 0.592564 0.744151 -0.068415
C97   C     C_R   0.902360 0.589285 0.798235 -0.082350
C98   C     C_R   0.917653 0.595771 0.089891 0.006127
C99   C     C_R   0.906066 0.654921 0.056686 -0.101401
C100  C     C_R   0.855271 0.684946 0.077568 -0.105181
C101  C     C_3   0.969448 0.436495 0.945668 -0.079675
C102  C     C_R   0.815902 0.657019 0.133345 -0.100713
C103  C     C_R   0.829015 0.600653 0.172968 -0.119973
C104  C     C_R   0.880303 0.570813 0.153319 -0.098511
C105  C     C_R   0.902004 0.427962 0.092256 0.014070
C106  C     C_R   0.848497 0.434058 0.043351 -0.088726
C107  C     C_R   0.795933 0.423253 0.083558 -0.131373
C108  C     C_R   0.795252 0.406119 0.174004 -0.097954
C109  C     C_R   0.847268 0.398187 0.223973 -0.085581
C110  C     C_R   0.900139 0.406781 0.182702 -0.106945
C111  C     C_R   0.923086 0.399353 0.893073 0.008053
C112  C     C_R   0.079593 0.580628 0.501046 0.548437
C113  C     C_3   0.961695 0.441470 0.052693 -0.079112
C114  C     C_R   0.912912 0.339513 0.923365 -0.094076
C115  C     C_R   0.866002 0.305850 0.888127 -0.077512
C116  C     C_R   0.829497 0.330441 0.820003 -0.081824
C117  C     C_R   0.841051 0.387793 0.784584 -0.113081
C118  C     C_R   0.887613 0.422042 0.820349 -0.077646
C119  C     C_R   0.401963 0.067188 0.888313 0.011679
C120  C     C_R   0.347169 0.056652 0.924457 -0.086508
C121  C     C_R   0.295983 0.061825 0.871055 -0.121109
C122  C     C_R   0.298130 0.078519 0.780273 -0.100695
C123  C     C_R   0.351311 0.092563 0.744152 -0.068416
C124  C     C_3   0.466787 0.061081 0.047739 -0.075159
C125  C     C_R   0.402358 0.089283 0.798235 -0.082346
C126  C     C_R   0.417650 0.095770 0.089891 0.006128
C127  C     C_R   0.406061 0.154919 0.056685 -0.101401
C128  C     C_R   0.355265 0.184943 0.077567 -0.105184
C129  C     C_R   0.315897 0.157014 0.133346 -0.100715
C130  C     C_R   0.329012 0.100649 0.172968 -0.119968
C131  C     C_R   0.380301 0.070811 0.153320 -0.098509
C132  C     C_R   0.402007 0.927960 0.092257 0.014072
C133  C     C_R   0.348500 0.934054 0.043351 -0.088725
C134  C     C_R   0.295935 0.923249 0.083559 -0.131371
C135  C     C_3   0.460927 0.055788 0.939752 -0.078521
C136  C     C_R   0.295255 0.906118 0.174007 -0.097949
C137  C     C_R   0.347270 0.898188 0.223977 -0.085582
C138  C     C_R   0.400142 0.906782 0.182704 -0.106948
C139  C     C_R   0.423092 0.899349 0.893076 0.008056
C140  C     C_R   0.412925 0.839508 0.923367 -0.094084
C141  C     C_R   0.366019 0.805839 0.888126 -0.077524
C142  C     C_R   0.329513 0.830426 0.820000 -0.081824
C143  C     C_R   0.341061 0.887780 0.784584 -0.113084
C144  C     C_R   0.387618 0.922036 0.820351 -0.077648
C145  C     C_3   0.469452 0.936495 0.945670 -0.079674
C146  C     C_3   0.461697 0.941470 0.052694 -0.079111
C147  C     C_3   0.993104 0.500584 0.091830 0.011095
C148  C     C_3   0.994502 0.498011 0.906413 0.009515
C149  C     C_3   0.493104 0.000585 0.091830 0.011095
C150  C     C_3   0.494503 0.998012 0.906413 0.009514
C151  C     C_3   0.057086 0.503476 0.951068 -0.264611
C152  C     C_R   0.579344 0.919375 0.501240 0.545315
C153  C     C_3   0.056364 0.497475 0.056881 -0.262994
C154  C     C_3   0.557086 0.003480 0.951068 -0.264613
C155  C     C_3   0.556364 0.997479 0.056881 -0.262995
C156  C     C_1   0.998926 0.498319 0.804263 0.095049
C157  C     C_1   0.997526 0.500967 0.195269 0.091947
C158  C     C_1   0.498926 0.998320 0.804263 0.095050
C159  C     C_1   0.497526 0.000968 0.195269 0.091947
C160  C     C_R   0.921875 0.417844 0.499247 0.546534
C161  C     C_R   0.920548 0.580958 0.499207 0.546389
C162  C     C_R   0.421876 0.917844 0.499247 0.546535
C163  C     C_R   0.579594 0.080627 0.501046 0.548437
C164  C     C_R   0.420549 0.080959 0.499207 0.546392
C165  C     C_3   0.819457 0.216833 0.541492 0.007125
C166  C     C_3   0.770195 0.273578 0.400180 0.008727
C167  C     C_3   0.785543 0.744384 0.409147 0.013717
C168  C     C_3   0.808298 0.767622 0.582763 0.005884
C169  C     C_3   0.319457 0.716829 0.541479 0.007127
C170  C     C_3   0.270190 0.773586 0.400181 0.008727
C171  C     C_3   0.285543 0.244386 0.409148 0.013716
C172  C     C_3   0.308302 0.267627 0.582761 0.005883
C173  C     C_3   0.222446 0.723837 0.409841 -0.206526
C174  C     C_1   0.160720 0.664817 0.507118 -0.104066
C175  C     C_3   0.261970 0.680342 0.558514 -0.220397
C176  C     C_3   0.251895 0.308599 0.579566 -0.223329
C177  C     C_3   0.236676 0.293300 0.414278 -0.210091
C178  C     C_3   0.722454 0.223825 0.409842 -0.206524
C179  C     C_3   0.761971 0.180345 0.558530 -0.220399
C180  C     C_3   0.751892 0.808595 0.579566 -0.223329
C181  C     C_3   0.736679 0.793301 0.414277 -0.210091
C182  C     C_1   0.123566 0.626351 0.503733 -0.055153
C183  C     C_1   0.122657 0.373508 0.503841 -0.042456
C184  C     C_1   0.623570 0.126347 0.503734 -0.055150
C185  C     C_1   0.159248 0.334900 0.504943 -0.083657
C186  C     C_1   0.622657 0.873509 0.503840 -0.042454
C187  C     C_3   0.800576 0.280970 0.498633 0.032204
C188  C     C_3   0.796988 0.715817 0.507795 0.031796
C189  C     C_3   0.300576 0.780970 0.498631 0.032205
C190  C     C_3   0.296991 0.215821 0.507796 0.031796
C191  C     C_3   0.207489 0.710610 0.510605 0.023205
C192  C     C_3   0.205450 0.288965 0.505536 0.026548
C193  C     C_3   0.707492 0.210605 0.510606 0.023207
C194  C     C_3   0.705449 0.788964 0.505532 0.026548
C195  C     C_3   0.193657 0.773055 0.562369 0.019101
C196  C     C_1   0.660725 0.164811 0.507119 -0.104063
C197  C     C_3   0.182841 0.221812 0.525489 0.022181
C198  C     C_3   0.693653 0.273054 0.562356 0.019101
C199  C     C_3   0.682837 0.721812 0.525480 0.022181
C200  C     C_3   0.754128 0.308342 0.562994 -0.214670
C201  C     C_3   0.740043 0.681233 0.534714 -0.212518
C202  C     C_3   0.254134 0.808340 0.563002 -0.214669
C203  C     C_3   0.240049 0.181235 0.534720 -0.212517
C204  C     C_R   0.863104 0.181019 0.484681 0.039046
C205  C     C_R   0.846787 0.131498 0.427756 -0.086144
C206  C     C_R   0.888133 0.097800 0.383455 -0.107565
C207  C     C_1   0.659248 0.834900 0.504940 -0.083656
C208  C     C_R   0.946673 0.111992 0.394678 -0.099167
C209  C     C_R   0.964137 0.160942 0.448680 -0.116856
C210  C     C_R   0.923114 0.195331 0.492516 -0.102699
C211  C     C_R   0.807338 0.258055 0.317604 0.020408
C212  C     C_R   0.868538 0.262798 0.316778 -0.081122
C213  C     C_R   0.898621 0.250158 0.238695 -0.103460
C214  C     C_R   0.868596 0.234332 0.158483 -0.094082
C215  C     C_R   0.808308 0.231143 0.156090 -0.103753
C216  C     C_R   0.778053 0.243073 0.234167 -0.102194
C217  C     C_R   0.841271 0.768586 0.364966 0.019609
C218  C     C_1   0.847383 0.327017 0.498561 -0.084616
C219  C     C_R   0.858281 0.830547 0.367088 -0.089417
C220  C     C_R   0.903823 0.851599 0.315790 -0.108966
C221  C     C_R   0.934544 0.811527 0.263235 -0.121139
C222  C     C_R   0.922461 0.749668 0.266568 -0.115933
C223  C     C_R   0.876853 0.728299 0.317320 -0.088376
C224  C     C_R   0.864194 0.806938 0.579212 0.031457
C225  C     C_R   0.917433 0.783555 0.550220 -0.078679
C226  C     C_R   0.969486 0.814901 0.565570 -0.102666
C227  C     C_R   0.970347 0.871221 0.607673 -0.097376
C228  C     C_R   0.919141 0.895346 0.638192 -0.114970
Cu1   Cu    Cu3+1 0.999990 0.500000 0.589920 0.967020
Cu2   Cu    Cu3+1 0.999990 0.500000 0.410080 0.958546
Cu3   Cu    Cu3+1 0.499990 0.000000 0.589920 0.967023
Cu4   Cu    Cu3+1 0.499990 0.000000 0.410080 0.958546
H1    H     H_    0.265256 0.631632 0.541584 0.104432
H2    H     H_    0.254111 0.677649 0.632275 0.123270
H3    H     H_    0.211904 0.195672 0.715262 0.130577
H4    H     H_    0.697911 0.359270 0.701590 0.078494
H5    H     H_    0.665028 0.353760 0.854557 0.101693
H6    H     H_    0.625858 0.258017 0.915258 0.100049
H7    H     H_    0.620275 0.166740 0.818720 0.100237
H8    H     H_    0.651902 0.169248 0.667078 0.122471
H9    H     H_    0.668273 0.399408 0.578159 0.079742
H10   H     H_    0.598908 0.460912 0.494502 0.093154
H11   H     H_    0.533539 0.416116 0.375639 0.099500
H12   H     H_    0.536608 0.305417 0.347986 0.114609
H13   H     H_    0.231688 0.310540 0.646797 0.131129
H14   H     H_    0.599395 0.241012 0.435362 0.110941
H15   H     H_    0.615745 0.774898 0.374094 0.102901
H16   H     H_    0.566463 0.722812 0.249330 0.095813
H17   H     H_    0.557941 0.610935 0.249333 0.099249
H18   H     H_    0.595463 0.551757 0.382088 0.101376
H19   H     H_    0.646150 0.602705 0.509639 0.093015
H20   H     H_    0.567262 0.754174 0.538736 0.099006
H21   H     H_    0.506962 0.757135 0.670094 0.130534
H22   H     H_    0.547312 0.729059 0.822352 0.111809
H23   H     H_    0.650086 0.698389 0.842103 0.110670
H24   H     H_    0.206369 0.291200 0.354199 0.114643
H25   H     H_    0.711894 0.695670 0.715254 0.130575
H26   H     H_    0.842444 0.544070 0.993499 0.137760
H27   H     H_    0.754598 0.552396 0.900204 0.102618
H28   H     H_    0.758576 0.581897 0.738516 0.096586
H29   H     H_    0.852784 0.607298 0.674589 0.139055
H30   H     H_    0.942605 0.602465 0.768450 0.124968
H31   H     H_    0.934826 0.676342 0.009868 0.102852
H32   H     H_    0.845740 0.729187 0.048535 0.120823
H33   H     H_    0.775505 0.679562 0.145815 0.146797
H34   H     H_    0.798968 0.579133 0.217444 0.153303
H35   H     H_    0.683447 0.235373 0.367017 0.107243
H36   H     H_    0.888122 0.527292 0.184073 0.145513
H37   H     H_    0.845588 0.447036 0.973830 0.131700
H38   H     H_    0.755537 0.428677 0.044389 0.102290
H39   H     H_    0.754165 0.398611 0.204146 0.152533
H40   H     H_    0.846732 0.385147 0.294630 0.139767
H41   H     H_    0.939697 0.397847 0.222358 0.119647
H42   H     H_    0.939788 0.319968 0.977868 0.089955
H43   H     H_    0.857572 0.260887 0.914431 0.110387
H44   H     H_    0.792835 0.304404 0.793849 0.127476
H45   H     H_    0.813193 0.406299 0.730492 0.101107
H46   H     H_    0.754108 0.177661 0.632291 0.123266
H47   H     H_    0.893250 0.466692 0.793028 0.143390
H48   H     H_    0.342442 0.044064 0.993498 0.137760
H49   H     H_    0.254596 0.052393 0.900205 0.102619
H50   H     H_    0.258573 0.081897 0.738519 0.096586
H51   H     H_    0.352780 0.107298 0.674590 0.139052
H52   H     H_    0.442602 0.102464 0.768450 0.124969
H53   H     H_    0.434820 0.176341 0.009866 0.102852
H54   H     H_    0.345733 0.229183 0.048534 0.120824
H55   H     H_    0.275500 0.179556 0.145815 0.146796
H56   H     H_    0.298966 0.079128 0.217446 0.153304
H57   H     H_    0.731684 0.810535 0.646795 0.131129
H58   H     H_    0.388121 0.027290 0.184073 0.145513
H59   H     H_    0.345590 0.947030 0.973829 0.131697
H60   H     H_    0.255539 0.928671 0.044390 0.102287
H61   H     H_    0.254168 0.898610 0.204150 0.152525
H62   H     H_    0.346735 0.885152 0.294634 0.139766
H63   H     H_    0.439700 0.897849 0.222361 0.119648
H64   H     H_    0.439802 0.819966 0.977870 0.089952
H65   H     H_    0.357594 0.760875 0.914427 0.110386
H66   H     H_    0.292855 0.804384 0.793844 0.127488
H67   H     H_    0.313200 0.906284 0.730491 0.101105
H68   H     H_    0.706374 0.791205 0.354196 0.114642
H69   H     H_    0.393250 0.966686 0.793032 0.143388
H70   H     H_    0.774077 0.309502 0.632599 0.113925
H71   H     H_    0.748631 0.357140 0.546839 0.117951
H72   H     H_    0.736455 0.640004 0.491930 0.131925
H73   H     H_    0.236272 0.680804 0.379061 0.108856
H74   H     H_    0.746727 0.659393 0.601484 0.090076
H75   H     H_    0.274087 0.809496 0.632604 0.113923
H76   H     H_    0.248638 0.857139 0.546854 0.117952
H77   H     H_    0.236461 0.140006 0.491937 0.131927
H78   H     H_    0.246735 0.159396 0.601490 0.090075
H79   H     H_    0.988291 0.402925 0.080646 0.081416
H80   H     H_    0.006738 0.404754 0.939235 0.103389
H81   H     H_    0.987070 0.595219 0.916644 0.082679
H82   H     H_    0.002647 0.594456 0.060974 0.096323
H83   H     H_    0.488294 0.902926 0.080649 0.081415
H84   H     H_    0.252252 0.340290 0.407575 0.097086
H85   H     H_    0.506743 0.904756 0.939238 0.103390
H86   H     H_    0.487066 0.095219 0.916644 0.082678
H87   H     H_    0.502643 0.094457 0.060973 0.096323
H88   H     H_    0.083768 0.534074 0.088119 0.116968
H89   H     H_    0.076902 0.547762 0.932832 0.111628
H90   H     H_    0.085915 0.467902 0.924295 0.120315
H91   H     H_    0.077221 0.453934 0.078362 0.116353
H92   H     H_    0.583767 0.034079 0.088119 0.116968
H93   H     H_    0.576900 0.047767 0.932832 0.111628
H94   H     H_    0.585917 0.967908 0.924295 0.120315
H95   H     H_    0.262846 0.356459 0.563402 0.102259
H96   H     H_    0.577223 0.953939 0.078362 0.116353
H97   H     H_    0.802631 0.117132 0.416216 0.091402
H98   H     H_    0.874656 0.059961 0.340948 0.098431
H99   H     H_    0.978263 0.084718 0.361472 0.103859
H100  H     H_    0.009559 0.172250 0.457334 0.128764
H101  H     H_    0.938533 0.233374 0.532994 0.108794
H102  H     H_    0.894525 0.277249 0.374323 0.116226
H103  H     H_    0.945461 0.253762 0.240141 0.096167
H104  H     H_    0.892007 0.225336 0.097889 0.095385
H105  H     H_    0.784815 0.219840 0.093382 0.101065
H106  H     H_    0.765261 0.131633 0.541615 0.104431
H107  H     H_    0.731172 0.241376 0.228767 0.094459
H108  H     H_    0.838353 0.863511 0.409575 0.102834
H109  H     H_    0.915406 0.899241 0.317060 0.098578
H110  H     H_    0.969170 0.828185 0.222423 0.099011
H111  H     H_    0.948045 0.718162 0.228879 0.120295
H112  H     H_    0.868555 0.679988 0.317179 0.139107
H113  H     H_    0.920943 0.740608 0.517609 0.121957
H114  H     H_    0.009544 0.794273 0.547071 0.130472
H115  H     H_    0.010936 0.895218 0.619264 0.117883
H116  H     H_    0.919977 0.938062 0.674212 0.108982
H117  H     H_    0.736287 0.180791 0.379072 0.108857
H118  H     H_    0.830332 0.880917 0.660720 0.098849
H119  H     H_    0.302622 0.617145 0.416178 0.091405
H120  H     H_    0.374643 0.559982 0.340885 0.098434
H121  H     H_    0.478251 0.584732 0.361408 0.103858
H122  H     H_    0.509554 0.672248 0.457297 0.128767
H123  H     H_    0.438533 0.733363 0.532981 0.108796
H124  H     H_    0.394518 0.777250 0.374309 0.116228
H125  H     H_    0.445446 0.753762 0.240119 0.096169
H126  H     H_    0.391983 0.725344 0.097870 0.095383
H127  H     H_    0.284791 0.719858 0.093374 0.101067
H128  H     H_    0.752257 0.840290 0.407579 0.097085
H129  H     H_    0.231156 0.741395 0.228768 0.094457
H130  H     H_    0.338347 0.363515 0.409575 0.102837
H131  H     H_    0.415394 0.399252 0.317056 0.098578
H132  H     H_    0.469160 0.328202 0.222413 0.099007
H133  H     H_    0.448041 0.218177 0.228866 0.120288
H134  H     H_    0.368556 0.179996 0.317171 0.139107
H135  H     H_    0.420946 0.240616 0.517600 0.121957
H136  H     H_    0.509544 0.294291 0.547037 0.130482
H137  H     H_    0.510934 0.395239 0.619222 0.117875
H138  H     H_    0.419976 0.438076 0.674187 0.108984
H139  H     H_    0.762845 0.856456 0.563406 0.102257
H140  H     H_    0.330335 0.380923 0.660714 0.098850
H141  H     H_    0.197934 0.859257 0.701622 0.078493
H142  H     H_    0.165070 0.853733 0.854598 0.101696
H143  H     H_    0.125900 0.757987 0.915288 0.100047
H144  H     H_    0.120294 0.666723 0.818728 0.100238
H145  H     H_    0.151902 0.669245 0.667077 0.122474
H146  H     H_    0.168287 0.899408 0.578205 0.079741
H147  H     H_    0.098921 0.960925 0.494575 0.093156
H148  H     H_    0.033538 0.916144 0.375717 0.099498
H149  H     H_    0.036597 0.805448 0.348040 0.114617
H150  H     H_    0.183436 0.735392 0.367026 0.107245
H151  H     H_    0.099389 0.741030 0.435387 0.110938
H152  H     H_    0.115742 0.274892 0.374105 0.102900
H153  H     H_    0.066457 0.222801 0.249349 0.095813
H154  H     H_    0.057939 0.110923 0.249359 0.099253
H155  H     H_    0.095467 0.051751 0.382115 0.101380
H156  H     H_    0.146158 0.102703 0.509658 0.093016
H157  H     H_    0.067267 0.254174 0.538752 0.099005
H158  H     H_    0.006970 0.257135 0.670115 0.130533
H159  H     H_    0.047325 0.229060 0.822371 0.111805
H160  H     H_    0.150100 0.198391 0.842115 0.110671
N1    N     N_1   0.000150 0.500000 0.724970 -0.207321
N2    N     N_1   0.372585 0.730307 0.702493 -0.335551
N3    N     N_1   0.320055 0.221890 0.747959 -0.329537
N4    N     N_1   0.238822 0.159622 0.302437 -0.343814
N5    N     N_1   0.000150 0.500000 0.275030 -0.206825
N6    N     N_1   0.500150 0.000000 0.724970 -0.207320
N7    N     N_1   0.500150 0.000000 0.275030 -0.206827
N8    N     N_1   0.718171 0.376902 0.355781 -0.337601
N9    N     N_1   0.872582 0.230324 0.702507 -0.335542
N10   N     N_1   0.820044 0.721884 0.747961 -0.329535
N11   N     N_1   0.738820 0.659625 0.302431 -0.343815
N12   N     N_1   0.218172 0.876917 0.355800 -0.337593
O1    O     O_R   0.060270 0.439640 0.575970 -0.484485
O2    O     O_R   0.939710 0.439640 0.424030 -0.503308
O3    O     O_R   0.939710 0.560360 0.424030 -0.485493
O4    O     O_R   0.939710 0.560360 0.575970 -0.504092
O5    O     O_R   0.439710 0.939640 0.575970 -0.482525
O6    O     O_R   0.439710 0.939640 0.424030 -0.503309
O7    O     O_R   0.439710 0.060360 0.424030 -0.485491
O8    O     O_R   0.439710 0.060360 0.575970 -0.504089
O9    O     O_R   0.060270 0.439640 0.424030 -0.496598
O10   O     O_R   0.060270 0.560360 0.424030 -0.487637
O11   O     O_R   0.060270 0.560360 0.575970 -0.493883
O12   O     O_R   0.560270 0.939640 0.575970 -0.484486
O13   O     O_R   0.560270 0.939640 0.424030 -0.496600
O14   O     O_R   0.560270 0.060360 0.424030 -0.487639
O15   O     O_R   0.560270 0.060360 0.575970 -0.493883
O16   O     O_R   0.939710 0.439640 0.575970 -0.482526

loop_
_geom_bond_atom_site_label_1
_geom_bond_atom_site_label_2
_ccdc_geom_bond_type
C62   H159  S    
C105  C110  A    
C178  H117  S    
C3    C224  A    
C101  C113  S    
C82   H17   S    
C19   C20   A    
C148  C151  S    
C55   C56   A    
C55   H154  S    
C37   C172  S    
C114  C115  A    
C38   C171  S    
C101  C148  S    
C165  C187  S    
C111  C118  A    
C53   H152  S    
C226  H114  S    
C5    C6    A    
C120  H48   S    
C106  C107  A    
C143  C144  A    
C26   H136  S    
C108  C109  A    
C213  H103  S    
C73   C74   A    
C116  H44   S    
C79   C90   S    
C100  H32   S    
C205  H97   S    
C21   H133  S    
C209  H100  S    
C153  H91   S    
C174  C191  S    
C51   H151  S    
C63   H160  S    
C99   H31   S    
C12   H125  S    
C21   C22   A    
C180  C194  S    
C177  H84   S    
Cu2   O2    S    
C151  H90   S    
C145  C146  S    
C68   C164  S    
C178  C193  S    
C181  H128  S    
C140  C141  A    
C164  O8    A    
C64   H3    S    
C130  H56   S    
C4    C169  S    
C4    C5    A    
C172  C190  S    
C168  C180  S    
C36   N2    T    
C60   H157  S    
C173  C191  S    
Cu1   O16   S    
C75   C76   A    
Cu1   Cu2   S    
C90   H81   S    
Cu1   O4    S    
C90   C92   S    
C227  C228  A    
C125  H52   S    
C48   H147  S    
C80   H15   S    
C181  C194  S    
C154  C155  S    
C52   C58   A    
C160  O16   A    
C32   C168  S    
C43   C44   A    
C10   C170  S    
C203  H77   S    
C30   N8    T    
Cu1   O11   S    
C185  C192  S    
C179  C193  S    
C28   C29   A    
C124  C135  S    
C214  C215  A    
C108  H39   S    
C227  H115  S    
C72   C73   A    
C22   H134  S    
C112  C182  S    
C139  C140  A    
C135  H86   S    
C6    C7    A    
C173  H150  S    
C187  C200  S    
C71   H8    S    
C162  O6    A    
C130  C131  A    
C149  C155  S    
C132  C146  S    
C9    H123  S    
C10   C16   A    
Cu2   O10   S    
C151  C153  S    
Cu4   O14   S    
C69   C70   A    
C147  C153  S    
C74   H10   S    
C20   C21   A    
C98   C99   A    
C214  H104  S    
C198  C200  S    
C67   C69   A    
C3    C228  A    
Cu3   O5    S    
C11   H124  S    
C144  H69   S    
C217  C223  A    
C124  C149  S    
C127  H53   S    
C169  C189  S    
C128  C129  A    
C174  C182  T    
C1    C183  S    
C7    C8    A    
C85   C86   A    
C194  C207  S    
C113  H79   S    
C28   H138  S    
C201  H74   S    
C133  H59   S    
Cu2   O9    S    
C105  C113  S    
C165  C204  S    
C18   C19   A    
C78   C80   A    
C163  O14   A    
C13   C57   T    
C115  C116  A    
C200  H71   S    
C154  H93   S    
C31   C165  S    
C175  H1    S    
C107  C108  A    
C23   C172  S    
C79   H82   S    
C89   C91   A    
C145  C150  S    
C1    O9    A    
C66   C67   A    
C107  H38   S    
C121  H49   S    
C220  C221  A    
C92   C97   A    
C209  C210  A    
C3    H118  S    
C95   H28   S    
Cu3   N6    S    
C129  H55   S    
C152  C186  S    
C39   C40   A    
C25   C26   A    
C102  H33   S    
C171  C190  S    
C161  O4    A    
C152  O12   A    
C221  C222  A    
C112  O11   A    
Cu3   O15   S    
C83   C84   A    
C193  C196  S    
C17   C18   A    
C220  H109  S    
C212  C213  A    
Cu1   O1    S    
C165  C179  S    
C42   H143  S    
C44   H145  S    
C120  C121  A    
C124  C126  S    
C129  C130  A    
C54   C55   A    
C33   N11   T    
C221  H110  S    
C34   N12   T    
C202  H75   S    
C138  H63   S    
C153  H88   S    
C24   C190  S    
C53   C54   A    
C39   C44   A    
C189  C202  S    
C135  C150  S    
C99   C100  A    
C173  H73   S    
C43   H144  S    
C117  C118  A    
C159  N7    T    
C203  H78   S    
C167  C188  S    
C56   C58   A    
C132  C133  A    
C102  C103  A    
C191  C195  S    
C10   C11   A    
C65   C198  S    
C212  H102  S    
C59   C60   A    
C204  C205  A    
C106  H37   S    
C49   C50   A    
C14   C15   A    
C171  C177  S    
C47   H146  S    
C4    C9    A    
C167  C217  S    
C172  C176  S    
C187  C218  S    
C87   C88   A    
C168  C188  S    
Cu2   N5    S    
C41   C42   A    
Cu2   O3    S    
C224  C225  A    
C151  H89   S    
C143  H67   S    
C213  C214  A    
C52   C53   A    
C170  C189  S    
C26   C27   A    
C93   C94   A    
C137  H62   S    
C29   H140  S    
C134  H60   S    
C6    H120  S    
C118  H47   S    
C206  C208  A    
C123  C125  A    
C132  C138  A    
C193  C198  S    
C146  H83   S    
C77   H14   S    
C54   H153  S    
Cu1   N1    S    
C35   C160  S    
C163  O15   A    
C155  H96   S    
C206  H98   S    
C179  H46   S    
C208  C209  A    
C46   C161  S    
C70   C71   A    
C166  C178  S    
C200  H70   S    
C69   H6    S    
C181  H68   S    
C157  N5    T    
C201  H72   S    
C45   C47   A    
Cu4   N7    S    
C150  C154  S    
C177  C192  S    
C215  H105  S    
C81   H16   S    
C33   C167  S    
C86   H20   S    
C166  C187  S    
C37   N3    T    
C162  O5    A    
C219  C220  A    
C50   H149  S    
C38   N4    T    
C86   C87   A    
C136  C137  A    
C88   H22   S    
C184  C196  T    
C67   H5    S    
C119  C135  S    
C156  N1    T    
C60   C61   A    
C62   C63   A    
C91   H25   S    
C166  C211  S    
C146  C149  S    
C211  C212  A    
C50   C51   A    
C59   C64   A    
C192  C197  S    
C122  H50   S    
C121  C122  A    
C112  O10   A    
C97   H30   S    
C186  C207  T    
C48   C49   A    
Cu4   O7    S    
C133  C134  A    
C225  H113  S    
C14   H126  S    
C42   C43   A    
C127  C128  A    
C23   C29   A    
Cu3   O8    S    
C114  H42   S    
C177  H24   S    
C8    H122  S    
C150  C158  S    
C163  C184  S    
C124  H87   S    
C164  O7    A    
C79   C147  S    
C119  C120  A    
C176  H13   S    
C41   H142  S    
C101  C111  S    
C105  C106  A    
C17   C22   A    
C180  H57   S    
C145  H85   S    
C113  C147  S    
C40   H141  S    
C109  C110  A    
C101  H80   S    
C39   C195  S    
C126  C127  A    
C92   C93   A    
C5    H119  S    
C111  C114  A    
C94   C95   A    
C154  H94   S    
C2    C188  S    
C136  H61   S    
C24   C68   T    
C72   C198  S    
C93   H26   S    
C208  H99   S    
C87   H21   S    
C73   H9    S    
C228  H116  S    
C82   C83   A    
C103  C104  A    
C199  C201  S    
C142  C143  A    
C52   C197  S    
C148  C156  S    
C49   H148  S    
C170  C173  S    
C45   C195  S    
C18   H130  S    
C96   H29   S    
C79   C98   S    
C95   C96   A    
C215  C216  A    
C81   C82   A    
C85   C91   A    
C195  C202  S    
C205  C206  A    
C2    C46   T    
C36   C169  S    
C16   H129  S    
C27   H137  S    
C76   H12   S    
C109  H40   S    
C183  C185  T    
C175  C191  S    
C190  C203  S    
C176  C192  S    
C45   C51   A    
C15   C16   A    
C110  H41   S    
C188  C201  S    
C13   C189  S    
C116  C117  A    
C161  O3    A    
C103  H34   S    
Cu4   O13   S    
C90   C148  S    
C7    H121  S    
C85   C199  S    
C57   C162  S    
C219  H108  S    
C216  H107  S    
C117  H45   S    
C197  C203  S    
C34   C170  S    
C88   C89   A    
C61   C62   A    
C168  C224  S    
C169  C175  S    
C56   H155  S    
C74   C75   A    
C25   H135  S    
C31   N9    T    
C47   C48   A    
C202  H76   S    
C76   C77   A    
C30   C166  S    
C178  H35   S    
C8    C9    A    
C134  C136  A    
C155  H92   S    
C15   H127  S    
C65   C71   A    
C210  H101  S    
C63   C64   A    
C66   H4    S    
C20   H132  S    
C19   H131  S    
C72   C77   A    
C115  H43   S    
C139  C144  A    
C94   H27   S    
C158  N6    T    
C142  H66   S    
C175  H2    S    
C96   C97   A    
C100  C102  A    
C225  C226  A    
C222  H111  S    
C149  C159  S    
C40   C41   A    
C12   C14   A    
C226  C227  A    
C89   H23   S    
C70   H7    S    
C147  C157  S    
C35   C218  T    
C119  C125  A    
Cu3   Cu4   S    
C160  O2    A    
C139  C145  S    
C131  H58   S    
Cu4   O6    S    
C104  H36   S    
C58   H156  S    
C80   C81   A    
C140  H64   S    
C11   C12   A    
C17   C171  S    
C1    O1    A    
C217  C219  A    
C137  C138  A    
C152  O13   A    
C128  H54   S    
C83   H18   S    
C123  H51   S    
C141  C142  A    
C223  H112  S    
C179  H106  S    
C167  C181  S    
C126  C131  A    
C59   C197  S    
C98   C104  A    
C141  H65   S    
C61   H158  S    
C211  C216  A    
C23   C25   A    
C222  C223  A    
Cu3   O12   S    
C75   H11   S    
C176  H95   S    
C194  C199  S    
C78   C84   A    
C32   N10   T    
C65   C66   A    
C78   C199  S    
C180  H139  S    
C204  C210  A    
C27   C28   A    
C122  C123  A    
C84   H19   S    
