data_mof_unit_50183.cif
_audit_creation_date              2012-10-26T19:20:38-0400
_audit_creation_method            fapswitch 2.2
_symmetry_space_group_name_H-M    P1
_symmetry_Int_Tables_number       1
_space_group_crystal_system       triclinic
_cell_length_a                    10.843965
_cell_length_b                    11.043723
_cell_length_c                    9.857544
_cell_angle_alpha                 111.250709
_cell_angle_beta                  100.502448
_cell_angle_gamma                 90.352894
_cell_volume                      1078.44851118

loop_
_atom_site_label
_atom_site_type_symbol
_atom_type_description
_atom_site_fract_x
_atom_site_fract_y
_atom_site_fract_z
_atom_type_partial_charge
C1    C     C_R   0.490836 0.253904 0.440412 0.560818
C2    C     C_R   0.737581 0.486750 0.499109 0.541933
C3    C     C_R   0.162400 0.652607 0.768855 -0.080380
C4    C     C_R   0.837600 0.347393 0.231145 -0.080380
C5    C     C_R   0.128599 0.675403 0.905057 -0.115511
C6    C     C_R   0.871401 0.324597 0.094943 -0.115511
C7    C     C_R   0.017638 0.615409 0.909891 -0.115997
C8    C     C_R   0.982362 0.384591 0.090109 -0.115997
C9    C     C_R   0.935790 0.541300 0.778230 -0.076195
C10   C     C_R   0.064210 0.458700 0.221770 -0.076195
C11   C     C_R   0.962681 0.527640 0.637885 0.013608
C12   C     C_R   0.509164 0.746096 0.559588 0.560818
C13   C     C_R   0.037319 0.472360 0.362115 0.013608
C14   C     C_R   0.084714 0.569297 0.634552 0.009221
C15   C     C_R   0.915285 0.430703 0.365448 0.009221
C16   C     C_R   0.873606 0.472581 0.501774 -0.040912
C17   C     C_R   0.126394 0.527419 0.498226 -0.040912
C18   C     C_1   0.650488 0.647706 0.956543 0.335101
C19   C     C_1   0.349511 0.352294 0.043458 0.335101
C20   C     C_2   0.485897 0.114497 0.406658 -0.121832
C21   C     C_2   0.514103 0.885503 0.593341 -0.121832
C22   C     C_2   0.502335 0.069586 0.516622 -0.155158
C23   C     C_2   0.497665 0.930414 0.483378 -0.155158
C24   C     C_2   0.509925 0.509551 0.081931 -0.031340
C25   C     C_2   0.490076 0.490449 0.918069 -0.031340
C26   C     C_R   0.262419 0.513250 0.500891 0.541934
Cu1   Cu    Cu3+1 0.521920 0.521810 0.644910 0.951807
Cu2   Cu    Cu3+1 0.478080 0.478190 0.355090 0.951808
H1    H     H_    0.005722 0.372847 0.984101 0.130650
H2    H     H_    0.519397 0.135713 0.632217 0.156962
H3    H     H_    0.531200 0.951862 0.708756 0.108705
H4    H     H_    0.468800 0.048138 0.291244 0.108705
H5    H     H_    0.416886 0.418486 0.840767 0.157687
H6    H     H_    0.583114 0.581514 0.159233 0.157687
H7    H     H_    0.994278 0.627153 0.015899 0.130649
H8    H     H_    0.249062 0.702094 0.769529 0.138788
H9    H     H_    0.750938 0.297906 0.230471 0.138788
H10   H     H_    0.190264 0.736739 0.007016 0.115536
H11   H     H_    0.809736 0.263261 0.992984 0.115536
H12   H     H_    0.855338 0.490466 0.789451 0.145673
H13   H     H_    0.144661 0.509534 0.210550 0.145673
H14   H     H_    0.480602 0.864287 0.367783 0.156962
N1    N     N_2   0.445130 0.445420 0.137360 -0.272660
N2    N     N_2   0.554870 0.554580 0.862640 -0.272660
N3    N     N_1   0.730048 0.725216 0.034419 -0.345432
N4    N     N_1   0.269951 0.274785 0.965581 -0.345433
O1    O     O_R   0.511700 0.332340 0.577400 -0.507614
O2    O     O_R   0.488300 0.667660 0.422600 -0.507614
O3    O     O_R   0.474680 0.295500 0.332650 -0.491339
O4    O     O_R   0.525320 0.704500 0.667350 -0.491339
O5    O     O_R   0.338170 0.518410 0.622370 -0.507494
O6    O     O_R   0.661830 0.481590 0.377630 -0.507494
O7    O     O_R   0.301150 0.481570 0.377630 -0.504623
O8    O     O_R   0.698850 0.518430 0.622370 -0.504623

loop_
_geom_bond_atom_site_label_1
_geom_bond_atom_site_label_2
_ccdc_geom_bond_type
C12   O4    A    
Cu2   O7    S    
C18   N3    T    
C18   N2    S    
Cu2   O6    S    
Cu2   O3    S    
Cu2   N1    S    
C1    O1    A    
Cu1   O4    S    
C13   C17   A    
C12   O2    A    
C21   H3    S    
C4    C15   A    
C13   C15   A    
C20   C22   D    
Cu1   O8    S    
C5    H10   S    
C24   C25   S    
C10   H13   S    
C9    C11   A    
C14   C17   A    
C23   H14   S    
C2    O6    A    
C3    H8    S    
C3    C14   A    
C17   C26   S    
C12   C21   S    
C25   N2    D    
C4    C6    A    
C19   N1    S    
C22   C23   S    
C21   C23   D    
C2    O8    A    
C11   C14   A    
C19   N4    T    
C11   C16   A    
C8    H1    S    
Cu1   O1    S    
C15   C16   A    
C26   O7    A    
C7    C9    A    
C2    C16   S    
C4    H9    S    
C8    C10   A    
C20   H4    S    
C25   H5    S    
Cu1   Cu2   S    
C5    C7    A    
C24   N1    D    
C6    H11   S    
Cu2   O2    S    
C1    C20   S    
C6    C8    A    
C22   H2    S    
C26   O5    A    
C7    H7    S    
Cu1   N2    S    
C9    H12   S    
C24   H6    S    
Cu1   O5    S    
C3    C5    A    
C10   C13   A    
C1    O3    A    
