data_mof_unit_19089.cif
_audit_creation_date              2012-12-11T16:22:27-0500
_audit_creation_method            fapswitch 2.2
_symmetry_space_group_name_H-M    P1
_symmetry_Int_Tables_number       1
_space_group_crystal_system       triclinic
_cell_length_a                    19.627928
_cell_length_b                    6.928325
_cell_length_c                    17.794627
_cell_angle_alpha                 90.031842
_cell_angle_beta                  108.224508
_cell_angle_gamma                 90.00143
_cell_volume                      2298.48263793

loop_
_atom_site_label
_atom_site_type_symbol
_atom_type_description
_atom_site_fract_x
_atom_site_fract_y
_atom_site_fract_z
_atom_type_partial_charge
O1    O     O_R   0.561700 0.369960 0.440190 -0.541495
O2    O     O_R   0.061700 0.630040 0.940190 -0.541736
O3    O     O_R   0.413790 0.033680 0.407460 -0.509066
O4    O     O_R   0.913790 0.966320 0.907460 -0.513247
O5    O     O_R   0.438300 0.869760 0.559810 -0.544848
O6    O     O_R   0.938300 0.130240 0.059810 -0.545280
C1    C     C_R   0.386554 0.203205 0.384710 0.788579
C2    C     C_R   0.886505 0.796752 0.884814 0.796185
O7    O     O_R   0.559630 0.039830 0.430710 -0.542409
O8    O     O_R   0.059630 0.960170 0.930710 -0.541660
O9    O     O_R   0.585190 0.875950 0.583220 -0.538586
O10   O     O_R   0.085190 0.124050 0.083220 -0.538398
C3    C     C_R   0.581281 0.208748 0.415763 0.695222
C4    C     C_R   0.080959 0.791152 0.915396 0.694627
O11   O     O_R   0.414810 0.363770 0.416780 -0.550188
O12   O     O_R   0.914810 0.636230 0.916780 -0.550058
O13   O     O_3   0.508210 0.205480 0.550010 -0.376719
O14   O     O_3   0.008210 0.794520 0.050010 -0.377383
V1    V     V_3+5 0.498480 0.928140 0.490720 1.441285
V2    V     V_3+5 0.998480 0.071860 0.990720 1.430664
O15   O     O_R   0.586210 0.546600 0.592540 -0.545399
O16   O     O_R   0.086210 0.453400 0.092540 -0.545826
C5    C     C_R   0.613973 0.715691 0.614791 0.762522
C6    C     C_R   0.114115 0.284410 0.114695 0.772615
O17   O     O_R   0.440370 0.540460 0.569290 -0.543659
O18   O     O_R   0.940370 0.459540 0.069290 -0.542925
C7    C     C_R   0.420528 0.708915 0.586491 0.688134
C8    C     C_R   0.917140 0.291788 0.082515 0.689689
V3    V     V_3+5 0.501520 0.428910 0.509280 1.397170
V4    V     V_3+5 0.001520 0.571090 0.009280 1.391154
O19   O     O_3   0.491790 0.701440 0.449990 -0.362658
O20   O     O_3   0.991790 0.298560 0.949990 -0.365382
C9    C     C_R   0.278760 0.890974 0.673153 -0.152054
C10   C     C_R   0.822048 0.104316 0.223637 -0.152964
H1    H     H_    0.242265 0.012396 0.662571 0.113833
H2    H     H_    0.825993 0.977523 0.260290 0.113347
C11   C     C_R   0.326280 0.876389 0.629014 -0.207513
C12   C     C_R   0.867489 0.119588 0.177018 -0.209313
H3    H     H_    0.324938 0.988027 0.585968 0.123810
H4    H     H_    0.904858 0.003166 0.179036 0.128059
C13   C     C_R   0.373472 0.718635 0.638253 -0.065778
C14   C     C_R   0.866179 0.283396 0.129732 -0.064427
C15   C     C_R   0.373491 0.575419 0.696023 0.135169
C16   C     C_R   0.815749 0.432869 0.128647 0.139469
C17   C     C_R   0.324974 0.592981 0.739703 -0.171491
C18   C     C_R   0.770673 0.414567 0.176260 -0.171508
H5    H     H_    0.325707 0.485965 0.784305 0.104762
H6    H     H_    0.731479 0.526198 0.174163 0.103827
C19   C     C_R   0.276924 0.748492 0.728476 0.062307
C20   C     C_R   0.773463 0.252360 0.224390 0.063458
C21   C     C_R   0.192957 0.593198 0.792751 -0.142393
C22   C     C_R   0.708690 0.404872 0.311341 -0.142264
H7    H     H_    0.203371 0.453549 0.771293 0.100414
H8    H     H_    0.732513 0.542942 0.305800 0.101167
C23   C     C_R   0.146103 0.603195 0.837920 -0.156290
C24   C     C_R   0.661923 0.394922 0.356559 -0.154933
H9    H     H_    0.122531 0.470743 0.850605 0.124457
H10   H     H_    0.650733 0.525920 0.383793 0.122185
C25   C     C_R   0.129708 0.781473 0.865984 -0.051116
C26   C     C_R   0.630627 0.218480 0.367039 -0.051598
C27   C     C_R   0.161180 0.949746 0.847178 -0.152998
C28   C     C_R   0.647720 0.051889 0.331241 -0.153788
H11   H     H_    0.150139 0.089503 0.868058 0.118903
H12   H     H_    0.624680 0.913435 0.337943 0.124163
C29   C     C_R   0.208476 0.939571 0.802380 -0.139072
C30   C     C_R   0.694248 0.062109 0.285504 -0.140093
H13   H     H_    0.232982 0.071466 0.790717 0.097956
H14   H     H_    0.704923 0.931827 0.257472 0.098858
C31   C     C_R   0.225309 0.760960 0.774831 0.101109
C32   C     C_R   0.725183 0.239016 0.274653 0.101411
C33   C     C_2   0.720814 0.890256 0.699160 -0.204985
C34   C     C_2   0.221069 0.109303 0.198809 -0.216708
C35   C     C_2   0.681725 0.725933 0.681654 -0.375516
C36   C     C_2   0.182409 0.274419 0.181040 -0.376257
H15   H     H_    0.702205 0.015010 0.661424 0.154493
H16   H     H_    0.201192 0.984804 0.161466 0.149492
H17   H     H_    0.699926 0.594376 0.714408 0.127156
H18   H     H_    0.201541 0.406881 0.212888 0.123904
C37   C     C_2   0.790734 0.914906 0.764164 0.491621
C38   C     C_2   0.291859 0.085220 0.263235 0.496138
C39   C     C_2   0.817112 0.780121 0.820610 -0.403520
C40   C     C_2   0.317183 0.219277 0.320358 -0.392087
H19   H     H_    0.786795 0.650231 0.821321 0.080132
H20   H     H_    0.286061 0.347322 0.321884 0.077646
O21   O     O_3   0.832396 0.074687 0.761679 -0.542176
C41   C     C_3   0.802750 0.237932 0.786983 -0.197459
H21   H     H_    0.797636 0.216524 0.847024 0.118032
H22   H     H_    0.750000 0.276785 0.744103 0.104466
H23   H     H_    0.839599 0.361214 0.790531 0.169383
O22   O     O_3   0.336054 0.930067 0.260726 -0.540423
C42   C     C_3   0.300032 0.753611 0.259915 -0.220669
H24   H     H_    0.267892 0.714299 0.198592 0.125540
H25   H     H_    0.266014 0.754507 0.299713 0.107615
H26   H     H_    0.340949 0.639112 0.281529 0.172145
C43   C     C_3   0.424948 0.405382 0.715298 -0.352046
C44   C     C_3   0.502012 0.469859 0.757023 -0.718292
H27   H     H_    0.521634 0.569201 0.719532 0.213329
H28   H     H_    0.505242 0.544188 0.813363 0.218594
H29   H     H_    0.537725 0.341656 0.770661 0.207855
H30   H     H_    0.410005 0.302409 0.755444 0.169492
H31   H     H_    0.421404 0.319698 0.661625 0.197056
C45   C     C_3   0.805233 0.609604 0.075750 -0.352117
C46   C     C_3   0.769722 0.557279 0.988892 -0.749780
H32   H     H_    0.804573 0.461410 0.966903 0.214079
H33   H     H_    0.717716 0.483555 0.981193 0.223224
H34   H     H_    0.759281 0.691063 0.952807 0.205864
H35   H     H_    0.769917 0.716541 0.091943 0.171205
H36   H     H_    0.856366 0.687481 0.084193 0.193577

loop_
_geom_bond_atom_site_label_1
_geom_bond_atom_site_label_2
_ccdc_geom_bond_type
C30   H14   S    
C23   C25   A    
O13   V3    S    
C43   C44   S    
O4    C2    A    
V1    O19   S    
C33   C37   S    
C3    C26   S    
O21   C41   S    
C4    C25   S    
O9    V1    S    
C12   H4    S    
C12   C14   A    
O3    C1    A    
C41   H22   S    
C9    C19   A    
C44   H29   S    
C34   C38   S    
C26   C28   A    
O9    C5    A    
C27   H11   S    
O7    C3    A    
C28   H12   S    
O13   V1    S    
O5    C7    A    
O7    V1    S    
O6    C8    A    
O8    V2    S    
C29   H13   S    
C44   H28   S    
C15   C43   S    
O3    V1    S    
O14   V4    S    
V4    O20   S    
C21   C23   A    
C34   H16   S    
C22   H8    S    
C1    O11   A    
C2    O12   A    
C19   C31   S    
C11   C13   A    
C13   C15   A    
C14   C16   A    
C5    C35   S    
C39   H19   S    
C16   C18   A    
O11   V3    S    
C17   H5    S    
O17   V3    S    
C18   H6    S    
C10   C20   A    
C25   C27   A    
C28   C30   A    
C2    C39   S    
C34   C36   D    
O8    C4    A    
C42   H24   S    
C37   C39   D    
C16   C45   S    
C41   H21   S    
O15   V3    S    
C9    C11   A    
C24   C26   A    
C21   H7    S    
C10   C12   A    
C42   H25   S    
C7    C13   S    
C17   C19   A    
C44   H27   S    
O10   V2    S    
O1    V3    S    
C45   H35   S    
C46   H33   S    
C45   H36   S    
C15   C17   A    
C38   C40   D    
O18   V4    S    
C40   H20   S    
O15   C5    A    
O16   C6    A    
O1    C3    A    
C37   O21   S    
C33   C35   D    
V2    O20   S    
C18   C20   A    
O16   V4    S    
C43   H30   S    
C41   H23   S    
O5    V1    S    
O17   C7    A    
O6    V2    S    
O10   C6    A    
O18   C8    A    
O2    V4    S    
C23   H9    S    
C20   C32   S    
C11   H3    S    
C42   H26   S    
C33   H15   S    
C6    C36   S    
O22   C42   S    
C30   C32   A    
C22   C24   A    
C29   C31   A    
C8    C14   S    
C9    H1    S    
C10   H2    S    
C24   H10   S    
C46   H34   S    
O14   V2    S    
C38   O22   S    
C45   C46   S    
O2    C4    A    
C22   C32   A    
O4    V2    S    
C27   C29   A    
C1    C40   S    
V3    O19   S    
C36   H18   S    
C46   H32   S    
C35   H17   S    
C21   C31   A    
O12   V4    S    
C43   H31   S    
