data_mof_unit_65717.cif
_audit_creation_date              2012-12-11T15:47:22-0500
_audit_creation_method            fapswitch 2.2
_symmetry_space_group_name_H-M    P1
_symmetry_Int_Tables_number       1
_space_group_crystal_system       triclinic
_cell_length_a                    19.036348
_cell_length_b                    18.985102
_cell_length_c                    19.043678
_cell_angle_alpha                 109.19703
_cell_angle_beta                  106.815158
_cell_angle_gamma                 109.617062
_cell_volume                      5469.78838144

loop_
_atom_site_label
_atom_site_type_symbol
_atom_type_description
_atom_site_fract_x
_atom_site_fract_y
_atom_site_fract_z
_atom_type_partial_charge
C1    C     C_R   0.008345 0.066761 0.735981 -0.203919
C2    C     C_R   0.983607 0.932206 0.262159 -0.193912
C3    C     C_R   0.248464 0.997741 0.480459 0.081365
C4    C     C_R   0.749088 0.001205 0.509741 0.077141
C5    C     C_R   0.989973 0.737852 0.488562 0.070160
C6    C     C_R   0.011008 0.262898 0.512384 0.068952
C7    C     C_R   0.244285 0.222471 0.745066 0.078546
C8    C     C_R   0.768928 0.725815 0.268233 0.084002
C9    C     C_3   0.587797 0.408414 0.035778 -0.352264
C10   C     C_3   0.460887 0.447123 0.013119 -0.358131
C11   C     C_3   0.503559 0.357281 0.035056 -0.349616
C12   C     C_3   0.543522 0.496821 0.012743 -0.355620
C13   C     C_1   0.318234 0.263835 0.819619 -0.038766
C14   C     C_1   0.711486 0.640223 0.210378 -0.045040
C15   C     C_3   0.538800 0.413433 0.958934 0.750380
C16   C     C_3   0.509091 0.441822 0.089548 0.748074
C17   C     C_3   0.456591 0.363689 0.958274 0.011756
C18   C     C_3   0.591172 0.491557 0.090027 0.016061
C19   C     C_1   0.381062 0.303886 0.882766 0.050334
C20   C     C_1   0.659819 0.570032 0.158545 0.050086
C21   C     C_1   0.324144 0.996713 0.480851 -0.031701
C22   C     C_1   0.672099 0.001765 0.504842 -0.032351
C23   C     C_R   0.170194 0.928186 0.444403 -0.123613
C24   C     C_R   0.828222 0.071240 0.550774 -0.123773
C25   C     C_1   0.388592 0.997085 0.483521 0.013327
C26   C     C_1   0.607012 0.001162 0.499830 0.012145
C27   C     C_1   0.464947 0.998383 0.488485 0.003410
C28   C     C_1   0.530312 0.999739 0.493553 0.002869
C29   C     C_1   0.008493 0.336930 0.510149 -0.027408
C30   C     C_1   0.993020 0.664193 0.491318 -0.027927
C31   C     C_1   0.005904 0.398500 0.507182 0.013411
C32   C     C_1   0.995888 0.602821 0.494558 0.013577
C33   C     C_1   0.002500 0.470184 0.502901 0.003413
C34   C     C_1   0.999451 0.531249 0.498994 0.003526
C35   C     C_1   0.975240 0.995590 0.821876 0.040104
C36   C     C_1   0.012104 0.002648 0.174399 0.041763
C37   C     C_1   0.979905 0.996416 0.887136 0.017390
C38   C     C_1   0.005572 0.001542 0.108635 0.018310
C39   C     C_1   0.988207 0.998087 0.964638 0.004553
C40   C     C_1   0.996255 0.999724 0.030885 0.004733
C41   C     C_R   0.947369 0.776251 0.518733 -0.104370
C42   C     C_R   0.053404 0.224321 0.482048 -0.103013
C43   C     C_R   0.238906 0.199310 0.666614 -0.099911
C44   C     C_R   0.769530 0.770689 0.341737 -0.111310
C45   C     C_R   0.021283 0.778453 0.447827 -0.127679
C46   C     C_R   0.979317 0.222006 0.552732 -0.126892
C47   C     C_R   0.165014 0.198362 0.738193 -0.130149
C48   C     C_R   0.843352 0.771874 0.270335 -0.134118
C49   C     C_R   0.239189 0.069270 0.511566 -0.098592
C50   C     C_R   0.758922 0.929709 0.479990 -0.085447
C51   C     C_R   0.936077 0.926456 0.666830 0.312502
C52   C     C_R   0.059697 0.072798 0.331326 0.313409
C53   C     C_R   0.974434 0.995798 0.745425 0.013260
C54   C     C_R   0.016676 0.003022 0.252024 0.009214
H1    H     H_    0.030891 0.131201 0.781323 0.119647
H2    H     H_    0.953237 0.866682 0.215175 0.122833
H3    H     H_    0.641145 0.394767 0.046241 0.158245
H4    H     H_    0.408080 0.461659 0.003354 0.158161
H5    H     H_    0.153090 0.862932 0.406580 0.099677
H6    H     H_    0.844068 0.136301 0.587540 0.101027
H7    H     H_    0.908097 0.753497 0.545368 0.169220
H8    H     H_    0.093488 0.247606 0.456339 0.169583
H9    H     H_    0.290184 0.211823 0.650857 0.112594
H10   H     H_    0.726974 0.747151 0.365731 0.123154
H11   H     H_    0.050540 0.759466 0.409620 0.100069
H12   H     H_    0.950459 0.241262 0.591287 0.100774
H13   H     H_    0.148384 0.210448 0.788720 0.101106
H14   H     H_    0.868400 0.749282 0.228783 0.097040
H15   H     H_    0.284966 0.133606 0.533373 0.118910
H16   H     H_    0.711499 0.864296 0.450699 0.115086
H17   H     H_    0.485042 0.299265 0.042641 0.159747
H18   H     H_    0.561113 0.554308 0.004166 0.159449
N1    N     N_R   0.996890 0.041250 0.656740 -0.054276
N2    N     N_R   0.003110 0.958750 0.343260 -0.055927
N3    N     N_R   0.116500 0.956710 0.456640 -0.044708
N4    N     N_R   0.883500 0.043290 0.543360 -0.045208
N5    N     N_R   0.955840 0.840160 0.499880 -0.044291
N6    N     N_R   0.044160 0.159840 0.500120 -0.045243
N7    N     N_R   0.157540 0.157800 0.613510 -0.043936
N8    N     N_R   0.842460 0.842200 0.386490 -0.045047
N9    N     N_R   0.000720 0.840930 0.456640 -0.044786
N10   N     N_R   0.999280 0.159070 0.543360 -0.045521
N11   N     N_R   0.112670 0.157030 0.656740 -0.042343
N12   N     N_R   0.887330 0.842970 0.343260 -0.041277
N13   N     N_R   0.159720 0.044030 0.499880 -0.043871
N14   N     N_R   0.840280 0.955970 0.500120 -0.043679
N15   N     N_R   0.953670 0.953920 0.613510 -0.071736
N16   N     N_R   0.046330 0.046080 0.386490 -0.071892
Ni1   Ni    Ni4+2 0.998100 0.099260 0.599150 0.213064
Ni2   Ni    Ni4+2 0.001900 0.900740 0.400850 0.210006
Ni3   Ni    Ni4+2 0.898980 0.898980 0.500000 0.251552
Ni4   Ni    Ni4+2 0.101020 0.101020 0.500000 0.253598
O1    O     O_3   0.499668 0.462426 0.163299 -0.614979
C55   C     C_3   0.418327 0.406604 0.144871 -0.212836
H19   H     H_    0.406631 0.339802 0.120020 0.131944
H20   H     H_    0.370485 0.412533 0.100730 0.126100
H21   H     H_    0.411705 0.423649 0.203296 0.184653
O2    O     O_3   0.548312 0.393284 0.885216 -0.616046
C56   C     C_3   0.629838 0.448901 0.903900 -0.228998
H22   H     H_    0.677321 0.441936 0.947263 0.129772
H23   H     H_    0.642183 0.515919 0.929804 0.132074
H24   H     H_    0.636323 0.432530 0.845407 0.181230
Br1   Br    Br    0.842550 0.822228 0.634278 -0.591632
Br2   Br    Br    0.151589 0.176326 0.359818 -0.594332

loop_
_geom_bond_atom_site_label_1
_geom_bond_atom_site_label_2
_ccdc_geom_bond_type
N7    N11   A    
O1    C55   S    
N15   Ni3   S    
C35   C53   S    
C3    C23   A    
C41   H7    S    
N8    N12   A    
C3    C49   A    
C43   H9    S    
C44   H10   S    
C23   H5    S    
C16   O1    S    
N10   Ni1   S    
C35   C37   T    
C46   H12   S    
N14   Ni3   S    
C41   N5    A    
C4    C24   A    
C11   H17   S    
C10   C17   S    
C51   Br1   S    
O2    C56   S    
C1    C53   A    
N1    N15   A    
C5    C41   A    
N3    Ni2   S    
C46   N10   A    
C6    C42   A    
N3    N13   A    
N5    Ni3   S    
N16   Ni4   S    
C31   C33   S    
C7    C43   A    
C30   C32   T    
C42   H8    S    
C9    H3    S    
C2    N2    A    
N4    Ni1   S    
C12   H18   S    
C49   H15   S    
C29   C31   T    
N12   Ni2   S    
C47   H13   S    
N13   Ni4   S    
C52   C54   A    
N11   Ni1   S    
C13   C19   T    
C14   C20   T    
C52   N16   A    
C2    C54   A    
C51   N15   A    
C39   C40   T    
C24   N4    A    
C55   H21   S    
N6    Ni4   S    
C5    C45   A    
C48   N12   A    
C4    C50   A    
C51   C53   A    
C32   C34   S    
C8    C48   A    
C49   N13   A    
C4    C22   S    
C11   C16   S    
N6    N10   A    
C56   H22   S    
C12   C15   S    
C44   N8    A    
C24   H6    S    
C56   H24   S    
C33   C34   T    
C48   H14   S    
C55   H20   S    
C9    C11   S    
N7    Ni4   S    
C10   C12   S    
N9    Ni2   S    
C56   H23   S    
C42   N6    A    
C47   N11   A    
C45   H11   S    
C3    C21   S    
C15   O2    S    
N4    N14   A    
C5    C30   S    
C15   C17   S    
C21   C25   T    
C52   Br2   S    
C8    C14   S    
C6    C46   A    
C10   H4    S    
C45   N9    A    
C8    C44   A    
C23   N3    A    
C11   C17   S    
C25   C27   S    
C26   C28   S    
C1    N1    A    
N2    Ni2   S    
N8    Ni3   S    
C36   C38   T    
C9    C15   S    
N1    Ni1   S    
C37   C39   S    
C2    H2    S    
C38   C40   S    
C50   H16   S    
C17   C19   S    
C18   C20   S    
C1    H1    S    
C55   H19   S    
C36   C54   S    
C50   N14   A    
C9    C18   S    
C7    C13   S    
C6    C29   S    
C16   C18   S    
N5    N9    A    
C22   C26   T    
C12   C18   S    
C27   C28   T    
C10   C16   S    
N2    N16   A    
C43   N7    A    
C7    C47   A    
