data_mof_unit_17874.cif
_audit_creation_date              2012-12-11T15:08:56-0500
_audit_creation_method            fapswitch 2.2
_symmetry_space_group_name_H-M    P1
_symmetry_Int_Tables_number       1
_space_group_crystal_system       triclinic
_cell_length_a                    21.409295
_cell_length_b                    21.409843
_cell_length_c                    22.262098
_cell_angle_alpha                 89.999985
_cell_angle_beta                  89.99907
_cell_angle_gamma                 89.999898
_cell_volume                      10204.269949

loop_
_atom_site_label
_atom_site_type_symbol
_atom_type_description
_atom_site_fract_x
_atom_site_fract_y
_atom_site_fract_z
_atom_type_partial_charge
Br1   Br    Br    0.121282 0.396639 0.130341 -0.454595
Br2   Br    Br    0.477275 0.201661 0.214637 -0.466710
Br3   Br    Br    0.896405 0.379426 0.631250 -0.462515
Br4   Br    Br    0.103083 0.621699 0.370372 -0.489920
Br5   Br    Br    0.202058 0.477515 0.785990 -0.497718
Br6   Br    Br    0.522492 0.797951 0.214052 -0.497778
Br7   Br    Br    0.378286 0.896907 0.629605 -0.489901
Br8   Br    Br    0.620838 0.103489 0.369134 -0.462614
Br9   Br    Br    0.603470 0.879004 0.869235 -0.454477
Br10  Br    Br    0.298325 0.977357 0.285510 -0.479053
Br11  Br    Br    0.702441 0.022404 0.713677 -0.468970
Br12  Br    Br    0.878537 0.603124 0.129839 -0.487148
Br13  Br    Br    0.396892 0.121449 0.870141 -0.487154
Br14  Br    Br    0.977522 0.297789 0.286038 -0.469080
Br15  Br    Br    0.022634 0.701678 0.714498 -0.479002
Br16  Br    Br    0.798115 0.522647 0.785645 -0.466658
C1    C     C_R   0.938512 0.135339 0.112626 -0.106132
C2    C     C_R   0.085588 0.158810 0.078516 -0.133175
C3    C     C_R   0.102324 0.737487 0.307526 -0.246161
C4    C     C_R   0.199938 0.360361 0.846516 -0.244887
C5    C     C_R   0.639642 0.800075 0.153518 -0.244954
C6    C     C_R   0.262507 0.897667 0.692465 -0.246163
C7    C     C_R   0.737051 0.102378 0.307027 -0.249176
C8    C     C_R   0.237320 0.397606 0.192738 -0.241928
C9    C     C_R   0.602397 0.762830 0.807087 -0.241921
C10   C     C_R   0.300344 0.860290 0.346171 -0.225058
C11   C     C_R   0.700215 0.139671 0.653347 -0.246004
C12   C     C_R   0.762689 0.602309 0.192589 -0.249831
C13   C     C_R   0.135244 0.938431 0.887278 -0.104591
C14   C     C_R   0.397698 0.237306 0.807401 -0.249836
C15   C     C_R   0.860318 0.299937 0.346496 -0.246059
C16   C     C_R   0.139703 0.699651 0.653836 -0.225075
C17   C     C_R   0.892330 0.107798 0.147733 0.060531
C18   C     C_R   0.107679 0.892114 0.852287 0.060300
C19   C     C_R   0.148302 0.148419 0.089872 0.086155
C20   C     C_R   0.851570 0.851719 0.910110 0.086162
C21   C     C_R   0.107885 0.892321 0.147713 0.060297
C22   C     C_R   0.892216 0.107679 0.852266 0.060531
C23   C     C_R   0.851659 0.851521 0.089733 0.081065
C24   C     C_R   0.864769 0.061513 0.112715 -0.104999
C25   C     C_R   0.148487 0.148339 0.910275 0.081061
C26   C     C_R   0.351655 0.648440 0.589781 0.083707
C27   C     C_R   0.648293 0.351543 0.410158 0.083636
C28   C     C_R   0.607815 0.607654 0.647725 0.060228
C29   C     C_R   0.392349 0.392165 0.352279 0.060230
C30   C     C_R   0.648465 0.351727 0.589858 0.083641
C31   C     C_R   0.351558 0.648340 0.410214 0.083704
C32   C     C_R   0.392123 0.392288 0.647714 0.060591
C33   C     C_R   0.607708 0.607870 0.352283 0.060590
C34   C     C_R   0.741379 0.821905 0.887919 -0.170055
C35   C     C_R   0.085742 0.158815 0.921555 -0.141460
C36   C     C_R   0.178210 0.258623 0.111925 -0.170049
C37   C     C_R   0.822853 0.096853 0.762945 -0.171035
C38   C     C_R   0.177490 0.903149 0.236844 -0.169161
C39   C     C_R   0.258749 0.178246 0.888327 -0.186112
C40   C     C_R   0.821747 0.741265 0.111679 -0.186150
C41   C     C_R   0.096846 0.822510 0.763157 -0.169150
C42   C     C_R   0.903162 0.177223 0.237000 -0.171073
C43   C     C_R   0.403173 0.322598 0.263145 -0.168580
C44   C     C_R   0.677317 0.596834 0.736916 -0.168542
C45   C     C_R   0.241316 0.678341 0.388326 -0.183779
C46   C     C_R   0.914399 0.841167 0.078451 -0.144773
C47   C     C_R   0.758658 0.322064 0.612204 -0.171802
C48   C     C_R   0.596879 0.677377 0.263062 -0.174635
C49   C     C_R   0.322613 0.403112 0.736938 -0.174628
C50   C     C_R   0.678040 0.241335 0.387933 -0.171818
C51   C     C_R   0.321646 0.758680 0.611653 -0.183782
C52   C     C_R   0.803771 0.804103 0.897196 0.074462
C53   C     C_R   0.195947 0.196193 0.102772 0.074440
C54   C     C_R   0.874150 0.125655 0.790823 0.084906
C55   C     C_R   0.126050 0.874401 0.209152 0.084788
C56   C     C_R   0.196315 0.195999 0.897497 0.080078
C57   C     C_R   0.864668 0.061491 0.887365 -0.106142
C58   C     C_R   0.803998 0.803697 0.102517 0.080091
C59   C     C_R   0.125596 0.873948 0.790847 0.084784
C60   C     C_R   0.874373 0.125887 0.209176 0.084920
C61   C     C_R   0.374429 0.374025 0.290848 0.083498
C62   C     C_R   0.625926 0.625588 0.709160 0.083484
C63   C     C_R   0.303781 0.696024 0.397391 0.076549
C64   C     C_R   0.696323 0.304151 0.602749 0.077391
C65   C     C_R   0.625662 0.626005 0.290838 0.085687
C66   C     C_R   0.373986 0.374332 0.709158 0.085681
C67   C     C_R   0.695895 0.303705 0.397279 0.077409
C68   C     C_R   0.135380 0.938514 0.112594 -0.105822
C69   C     C_R   0.303968 0.696215 0.602601 0.076544
C70   C     C_R   0.821257 0.741616 0.888539 -0.173193
C71   C     C_R   0.258398 0.178643 0.111546 -0.173177
C72   C     C_R   0.902961 0.176847 0.762998 -0.185679
C73   C     C_R   0.097162 0.823370 0.237186 -0.186429
C74   C     C_R   0.178825 0.258493 0.888840 -0.190424
C75   C     C_R   0.741508 0.821189 0.111187 -0.190451
C76   C     C_R   0.176626 0.902833 0.762809 -0.186432
C77   C     C_R   0.823221 0.097061 0.237056 -0.185708
C78   C     C_R   0.323356 0.402882 0.262868 -0.180759
C79   C     C_R   0.414388 0.658822 0.578476 -0.144666
C80   C     C_R   0.597078 0.676697 0.737089 -0.180724
C81   C     C_R   0.321356 0.758468 0.388597 -0.173932
C82   C     C_R   0.678961 0.241595 0.611204 -0.189040
C83   C     C_R   0.676750 0.597142 0.262869 -0.187397
C84   C     C_R   0.402857 0.323250 0.737127 -0.187391
C85   C     C_R   0.758420 0.321126 0.388720 -0.189038
C86   C     C_R   0.241525 0.678638 0.611406 -0.173934
C87   C     C_R   0.585576 0.341180 0.421513 -0.133912
C88   C     C_R   0.635348 0.561478 0.612614 -0.105183
C89   C     C_R   0.061486 0.864619 0.887407 -0.105809
C90   C     C_R   0.364773 0.438461 0.387278 -0.102226
C91   C     C_R   0.585735 0.341209 0.578528 -0.140919
C92   C     C_R   0.414288 0.658809 0.421526 -0.129593
C93   C     C_R   0.364625 0.438499 0.612606 -0.108515
C94   C     C_R   0.635255 0.561555 0.387289 -0.105423
C95   C     C_R   0.438523 0.364640 0.387397 -0.105184
C96   C     C_R   0.561530 0.635230 0.612717 -0.102198
C97   C     C_R   0.658797 0.414273 0.421482 -0.140941
C98   C     C_R   0.341188 0.585710 0.578472 -0.129581
C99   C     C_R   0.561499 0.635371 0.387393 -0.108496
C100  C     C_R   0.158795 0.085703 0.078518 -0.130060
C101  C     C_R   0.438440 0.364741 0.612708 -0.105415
C102  C     C_R   0.341177 0.585608 0.421520 -0.144667
C103  C     C_R   0.658820 0.414438 0.578494 -0.133943
C104  C     C_R   0.780037 0.699869 0.861634 0.095647
C105  C     C_R   0.300158 0.219849 0.138444 0.095622
C106  C     C_R   0.873745 0.206704 0.715116 0.100607
C107  C     C_R   0.126371 0.793642 0.285166 0.099473
C108  C     C_R   0.220047 0.300248 0.861926 0.099688
C109  C     C_R   0.699752 0.779966 0.138098 0.099697
C110  C     C_R   0.206352 0.873623 0.714830 0.099471
C111  C     C_R   0.841189 0.914429 0.921477 -0.133220
C112  C     C_R   0.793392 0.126282 0.284956 0.100621
C113  C     C_R   0.293562 0.373631 0.214962 0.097737
C114  C     C_R   0.626328 0.706527 0.784970 0.097718
C115  C     C_R   0.280157 0.800240 0.361696 0.093585
C116  C     C_R   0.720219 0.199870 0.638116 0.100926
C117  C     C_R   0.706484 0.626318 0.214874 0.100183
C118  C     C_R   0.373685 0.293513 0.785122 0.100190
C119  C     C_R   0.800158 0.279883 0.361812 0.100935
C120  C     C_R   0.199752 0.719837 0.638306 0.093589
C121  C     C_R   0.200050 0.361747 0.154684 0.338206
C122  C     C_R   0.061568 0.864756 0.112721 -0.104578
C123  C     C_R   0.638274 0.800127 0.845095 0.338206
C124  C     C_R   0.264463 0.897577 0.308136 0.331539
C125  C     C_R   0.736089 0.102379 0.691395 0.331738
C126  C     C_R   0.799894 0.638116 0.154421 0.327792
C127  C     C_R   0.361895 0.200098 0.845571 0.327781
C128  C     C_R   0.897611 0.264061 0.308453 0.331709
C129  C     C_R   0.102415 0.735535 0.691868 0.331548
C130  C     C_R   0.764275 0.602459 0.808213 0.332361
C131  C     C_R   0.397527 0.235566 0.191947 0.332329
C132  C     C_R   0.861724 0.300409 0.655154 0.339199
C133  C     C_R   0.938494 0.135236 0.887293 -0.104975
C134  C     C_R   0.138139 0.700275 0.345680 0.328457
C135  C     C_R   0.235799 0.397628 0.808437 0.330386
C136  C     C_R   0.602372 0.764208 0.191589 0.330402
C137  C     C_R   0.299715 0.861853 0.654307 0.328456
C138  C     C_R   0.699760 0.138249 0.345050 0.339200
C139  C     C_R   0.699042 0.780750 0.861149 0.019302
C140  C     C_R   0.219375 0.300940 0.138719 0.019347
C141  C     C_R   0.792745 0.125827 0.714679 0.018239
C142  C     C_R   0.207647 0.874242 0.285108 0.018207
C143  C     C_R   0.301084 0.219417 0.861545 0.023743
C144  C     C_R   0.841184 0.914263 0.078451 -0.141451
C145  C     C_R   0.780577 0.698929 0.138458 0.023744
C146  C     C_R   0.125751 0.792350 0.714894 0.018204
C147  C     C_R   0.874198 0.207354 0.285254 0.018246
C148  C     C_R   0.374211 0.292399 0.214944 0.017667
C149  C     C_R   0.707491 0.625808 0.785129 0.017674
C150  C     C_R   0.199000 0.719531 0.361547 0.025195
C151  C     C_R   0.801030 0.280934 0.638950 0.019067
C152  C     C_R   0.625777 0.707483 0.214754 0.021304
C153  C     C_R   0.292518 0.374219 0.785255 0.021291
C154  C     C_R   0.719183 0.198982 0.361168 0.019102
C155  C     C_R   0.158836 0.085599 0.921552 -0.144752
C156  C     C_R   0.280458 0.800994 0.638441 0.025200
C157  C     C_R   0.720020 0.720454 0.844826 0.004821
C158  C     C_R   0.279620 0.279907 0.155157 0.004802
C159  C     C_R   0.816509 0.183357 0.693363 0.005135
C160  C     C_R   0.183745 0.816883 0.306693 0.005380
C161  C     C_R   0.280059 0.279663 0.845108 0.005134
C162  C     C_R   0.720334 0.719951 0.154902 0.005140
C163  C     C_R   0.183111 0.816250 0.693306 0.005381
C164  C     C_R   0.816709 0.183556 0.306643 0.005148
C165  C     C_R   0.316808 0.316268 0.193418 0.006398
C166  C     C_R   0.914286 0.841210 0.921471 -0.130017
C167  C     C_R   0.683655 0.683254 0.806580 0.006385
C168  C     C_R   0.220081 0.779726 0.345012 0.004520
C169  C     C_R   0.780149 0.220554 0.655104 0.005038
C170  C     C_R   0.683189 0.683626 0.193248 0.003700
C171  C     C_R   0.316379 0.316807 0.806757 0.003704
C172  C     C_R   0.779518 0.219914 0.344911 0.005024
C173  C     C_R   0.220266 0.779912 0.654985 0.004518
C174  C     C_R   0.800158 0.639763 0.846229 -0.226643
C175  C     C_R   0.360222 0.199677 0.153941 -0.226601
C176  C     C_R   0.897607 0.263101 0.693144 -0.249175
H1    H     H_    0.969928 0.172442 0.125136 0.113975
H2    H     H_    0.062835 0.203520 0.073593 0.107851
H3    H     H_    0.172287 0.969847 0.874569 0.105212
H4    H     H_    0.827748 0.030059 0.125390 0.101284
H5    H     H_    0.063105 0.203598 0.926404 0.099181
H6    H     H_    0.937174 0.796468 0.073521 0.106226
H7    H     H_    0.827565 0.030080 0.874840 0.113986
H8    H     H_    0.172475 0.969956 0.125066 0.110590
H9    H     H_    0.437146 0.703532 0.573566 0.106505
H10   H     H_    0.562812 0.296483 0.426482 0.108327
H11   H     H_    0.672451 0.530058 0.625109 0.113946
H12   H     H_    0.030045 0.827524 0.874937 0.110599
H13   H     H_    0.327735 0.469885 0.374578 0.105882
H14   H     H_    0.563111 0.296410 0.573743 0.098993
H15   H     H_    0.436927 0.703587 0.426396 0.101714
H16   H     H_    0.327534 0.469939 0.625101 0.110275
H17   H     H_    0.672288 0.530119 0.374600 0.101363
H18   H     H_    0.469946 0.327535 0.374917 0.113933
H19   H     H_    0.530103 0.672269 0.625402 0.105862
H20   H     H_    0.703591 0.436904 0.426283 0.098986
H21   H     H_    0.296409 0.563071 0.573601 0.101703
H22   H     H_    0.530060 0.672462 0.374899 0.110279
H23   H     H_    0.203583 0.063074 0.073663 0.101939
H24   H     H_    0.469873 0.327706 0.625395 0.101367
H25   H     H_    0.296467 0.562849 0.426429 0.106509
H26   H     H_    0.703515 0.437208 0.573514 0.108311
H27   H     H_    0.727117 0.869259 0.896830 0.165062
H28   H     H_    0.130895 0.272933 0.102897 0.165046
H29   H     H_    0.802958 0.055183 0.782228 0.164914
H30   H     H_    0.197462 0.944703 0.217415 0.162407
H31   H     H_    0.273038 0.130908 0.897293 0.163259
H32   H     H_    0.869082 0.726979 0.102708 0.163262
H33   H     H_    0.055291 0.802540 0.782587 0.162415
H34   H     H_    0.796483 0.937189 0.926414 0.107827
H35   H     H_    0.944806 0.197130 0.217680 0.164906
H36   H     H_    0.444768 0.302665 0.282530 0.164190
H37   H     H_    0.697240 0.555215 0.717565 0.164199
H38   H     H_    0.226981 0.631040 0.397387 0.163525
H39   H     H_    0.772836 0.369477 0.603469 0.165738
H40   H     H_    0.555290 0.697330 0.282448 0.163153
H41   H     H_    0.302652 0.444694 0.717550 0.163146
H42   H     H_    0.630657 0.227109 0.396769 0.165727
H43   H     H_    0.368943 0.773019 0.602575 0.163526
H44   H     H_    0.845586 0.623206 0.860675 0.186346
H45   H     H_    0.030150 0.827715 0.125428 0.105212
H46   H     H_    0.376743 0.154212 0.139569 0.186355
H47   H     H_    0.942483 0.280202 0.708572 0.177518
H48   H     H_    0.057315 0.720507 0.292333 0.181679
H49   H     H_    0.154544 0.376957 0.861021 0.183217
H50   H     H_    0.623051 0.845473 0.139026 0.183192
H51   H     H_    0.279488 0.942674 0.707657 0.181682
H52   H     H_    0.719983 0.057469 0.291664 0.177523
H53   H     H_    0.220313 0.442580 0.207988 0.182366
H54   H     H_    0.557456 0.779867 0.791771 0.182375
H55   H     H_    0.345806 0.876817 0.360552 0.187596
H56   H     H_    0.969953 0.172257 0.874632 0.101268
H57   H     H_    0.654878 0.123021 0.638737 0.183251
H58   H     H_    0.779710 0.557344 0.207853 0.178985
H59   H     H_    0.442662 0.220283 0.792129 0.178988
H60   H     H_    0.876933 0.345310 0.361035 0.183215
H61   H     H_    0.123176 0.654190 0.639458 0.187588
H62   H     H_    0.868381 0.726234 0.897771 0.128432
H63   H     H_    0.273734 0.131485 0.102420 0.128435
H64   H     H_    0.944734 0.197471 0.781756 0.120023
H65   H     H_    0.055290 0.802805 0.218562 0.123811
H66   H     H_    0.131691 0.273862 0.898052 0.123626
H67   H     H_    0.796400 0.936901 0.073605 0.099180
H68   H     H_    0.726142 0.868323 0.101985 0.123611
H69   H     H_    0.197189 0.944707 0.781431 0.123812
H70   H     H_    0.802615 0.055261 0.218334 0.120046
H71   H     H_    0.302795 0.444749 0.281504 0.124515
H72   H     H_    0.555233 0.697270 0.718418 0.124489
H73   H     H_    0.368530 0.773784 0.397692 0.128398
H74   H     H_    0.631898 0.226134 0.601798 0.123782
H75   H     H_    0.697354 0.555319 0.281554 0.120706
H76   H     H_    0.444683 0.302654 0.718440 0.120713
H77   H     H_    0.773841 0.368221 0.398035 0.123737
H78   H     H_    0.203535 0.062822 0.926482 0.106220
H79   H     H_    0.226212 0.631463 0.602320 0.128393
H80   H     H_    0.936907 0.796418 0.926307 0.101959
N1    N     N_R   0.940200 0.105310 0.059970 -0.044818
N2    N     N_R   0.059800 0.105310 0.059970 -0.043765
N3    N     N_R   0.105310 0.940200 0.940030 -0.044401
N4    N     N_R   0.894690 0.059800 0.059970 -0.044304
N5    N     N_R   0.059800 0.105310 0.940030 -0.041733
N6    N     N_R   0.940200 0.894690 0.059970 -0.041924
N7    N     N_R   0.894690 0.059800 0.940030 -0.044817
N8    N     N_R   0.105310 0.940200 0.059970 -0.044739
N9    N     N_R   0.440200 0.605310 0.559970 -0.042499
N10   N     N_R   0.559800 0.394690 0.440030 -0.043452
N11   N     N_R   0.605310 0.559800 0.559970 -0.045089
N12   N     N_R   0.059800 0.894690 0.940030 -0.044738
N13   N     N_R   0.394690 0.440200 0.440030 -0.044748
N14   N     N_R   0.559800 0.394690 0.559970 -0.042052
N15   N     N_R   0.440200 0.605310 0.440030 -0.043210
N16   N     N_R   0.394690 0.440200 0.559970 -0.044404
N17   N     N_R   0.605310 0.559800 0.440030 -0.044071
N18   N     N_R   0.440200 0.394690 0.440030 -0.045090
N19   N     N_R   0.559800 0.605310 0.559970 -0.044750
N20   N     N_R   0.605310 0.440200 0.440030 -0.042053
N21   N     N_R   0.394690 0.559800 0.559970 -0.043209
N22   N     N_R   0.559800 0.605310 0.440030 -0.044403
N23   N     N_R   0.105310 0.059800 0.059970 -0.043666
N24   N     N_R   0.440200 0.394690 0.559970 -0.044070
N25   N     N_R   0.394690 0.559800 0.440030 -0.042498
N26   N     N_R   0.605310 0.440200 0.559970 -0.043446
N27   N     N_R   0.894690 0.940200 0.940030 -0.043757
N28   N     N_R   0.059800 0.894690 0.059970 -0.044399
N29   N     N_R   0.940200 0.105310 0.940030 -0.044305
N30   N     N_R   0.894690 0.940200 0.059970 -0.041734
N31   N     N_R   0.105310 0.059800 0.940030 -0.041924
N32   N     N_R   0.940200 0.894690 0.940030 -0.043672
Ni1   Ni    Ni4+2 1.000000 0.104370 0.000000 0.226021
Ni2   Ni    Ni4+2 1.000000 0.895630 0.000000 0.226457
Ni3   Ni    Ni4+2 0.104370 0.000000 0.000000 0.226447
Ni4   Ni    Ni4+2 0.895630 0.000000 0.000000 0.226020
Ni5   Ni    Ni4+2 0.500000 0.604370 0.500000 0.226406
Ni6   Ni    Ni4+2 0.500000 0.395630 0.500000 0.226195
Ni7   Ni    Ni4+2 0.604370 0.500000 0.500000 0.226194
Ni8   Ni    Ni4+2 0.395630 0.500000 0.500000 0.226399

loop_
_geom_bond_atom_site_label_1
_geom_bond_atom_site_label_2
_ccdc_geom_bond_type
C132  C176  A    
N23   Ni3   S    
C107  C160  A    
C50   H42   S    
C80   C114  A    
C131  C148  A    
C24   N4    A    
C37   H29   S    
C151  C169  A    
N30   Ni4   S    
C3    C134  A    
C138  C154  A    
C45   C150  A    
C23   C58   S    
C166  N32   A    
C43   C148  A    
C35   H5    S    
C8    C113  A    
C62   C80   A    
C16   H61   S    
C112  C164  A    
C18   C59   S    
C99   N22   A    
Br10  C124  S    
C6    H51   S    
N17   Ni7   S    
C4    H49   S    
Br14  C128  S    
C51   C69   A    
C86   H79   S    
C12   C117  A    
C149  C167  A    
C91   N14   A    
C150  C168  A    
C81   C115  A    
C72   C106  A    
C89   H12   S    
C16   C129  A    
C65   C83   A    
C14   C127  A    
C93   H16   S    
N2    N23   A    
C115  C168  A    
N29   Ni1   S    
C102  H25   S    
C29   C95   A    
C45   H38   S    
C44   H37   S    
N15   Ni5   S    
C43   H36   S    
C28   C96   A    
N10   N20   A    
C33   C99   A    
C133  N29   A    
C21   C55   S    
N8    N28   A    
C94   H17   S    
C103  N26   A    
C122  N28   A    
C74   H66   S    
C40   H32   S    
C160  C168  A    
C75   C109  A    
C63   C81   A    
C97   H20   S    
C1    N1    A    
C20   C52   S    
Br4   C134  S    
C44   C149  A    
Br5   C135  S    
C4    C135  A    
C11   H57   S    
C81   H73   S    
N4    Ni4   S    
C79   H9    S    
C49   C66   A    
C10   C115  A    
C11   C125  A    
N16   N24   A    
C162  C170  A    
C99   H22   S    
C98   N21   A    
C132  C151  A    
C25   C35   A    
C7    C112  A    
C100  N23   A    
C23   C144  A    
C2    H2    S    
C90   N13   A    
C27   C67   S    
N1    N4    A    
C126  C145  A    
C42   C60   A    
C57   N7    A    
C25   C155  A    
C3    C107  A    
C114  C167  A    
C88   N11   A    
C5    C136  A    
C134  C150  A    
C34   H27   S    
C44   C62   A    
C14   H59   S    
C35   N5    A    
C148  C165  A    
C124  C142  A    
N21   Ni8   S    
C155  N31   A    
C26   C98   A    
C131  C175  A    
C14   C118  A    
Br7   C137  S    
C111  H34   S    
C75   H68   S    
C2    C19   A    
C41   H33   S    
C9    H54   S    
N32   Ni2   S    
C80   H72   S    
C11   C116  A    
C8    H53   S    
C9    C114  A    
C84   C118  A    
C86   C120  A    
C47   C64   A    
C85   C119  A    
C87   N10   A    
C17   C24   A    
C152  C170  A    
C96   H19   S    
C84   H76   S    
Br2   C131  S    
C13   H3    S    
C85   H77   S    
C144  H67   S    
N25   Ni8   S    
C56   C74   A    
C163  C173  A    
C123  C139  A    
C34   C139  A    
Br11  C125  S    
C19   C53   S    
C108  C161  A    
C59   C76   A    
C130  C149  A    
C133  H56   S    
C21   C122  A    
Br1   C121  S    
C47   H39   S    
C77   H70   S    
C67   C85   A    
C94   N17   A    
C116  C169  A    
C105  C175  A    
C106  C176  A    
C32   C101  A    
C51   C156  A    
C70   H62   S    
C135  C153  A    
C120  C173  A    
C41   C59   A    
C28   C62   S    
C145  C162  A    
C77   C112  A    
C30   C64   S    
N22   Ni5   S    
N8    Ni3   S    
C68   N8    A    
C137  C156  A    
C71   H63   S    
C12   H58   S    
C48   C65   A    
C4    C108  A    
C111  N27   A    
N3    Ni3   S    
C31   C92   A    
C154  C172  A    
C109  C162  A    
C96   N19   A    
C155  H78   S    
C70   C104  A    
C144  N30   A    
C42   H35   S    
C33   C94   A    
C2    N2    A    
C6    C137  A    
C13   N3    A    
C166  H80   S    
C22   C54   S    
N19   Ni5   S    
N5    Ni1   S    
N14   Ni6   S    
C140  C158  A    
C49   H41   S    
C9    C123  A    
N9    Ni5   S    
C10   C124  A    
N11   Ni7   S    
C37   C54   A    
C122  H45   S    
C33   C65   S    
C36   C53   A    
C164  C172  A    
C50   C67   A    
C93   N16   A    
C31   C102  A    
C38   C55   A    
C103  H26   S    
C22   C133  A    
C76   H69   S    
C53   C71   A    
Br6   C136  S    
C175  H46   S    
C39   C143  A    
C78   H71   S    
C1    C17   A    
C100  H23   S    
C42   C147  A    
N27   N32   A    
C136  C152  A    
C40   C58   A    
C88   H11   S    
C15   C119  A    
C16   C120  A    
N11   N19   A    
C40   C145  A    
C26   C79   A    
C49   C153  A    
C58   C75   A    
C104  C174  A    
C60   C77   A    
C159  C169  A    
C105  C158  A    
Br12  C126  S    
C48   H40   S    
C83   H75   S    
C19   C100  A    
C26   C69   S    
C153  C171  A    
N18   Ni6   S    
N24   Ni6   S    
C128  C147  A    
C8    C121  A    
C20   C166  A    
C5    C109  A    
C82   H74   S    
C10   H55   S    
C39   H31   S    
N28   Ni2   S    
C23   C46   A    
N15   N25   A    
C64   C82   A    
C18   C89   A    
C74   C108  A    
C118  C171  A    
C76   C110  A    
C127  C143  A    
C156  C173  A    
N17   N22   A    
C161  C171  A    
C87   H10   S    
C48   C152  A    
N20   Ni7   S    
Br9   C123  S    
N7    Ni4   S    
C13   C18   A    
C32   C66   S    
C15   H60   S    
Br13  C127  S    
C27   C87   A    
C95   H18   S    
C6    C110  A    
C157  C167  A    
C7    C138  A    
C7    H52   S    
C34   C52   A    
N2    Ni1   S    
C5    H50   S    
N5    N31   A    
N7    N29   A    
C52   C70   A    
C61   C78   A    
C1    H1    S    
C31   C63   S    
C54   C72   A    
C43   C61   A    
C90   H13   S    
C28   C88   A    
C72   H64   S    
C68   H8    S    
C97   N20   A    
C51   H43   S    
C95   N18   A    
C45   C63   A    
N26   Ni7   S    
N27   Ni4   S    
C38   H30   S    
C129  C146  A    
C106  C159  A    
C89   N12   A    
C83   C117  A    
Br16  C130  S    
C15   C128  A    
C91   H14   S    
C41   C146  A    
C21   C68   A    
Br8   C138  S    
C39   C56   A    
N6    Ni2   S    
N9    N21   A    
C139  C157  A    
C32   C93   A    
Br3   C132  S    
C98   H21   S    
N12   Ni2   S    
C143  C161  A    
C92   H15   S    
N10   Ni6   S    
C158  C165  A    
C36   H28   S    
C78   C113  A    
C101  N24   A    
C110  C163  A    
C73   H65   S    
C46   H6    S    
N1    Ni1   S    
Br15  C129  S    
C176  H47   S    
N31   Ni3   S    
C73   C107  A    
C79   N9    A    
N13   N18   A    
C121  C140  A    
C101  H24   S    
C38   C142  A    
C17   C60   S    
C55   C73   A    
C30   C91   A    
N3    N12   A    
C146  C163  A    
C117  C170  A    
C141  C159  A    
C25   C56   S    
C142  C160  A    
N6    N30   A    
C71   C105  A    
C20   C111  A    
C12   C126  A    
C82   C116  A    
C119  C172  A    
C29   C90   A    
C24   H4    S    
C125  C141  A    
C113  C165  A    
C102  N25   A    
C66   C84   A    
C50   C154  A    
N14   N26   A    
C29   C61   S    
N13   Ni8   S    
C36   C140  A    
C37   C141  A    
C92   N15   A    
C3    H48   S    
C27   C97   A    
C57   H7    S    
C47   C151  A    
C30   C103  A    
C69   C86   A    
C104  C157  A    
C174  H44   S    
C147  C164  A    
C130  C174  A    
C46   N6    A    
N16   Ni8   S    
C22   C57   A    
