data_mof_unit_39520.cif
_audit_creation_date              2012-12-10T20:53:58-0500
_audit_creation_method            fapswitch 2.2
_symmetry_space_group_name_H-M    P1
_symmetry_Int_Tables_number       1
_space_group_crystal_system       triclinic
_cell_length_a                    26.021367
_cell_length_b                    34.30096
_cell_length_c                    21.546252
_cell_angle_alpha                 89.873489
_cell_angle_beta                  127.241014
_cell_angle_gamma                 90.093793
_cell_volume                      15309.9218647

loop_
_atom_site_label
_atom_site_type_symbol
_atom_type_description
_atom_site_fract_x
_atom_site_fract_y
_atom_site_fract_z
_atom_type_partial_charge
C1    C     C_R   1.000000 0.644171 0.500049 0.810939
C2    C     C_R   0.999994 0.355832 0.499944 0.808965
C3    C     C_R   0.499997 0.144171 0.500047 0.811033
C4    C     C_R   0.499995 0.855832 0.499945 0.809076
C5    C     C_R   0.338633 0.740592 0.081090 -0.100400
C6    C     C_R   0.662048 0.256967 0.918843 -0.092881
C7    C     C_R   0.660909 0.743020 0.919083 -0.102117
C8    C     C_R   0.338592 0.255235 0.081193 -0.093178
C9    C     C_R   0.838717 0.240893 0.081026 -0.101175
C10   C     C_R   0.162223 0.757489 0.918830 -0.092732
C11   C     C_R   0.160948 0.242832 0.919099 -0.101488
C12   C     C_R   0.838756 0.754434 0.081176 -0.094173
C13   C     C_R   0.180624 0.759677 0.043700 -0.332530
C14   C     C_R   0.819833 0.238214 0.955792 -0.332214
C15   C     C_R   0.820425 0.753968 0.956274 -0.332996
C16   C     C_R   0.179656 0.242105 0.044314 -0.334260
C17   C     C_R   0.680463 0.258709 0.043745 -0.333095
C18   C     C_R   0.319748 0.737484 0.955887 -0.331749
C19   C     C_R   0.320272 0.255188 0.956296 -0.332385
C20   C     C_R   0.679591 0.742764 0.044274 -0.334448
C21   C     C_R   0.137994 0.762857 0.962099 0.489221
C22   C     C_R   0.862036 0.234102 0.037060 0.504921
C23   C     C_R   0.863346 0.756968 0.037818 0.490653
C24   C     C_R   0.137114 0.238096 0.963052 0.504245
C25   C     C_R   0.637759 0.261893 0.962149 0.489595
C26   C     C_R   0.361945 0.733533 0.037196 0.503847
C27   C     C_R   0.363123 0.258339 0.037834 0.490629
C28   C     C_R   0.637022 0.738675 0.963041 0.504307
C29   C     C_R   0.502141 0.582014 0.445105 -0.234189
C30   C     C_R   0.500278 0.418076 0.555939 -0.228245
C31   C     C_R   0.500829 0.581717 0.556570 -0.257260
C32   C     C_R   0.501033 0.418224 0.444064 -0.250215
C33   C     C_R   0.011734 0.081930 0.453274 -0.226269
C34   C     C_R   0.990794 0.917977 0.548252 -0.233724
C35   C     C_R   0.991470 0.081674 0.549240 -0.252014
C36   C     C_R   0.008942 0.918149 0.450408 -0.241998
C37   C     C_R   0.500491 0.601950 0.500193 -0.067373
C38   C     C_R   0.500041 0.398053 0.499605 -0.073765
C39   C     C_R   0.000592 0.101916 0.500402 -0.083084
C40   C     C_R   0.999795 0.897987 0.499311 -0.082069
C41   C     C_R   0.501998 0.540898 0.557981 -0.017878
C42   C     C_R   0.503540 0.459071 0.445015 -0.032858
C43   C     C_R   0.506113 0.541188 0.446984 -0.033901
C44   C     C_R   0.501803 0.458886 0.557713 -0.011330
C45   C     C_R   0.991690 0.040821 0.550073 -0.016849
C46   C     C_R   0.009810 0.959020 0.450387 -0.005814
C47   C     C_R   0.012522 0.041072 0.453137 -0.002932
C48   C     C_R   0.991370 0.958788 0.549500 -0.014417
C49   C     C_R   0.504393 0.520505 0.502681 -0.084761
C50   C     C_R   0.503474 0.479523 0.501941 -0.086571
C51   C     C_R   0.001381 0.020414 0.500866 -0.090443
C52   C     C_R   0.000446 0.979449 0.499867 -0.089603
C53   C     C_R   0.499994 0.520274 0.613060 0.326145
C54   C     C_R   0.506648 0.479621 0.390599 0.352476
C55   C     C_R   0.509916 0.520651 0.393000 0.356359
C56   C     C_R   0.502574 0.479318 0.614915 0.330978
C57   C     C_R   0.982126 0.020181 0.598912 0.326287
C58   C     C_R   0.020939 0.979545 0.402835 0.320495
C59   C     C_R   0.024952 0.020666 0.406804 0.320998
C60   C     C_R   0.984629 0.979177 0.600885 0.328785
C61   C     C_R   0.810878 0.876341 0.430100 -0.246332
C62   C     C_R   0.183923 0.126104 0.573491 -0.246479
C63   C     C_R   0.180907 0.881675 0.540730 -0.263827
C64   C     C_R   0.821954 0.121347 0.451191 -0.264225
C65   C     C_R   0.311629 0.375616 0.427860 -0.236428
C66   C     C_R   0.685939 0.625877 0.576122 -0.244906
C67   C     C_R   0.679420 0.380725 0.541838 -0.267266
C68   C     C_R   0.325286 0.619738 0.462294 -0.263612
C69   C     C_R   0.806185 0.844629 0.467350 -0.247066
C70   C     C_R   0.189397 0.156643 0.534736 -0.252593
C71   C     C_R   0.184545 0.846109 0.511933 -0.248331
C72   C     C_R   0.817334 0.155845 0.481844 -0.254286
C73   C     C_R   0.306728 0.344399 0.465952 -0.246946
C74   C     C_R   0.690385 0.656380 0.536400 -0.259729
C75   C     C_R   0.683193 0.345144 0.513241 -0.241073
C76   C     C_R   0.320635 0.655628 0.489090 -0.257297
C77   C     C_R   0.999995 0.855730 0.499691 0.794284
C78   C     C_R   0.000084 0.144236 0.500052 0.782355
C79   C     C_R   0.500004 0.355753 0.499778 0.791603
C80   C     C_R   0.500034 0.644248 0.500045 0.781431
C81   C     C_R   0.761079 0.814878 0.423356 0.037928
C82   C     C_R   0.238820 0.184420 0.576777 0.051387
C83   C     C_R   0.232139 0.818740 0.562377 0.037237
C84   C     C_R   0.765899 0.181676 0.434275 0.056689
C85   C     C_R   0.260964 0.314809 0.422758 0.036696
C86   C     C_R   0.739276 0.684574 0.577576 0.053611
C87   C     C_R   0.732571 0.318561 0.563203 0.036682
C88   C     C_R   0.268275 0.680541 0.439237 0.058159
C89   C     C_R   0.719971 0.817376 0.341445 0.438261
C90   C     C_R   0.285609 0.179856 0.657895 0.451869
C91   C     C_R   0.275210 0.826839 0.642681 0.430695
C92   C     C_R   0.717766 0.172214 0.355455 0.450238
C93   C     C_R   0.219379 0.317045 0.340805 0.438772
C94   C     C_R   0.786391 0.680573 0.658775 0.452777
C95   C     C_R   0.777273 0.327478 0.642961 0.425378
C96   C     C_R   0.219782 0.669061 0.361755 0.450591
C97   C     C_R   0.723796 0.849790 0.304608 -0.289560
C98   C     C_R   0.278898 0.149397 0.696529 -0.313396
C99   C     C_R   0.272069 0.862768 0.670969 -0.275442
C100  C     C_R   0.723576 0.137751 0.324765 -0.306420
C101  C     C_R   0.223205 0.349076 0.303181 -0.292957
C102  C     C_R   0.780685 0.650153 0.698316 -0.317872
C103  C     C_R   0.774393 0.363622 0.670780 -0.275467
C104  C     C_R   0.225497 0.633112 0.334998 -0.308596
C105  C     C_R   0.770324 0.878687 0.348004 0.513662
C106  C     C_R   0.227763 0.122917 0.655405 0.519413
C107  C     C_R   0.224959 0.890354 0.621169 0.504720
C108  C     C_R   0.775043 0.112030 0.371582 0.519192
C109  C     C_R   0.270359 0.377746 0.345794 0.511804
C110  C     C_R   0.730255 0.623205 0.657993 0.521710
C111  C     C_R   0.725736 0.390535 0.621366 0.506944
C112  C     C_R   0.277421 0.608097 0.384415 0.519269
C113  C     C_R   0.703151 0.778855 0.462097 -0.176652
C114  C     C_R   0.295793 0.220016 0.535694 -0.202397
C115  C     C_R   0.293832 0.780777 0.531574 -0.174454
C116  C     C_R   0.706123 0.219095 0.468662 -0.205939
C117  C     C_R   0.203319 0.279022 0.462346 -0.175955
C118  C     C_R   0.795655 0.719877 0.535427 -0.203065
C119  C     C_R   0.794202 0.280504 0.532394 -0.173927
C120  C     C_R   0.206972 0.718764 0.470331 -0.206527
C121  C     C_R   0.695554 0.748079 0.498623 -0.091445
C122  C     C_R   0.303746 0.251072 0.499999 -0.094789
C123  C     C_R   0.304438 0.748355 0.501376 -0.092112
C124  C     C_R   0.695839 0.251368 0.499345 -0.098039
C125  C     C_R   0.195664 0.248203 0.498782 -0.092289
C126  C     C_R   0.803624 0.750951 0.499795 -0.094054
C127  C     C_R   0.804229 0.248377 0.501028 -0.093247
C128  C     C_R   0.195985 0.751344 0.499598 -0.098059
C129  C     C_R   0.742425 0.717932 0.535719 0.074458
C130  C     C_R   0.256900 0.281119 0.462942 0.055927
C131  C     C_R   0.260410 0.716743 0.470394 0.076191
C132  C     C_R   0.740323 0.282676 0.531350 0.050217
C133  C     C_R   0.242497 0.218035 0.535826 0.074892
C134  C     C_R   0.756763 0.780976 0.462799 0.056677
C135  C     C_R   0.759407 0.217139 0.468454 0.075344
C136  C     C_R   0.240021 0.782872 0.530680 0.052254
C137  C     C_R   0.488496 0.918559 0.546894 -0.250825
C138  C     C_R   0.511441 0.081451 0.453047 -0.257742
C139  C     C_R   0.511383 0.918731 0.452847 -0.251987
C140  C     C_R   0.488533 0.081278 0.547076 -0.258043
C141  C     C_R   0.988681 0.418559 0.547061 -0.251139
C142  C     C_R   0.011274 0.581451 0.452890 -0.257350
C143  C     C_R   0.011208 0.418731 0.452683 -0.251785
C144  C     C_R   0.988730 0.581278 0.547255 -0.257647
C145  C     C_R   0.499957 0.898320 0.499872 -0.044963
C146  C     C_R   0.499994 0.101687 0.500083 -0.042578
C147  C     C_R   0.999960 0.398320 0.499873 -0.044977
C148  C     C_R   0.000005 0.601687 0.500090 -0.042604
C149  C     C_R   0.511498 0.959302 0.452577 0.107361
C150  C     C_R   0.488394 0.040709 0.547323 0.109220
C151  C     C_R   0.488369 0.959118 0.547221 0.106552
C152  C     C_R   0.511535 0.040892 0.452688 0.109067
C153  C     C_R   0.011323 0.459301 0.452413 0.107030
C154  C     C_R   0.988596 0.540708 0.547506 0.109134
C155  C     C_R   0.988562 0.459118 0.547396 0.106486
C156  C     C_R   0.011366 0.540892 0.452529 0.108832
C157  C     C_R   0.139760 0.750647 0.499352 0.788883
C158  C     C_R   0.860245 0.249315 0.500726 0.795333
C159  C     C_R   0.860049 0.750456 0.500369 0.792882
C160  C     C_R   0.139777 0.249337 0.499290 0.801136
C161  C     C_R   0.639743 0.250637 0.499331 0.788466
C162  C     C_R   0.360312 0.749289 0.500834 0.795019
C163  C     C_R   0.360075 0.250477 0.500404 0.793174
C164  C     C_R   0.639747 0.749303 0.499252 0.802194
C165  C     C_R   0.499938 0.979598 0.499922 0.062310
C166  C     C_R   0.499954 0.020412 0.499976 0.063437
C167  C     C_R   0.999949 0.479598 0.499930 0.062387
C168  C     C_R   0.999969 0.520412 0.499987 0.063380
C169  C     C_R   0.522993 0.979885 0.405823 -0.209224
C170  C     C_R   0.476887 0.020126 0.594066 -0.214806
C171  C     C_R   0.476876 0.979507 0.594016 -0.208431
C172  C     C_R   0.523014 0.020505 0.405881 -0.214760
C173  C     C_R   0.022636 0.479885 0.405491 -0.208590
C174  C     C_R   0.977275 0.520126 0.594420 -0.214270
C175  C     C_R   0.977258 0.479507 0.594366 -0.208727
C176  C     C_R   0.022660 0.520505 0.405551 -0.213778
C177  C     C_R   0.894537 0.750264 0.288621 0.845762
C178  C     C_R   0.105394 0.249649 0.711453 0.838994
C179  C     C_R   0.105540 0.750218 0.711411 0.853061
C180  C     C_R   0.894637 0.249675 0.288536 0.838508
C181  C     C_R   0.394533 0.250276 0.288628 0.846671
C182  C     C_R   0.605393 0.749640 0.711452 0.838820
C183  C     C_R   0.605511 0.250233 0.711409 0.852489
C184  C     C_R   0.394626 0.749685 0.288544 0.839443
C185  C     C_R   0.379796 0.739980 0.163765 0.495325
C186  C     C_R   0.621469 0.259158 0.836404 0.495673
C187  C     C_R   0.619674 0.742284 0.836436 0.496474
C188  C     C_R   0.379344 0.257471 0.163624 0.495758
C189  C     C_R   0.879956 0.240382 0.163704 0.493513
C190  C     C_R   0.121698 0.759686 0.836395 0.495097
C191  C     C_R   0.119735 0.242087 0.836445 0.496062
C192  C     C_R   0.879553 0.756710 0.163601 0.496910
C193  C     C_R   0.353736 0.747806 0.203906 -0.156184
C194  C     C_R   0.647135 0.251456 0.796026 -0.151759
C195  C     C_R   0.646277 0.747607 0.796155 -0.160191
C196  C     C_R   0.353118 0.251649 0.204007 -0.152272
C197  C     C_R   0.853785 0.247750 0.203887 -0.156684
C198  C     C_R   0.147203 0.751441 0.796032 -0.150959
C199  C     C_R   0.146289 0.247677 0.796165 -0.159713
C200  C     C_R   0.853173 0.751581 0.203985 -0.153694
C201  C     C_R   0.287673 0.752938 0.163724 -0.295909
C202  C     C_R   0.713039 0.245854 0.835876 -0.316993
C203  C     C_R   0.712756 0.750080 0.836286 -0.297943
C204  C     C_R   0.286911 0.247761 0.164117 -0.314896
C205  C     C_R   0.787628 0.252386 0.163725 -0.296232
C206  C     C_R   0.213008 0.745362 0.835897 -0.317495
C207  C     C_R   0.212718 0.250594 0.836310 -0.296937
C208  C     C_R   0.786900 0.748152 0.164068 -0.315012
C209  C     C_R   0.246539 0.753506 0.082777 0.098057
C210  C     C_R   0.754176 0.244998 0.916859 0.097635
C211  C     C_R   0.753997 0.750553 0.917231 0.095909
C212  C     C_R   0.245735 0.246952 0.083178 0.097349
C213  C     C_R   0.746467 0.252967 0.082784 0.097632
C214  C     C_R   0.254155 0.744578 0.916898 0.098890
C215  C     C_R   0.253923 0.251203 0.917256 0.096333
C216  C     C_R   0.745737 0.747226 0.083141 0.097042
C217  C     C_R   0.271576 0.748151 0.040942 -0.046075
C218  C     C_R   0.729174 0.249888 0.958890 -0.046001
C219  C     C_R   0.728574 0.747917 0.959127 -0.045331
C220  C     C_R   0.271031 0.250004 0.041157 -0.045209
C221  C     C_R   0.771561 0.248059 0.040920 -0.046151
C222  C     C_R   0.229230 0.749950 0.958907 -0.045670
C223  C     C_R   0.228537 0.248150 0.959148 -0.045395
C224  C     C_R   0.771097 0.749756 0.041134 -0.045426
H1    H     H_    0.691136 0.852138 0.241659 0.176478
H2    H     H_    0.312919 0.146621 0.759270 0.163545
H3    H     H_    0.307026 0.869396 0.732364 0.179665
H4    H     H_    0.687789 0.130727 0.263786 0.164214
H5    H     H_    0.190129 0.351247 0.240228 0.177253
H6    H     H_    0.814959 0.647722 0.761088 0.163269
H7    H     H_    0.810727 0.370929 0.731544 0.180811
H8    H     H_    0.189201 0.624269 0.275233 0.163968
H9    H     H_    0.667755 0.802115 0.434050 0.181316
H10   H     H_    0.331044 0.196668 0.563179 0.165467
H11   H     H_    0.326966 0.805266 0.554615 0.179857
H12   H     H_    0.672843 0.194691 0.445588 0.162699
H13   H     H_    0.167891 0.302261 0.434243 0.181514
H14   H     H_    0.830982 0.696570 0.563030 0.165206
H15   H     H_    0.827737 0.304800 0.556218 0.181566
H16   H     H_    0.174281 0.694097 0.448556 0.161947
H17   H     H_    0.479554 0.902804 0.583192 0.172721
H18   H     H_    0.520404 0.097206 0.416765 0.165352
H19   H     H_    0.520330 0.903104 0.416548 0.171593
H20   H     H_    0.479588 0.096906 0.583378 0.165696
H21   H     H_    0.979880 0.402805 0.583491 0.172733
H22   H     H_    0.020091 0.597206 0.416474 0.165274
H23   H     H_    0.020009 0.403104 0.416250 0.171715
H24   H     H_    0.979931 0.596904 0.583691 0.165901
H25   H     H_    0.531950 0.964577 0.369277 0.154833
H26   H     H_    0.467925 0.035435 0.630607 0.150224
H27   H     H_    0.467907 0.964045 0.630524 0.155917
H28   H     H_    0.531987 0.035967 0.369377 0.149852
H29   H     H_    0.031448 0.464577 0.368812 0.155160
H30   H     H_    0.968460 0.535434 0.631097 0.150604
H31   H     H_    0.968432 0.464045 0.631005 0.155985
H32   H     H_    0.031490 0.535967 0.368915 0.150208
H33   H     H_    0.268575 0.757763 0.196041 0.170118
H34   H     H_    0.731976 0.241118 0.803356 0.153051
H35   H     H_    0.732235 0.752934 0.803954 0.174344
H36   H     H_    0.267721 0.244184 0.196609 0.150155
H37   H     H_    0.768459 0.256862 0.196052 0.170906
H38   H     H_    0.231842 0.740247 0.803374 0.152519
H39   H     H_    0.232157 0.253719 0.803976 0.173839
H40   H     H_    0.767637 0.744980 0.196541 0.150684
H41   H     H_    0.162365 0.761587 0.077312 0.148594
H42   H     H_    0.838429 0.235572 0.922590 0.149199
H43   H     H_    0.838919 0.753864 0.922794 0.150516
H44   H     H_    0.160982 0.241114 0.077616 0.151616
H45   H     H_    0.662198 0.260286 0.077382 0.148859
H46   H     H_    0.338326 0.734609 0.922715 0.149389
H47   H     H_    0.338748 0.255444 0.922801 0.150189
H48   H     H_    0.660865 0.742105 0.077530 0.152287
H49   H     H_    0.500094 0.598694 0.400913 0.162449
H50   H     H_    0.499228 0.401580 0.598139 0.169406
H51   H     H_    0.499602 0.598048 0.598678 0.173317
H52   H     H_    0.500390 0.401763 0.400825 0.172198
H53   H     H_    0.019621 0.098480 0.416786 0.172941
H54   H     H_    0.983726 0.901446 0.585495 0.170715
H55   H     H_    0.984135 0.098022 0.586297 0.173990
H56   H     H_    0.015780 0.901707 0.413002 0.178007
H57   H     H_    0.845740 0.899077 0.465056 0.154031
H58   H     H_    0.145293 0.105281 0.539627 0.139397
H59   H     H_    0.145167 0.902611 0.499576 0.160970
H60   H     H_    0.861631 0.102048 0.490366 0.137144
H61   H     H_    0.347147 0.398163 0.462145 0.152573
H62   H     H_    0.647909 0.604548 0.543205 0.130565
H63   H     H_    0.641603 0.400708 0.501037 0.136814
H64   H     H_    0.365421 0.601031 0.503194 0.137052
H65   H     H_    0.837855 0.843115 0.530432 0.159036
H66   H     H_    0.154355 0.159150 0.472023 0.146346
H67   H     H_    0.151435 0.840341 0.449931 0.156433
H68   H     H_    0.853558 0.162274 0.543096 0.143943
H69   H     H_    0.338919 0.343052 0.529040 0.157780
H70   H     H_    0.655147 0.658419 0.473629 0.148314
H71   H     H_    0.648532 0.338687 0.451706 0.150719
H72   H     H_    0.357184 0.663665 0.549400 0.144882
O1    O     O_3   0.000000 0.750000 0.500000 -0.477931
O2    O     O_3   0.000000 0.250000 0.500000 -0.493556
O3    O     O_3   0.500000 0.250000 0.500000 -0.477749
O4    O     O_3   0.500000 0.750000 0.500000 -0.493705
O5    O     O_R   0.992580 0.662560 0.545880 -0.652186
O6    O     O_R   0.007420 0.337440 0.454120 -0.649057
O7    O     O_R   0.007420 0.662560 0.454120 -0.652094
O8    O     O_R   0.992580 0.337440 0.545880 -0.648018
O9    O     O_R   0.492580 0.162560 0.545880 -0.652265
O10   O     O_R   0.507420 0.837440 0.454120 -0.649157
O11   O     O_R   0.507420 0.162560 0.454120 -0.651920
O12   O     O_R   0.492580 0.837440 0.545880 -0.647969
O13   O     O_R   0.053270 0.837440 0.545830 -0.636797
O14   O     O_R   0.946730 0.162560 0.454170 -0.636802
O15   O     O_R   0.946730 0.837440 0.454170 -0.653816
O16   O     O_R   0.053270 0.162560 0.545830 -0.656956
O17   O     O_R   0.553270 0.337440 0.545830 -0.636129
O18   O     O_R   0.446730 0.662560 0.454170 -0.635789
O19   O     O_R   0.446730 0.337440 0.454170 -0.654962
O20   O     O_R   0.553270 0.662560 0.545830 -0.656879
O21   O     O_R   0.092900 0.727070 0.454160 -0.645742
O22   O     O_R   0.907100 0.272930 0.545840 -0.633082
O23   O     O_R   0.907100 0.727070 0.545840 -0.648095
O24   O     O_R   0.092900 0.272930 0.454160 -0.634356
O25   O     O_R   0.592900 0.227070 0.454160 -0.646781
O26   O     O_R   0.407100 0.772930 0.545840 -0.633161
O27   O     O_R   0.407100 0.227070 0.545840 -0.647908
O28   O     O_R   0.592900 0.772930 0.454160 -0.634455
O29   O     O_R   0.861280 0.772920 0.454160 -0.651458
O30   O     O_R   0.138720 0.227080 0.545840 -0.634150
O31   O     O_R   0.138720 0.772920 0.545840 -0.654884
O32   O     O_R   0.861280 0.227080 0.454160 -0.631830
O33   O     O_R   0.361280 0.272920 0.454160 -0.651091
O34   O     O_R   0.638720 0.727080 0.545840 -0.634195
O35   O     O_R   0.638720 0.272920 0.545840 -0.652577
O36   O     O_R   0.361280 0.727080 0.454160 -0.631085
O37   O     O_R   0.942960 0.727070 0.325140 -0.611904
O38   O     O_R   0.057040 0.272930 0.674860 -0.599235
O39   O     O_R   0.057040 0.727070 0.674860 -0.616415
O40   O     O_R   0.942960 0.272930 0.325140 -0.603070
O41   O     O_R   0.442960 0.227070 0.325140 -0.613013
O42   O     O_R   0.557040 0.772930 0.674860 -0.599165
O43   O     O_R   0.557040 0.227070 0.674860 -0.616112
O44   O     O_R   0.442960 0.772930 0.325140 -0.603636
O45   O     O_R   0.882220 0.772920 0.325130 -0.666193
O46   O     O_R   0.117780 0.227080 0.674870 -0.654744
O47   O     O_R   0.117780 0.772920 0.674870 -0.665350
O48   O     O_R   0.882220 0.227080 0.325130 -0.650671
O49   O     O_R   0.382220 0.272920 0.325130 -0.666983
O50   O     O_R   0.617780 0.727080 0.674870 -0.655890
O51   O     O_R   0.617780 0.272920 0.674870 -0.664034
O52   O     O_R   0.382220 0.727080 0.325130 -0.650157
Zn1   Zn    Zn3+2 0.076130 0.782750 0.565500 0.947510
Zn2   Zn    Zn3+2 0.923870 0.217250 0.434500 0.966431
Zn3   Zn    Zn3+2 0.923870 0.782750 0.434500 0.942191
Zn4   Zn    Zn3+2 0.076130 0.217250 0.565500 0.955307
Zn5   Zn    Zn3+2 0.576130 0.282750 0.565500 0.948160
Zn6   Zn    Zn3+2 0.423870 0.717250 0.434500 0.968011
Zn7   Zn    Zn3+2 0.423870 0.282750 0.434500 0.940230
Zn8   Zn    Zn3+2 0.576130 0.717250 0.565500 0.953720
Zn9   Zn    Zn3+2 0.010650 0.717250 0.434510 0.965317
Zn10  Zn    Zn3+2 0.989350 0.282750 0.565490 0.993480
Zn11  Zn    Zn3+2 0.989350 0.717250 0.565490 0.966136
Zn12  Zn    Zn3+2 0.010650 0.282750 0.434510 0.991841
Zn13  Zn    Zn3+2 0.510650 0.217250 0.434510 0.964446
Zn14  Zn    Zn3+2 0.489350 0.782750 0.565490 0.993135
Zn15  Zn    Zn3+2 0.489350 0.217250 0.565490 0.966246
Zn16  Zn    Zn3+2 0.510650 0.782750 0.434510 0.991904
O53   O     O_3   0.445611 0.734008 0.205216 -0.540334
C225  C     C_3   0.460684 0.695405 0.234128 -0.241124
H73   H     H_    0.429048 0.673606 0.187864 0.137701
H74   H     H_    0.458027 0.691606 0.283276 0.124422
H75   H     H_    0.511176 0.689137 0.257214 0.178606
O54   O     O_3   0.556714 0.268353 0.794695 -0.577662
C226  C     C_3   0.548849 0.308581 0.777163 -0.307233
H76   H     H_    0.563194 0.316466 0.739499 0.141504
H77   H     H_    0.576433 0.326511 0.831166 0.161231
H78   H     H_    0.497010 0.315977 0.744296 0.181005
O55   O     O_3   0.553454 0.738519 0.795083 -0.537220
C227  C     C_3   0.535220 0.699914 0.767098 -0.241846
H79   H     H_    0.564388 0.677989 0.814224 0.136111
H80   H     H_    0.538594 0.694266 0.718966 0.119252
H81   H     H_    0.483970 0.695756 0.742964 0.178849
O56   O     O_3   0.444810 0.264559 0.205239 -0.575500
C228  C     C_3   0.456442 0.304534 0.224666 -0.296218
H82   H     H_    0.443353 0.313143 0.263193 0.137201
H83   H     H_    0.430185 0.323178 0.171537 0.161125
H84   H     H_    0.508831 0.310205 0.257374 0.178564
O57   O     O_3   0.945920 0.235146 0.205058 -0.540307
C229  C     C_3   0.962236 0.196684 0.234608 -0.233526
H85   H     H_    0.931148 0.174589 0.188772 0.135319
H86   H     H_    0.959952 0.192750 0.284019 0.121815
H87   H     H_    0.012843 0.191013 0.257510 0.180113
O58   O     O_3   0.057138 0.769400 0.794671 -0.578463
C230  C     C_3   0.050082 0.809619 0.777193 -0.309122
H88   H     H_    0.064557 0.817138 0.739515 0.143295
H89   H     H_    0.078024 0.827537 0.831204 0.162368
H90   H     H_    0.998394 0.817416 0.744352 0.179460
O59   O     O_3   0.053548 0.238095 0.795076 -0.538117
C231  C     C_3   0.035659 0.199467 0.767130 -0.240229
H91   H     H_    0.064916 0.177591 0.814327 0.136105
H92   H     H_    0.039238 0.193907 0.719136 0.120068
H93   H     H_    0.984397 0.195152 0.742819 0.178492
O60   O     O_3   0.945185 0.763183 0.205181 -0.572077
C232  C     C_3   0.957782 0.803108 0.224830 -0.298388
H94   H     H_    0.945185 0.812020 0.263692 0.135285
H95   H     H_    0.931738 0.821847 0.171836 0.158454
H96   H     H_    0.010254 0.808320 0.257257 0.179392
O61   O     O_3   0.674100 0.788860 0.297679 -0.591204
C233  C     C_3   0.695393 0.764837 0.264252 0.112207
H97   H     H_    0.743176 0.751538 0.310069 0.144498
H98   H     H_    0.698823 0.781609 0.222563 0.136742
C234  C     C_3   0.646955 0.732148 0.219569 -0.818473
H99   H     H_    0.598999 0.744738 0.173249 0.287070
H100  H     H_    0.662677 0.713094 0.192299 0.184949
H101  H     H_    0.643027 0.714387 0.259707 0.259203
O62   O     O_3   0.334832 0.207118 0.698680 -0.608733
C235  C     C_3   0.395634 0.188412 0.745007 -0.016810
H102  H     H_    0.397250 0.161484 0.717170 0.134593
H103  H     H_    0.408069 0.180918 0.802872 0.166783
C236  C     C_3   0.446620 0.216138 0.757405 -0.614113
H104  H     H_    0.446365 0.243541 0.784409 0.281988
H105  H     H_    0.495020 0.202408 0.796407 0.230187
H106  H     H_    0.436670 0.223104 0.700691 0.256501
O63   O     O_3   0.323562 0.800782 0.693007 -0.594271
C237  C     C_3   0.301776 0.777149 0.726512 0.114571
H107  H     H_    0.256837 0.761238 0.680880 0.150958
H108  H     H_    0.292828 0.794918 0.762349 0.142567
C238  C     C_3   0.353303 0.747108 0.779122 -0.805927
H109  H     H_    0.398419 0.762064 0.826475 0.284375
H110  H     H_    0.336643 0.727883 0.805240 0.182110
H111  H     H_    0.363189 0.728966 0.744779 0.260727
O64   O     O_3   0.667514 0.198214 0.308669 -0.605625
C239  C     C_3   0.607299 0.179280 0.271778 -0.012242
H112  H     H_    0.607702 0.157404 0.310529 0.132802
H113  H     H_    0.593462 0.164710 0.217595 0.163143
C240  C     C_3   0.556125 0.209480 0.249596 -0.613447
H114  H     H_    0.553356 0.231464 0.209846 0.277557
H115  H     H_    0.508380 0.195061 0.219587 0.225866
H116  H     H_    0.568243 0.224381 0.302658 0.260541
O65   O     O_3   0.173279 0.288554 0.297728 -0.590870
C241  C     C_3   0.194262 0.264028 0.264578 0.111908
H117  H     H_    0.241952 0.250671 0.310533 0.143636
H118  H     H_    0.197751 0.280388 0.222544 0.136504
C242  C     C_3   0.145511 0.231433 0.220493 -0.817387
H119  H     H_    0.097570 0.244114 0.174393 0.288527
H120  H     H_    0.160760 0.212131 0.193011 0.185402
H121  H     H_    0.141799 0.213925 0.261068 0.258324
O66   O     O_3   0.834974 0.708293 0.698643 -0.609115
C243  C     C_3   0.896231 0.690167 0.745997 -0.016326
H122  H     H_    0.898611 0.662926 0.719518 0.135207
H123  H     H_    0.908705 0.683361 0.804135 0.167032
C244  C     C_3   0.946590 0.718055 0.757259 -0.613481
H124  H     H_    0.945597 0.745765 0.782917 0.280570
H125  H     H_    0.995290 0.704778 0.797007 0.232561
H126  H     H_    0.936619 0.724358 0.700311 0.255982
O67   O     O_3   0.826532 0.301880 0.693171 -0.594448
C245  C     C_3   0.805989 0.277996 0.727784 0.112445
H127  H     H_    0.760950 0.261922 0.682829 0.148716
H128  H     H_    0.797670 0.295638 0.764335 0.142648
C246  C     C_3   0.858132 0.248138 0.779753 -0.798734
H129  H     H_    0.903517 0.263220 0.826168 0.286739
H130  H     H_    0.842578 0.228958 0.807179 0.181208
H131  H     H_    0.867090 0.229947 0.744591 0.260007
O68   O     O_3   0.169244 0.694491 0.312399 -0.604520
C247  C     C_3   0.109090 0.675752 0.277172 -0.008826
H132  H     H_    0.109499 0.655401 0.317981 0.132668
H133  H     H_    0.095475 0.659488 0.224620 0.162430
C248  C     C_3   0.057685 0.706414 0.251632 -0.616176
H134  H     H_    0.054674 0.726756 0.209434 0.274819
H135  H     H_    0.010040 0.692126 0.223309 0.224575
H136  H     H_    0.069750 0.723182 0.302940 0.261583
O69   O     O_3   0.072011 0.767064 0.923848 -0.572205
C249  C     C_3   0.059059 0.800056 0.951726 0.114896
H137  H     H_    0.086458 0.826147 0.955540 0.121669
H138  H     H_    0.070877 0.794022 0.009684 0.136372
C250  C     C_3   0.987369 0.809472 0.896518 -0.835070
H139  H     H_    0.958745 0.784094 0.892066 0.254143
H140  H     H_    0.976724 0.834856 0.918955 0.199647
H141  H     H_    0.972972 0.816701 0.837746 0.256890
O70   O     O_3   0.926492 0.225426 0.073309 -0.548455
C251  C     C_3   0.931412 0.187757 0.050394 0.116297
H142  H     H_    0.908733 0.186533 0.987103 0.124079
H143  H     H_    0.908344 0.165462 0.063970 0.119012
C252  C     C_3   0.002074 0.177086 0.093784 -0.833280
H144  H     H_    0.027819 0.178721 0.157650 0.261103
H145  H     H_    0.006047 0.146934 0.078428 0.200327
H146  H     H_    0.024930 0.197320 0.076781 0.254364
O71   O     O_3   0.929542 0.758263 0.075771 -0.569069
C253  C     C_3   0.945901 0.790688 0.050129 0.121084
H147  H     H_    0.922314 0.817902 0.049695 0.119586
H148  H     H_    0.932201 0.785512 0.990998 0.135061
C254  C     C_3   0.018642 0.796704 0.104793 -0.831500
H149  H     H_    0.043479 0.770601 0.104076 0.254488
H150  H     H_    0.031723 0.822443 0.085641 0.195505
H151  H     H_    0.035214 0.801754 0.165161 0.260273
O72   O     O_3   0.071902 0.231954 0.926656 -0.547693
C255  C     C_3   0.063221 0.195533 0.950385 0.120767
H152  H     H_    0.085041 0.195321 0.013449 0.122490
H153  H     H_    0.084695 0.171451 0.938308 0.117558
C256  C     C_3   0.991562 0.187471 0.906082 -0.831933
H154  H     H_    0.966920 0.187729 0.842380 0.258556
H155  H     H_    0.984596 0.158437 0.922896 0.199973
H156  H     H_    0.969807 0.209932 0.920716 0.259514
O73   O     O_3   0.571722 0.265703 0.923946 -0.572375
C257  C     C_3   0.558315 0.298427 0.951945 0.114266
H157  H     H_    0.585381 0.324736 0.955895 0.122284
H158  H     H_    0.570175 0.292183 0.009864 0.137120
C258  C     C_3   0.486507 0.307519 0.896741 -0.834468
H159  H     H_    0.458212 0.281961 0.892343 0.254424
H160  H     H_    0.475550 0.332763 0.919145 0.199896
H161  H     H_    0.471997 0.314826 0.837950 0.257022
O74   O     O_3   0.426487 0.725034 0.073608 -0.548253
C259  C     C_3   0.431842 0.687382 0.051052 0.118192
H162  H     H_    0.409476 0.686109 0.987856 0.124083
H163  H     H_    0.408748 0.665023 0.064466 0.121390
C260  C     C_3   0.502657 0.676920 0.095000 -0.830520
H164  H     H_    0.528150 0.678748 0.158798 0.261018
H165  H     H_    0.507008 0.646743 0.080105 0.201377
H166  H     H_    0.525536 0.697162 0.078043 0.253665
O75   O     O_3   0.429291 0.260372 0.075831 -0.570607
C261  C     C_3   0.444744 0.292918 0.049428 0.119206
H167  H     H_    0.420098 0.319866 0.047912 0.121450
H168  H     H_    0.431549 0.287427 0.990634 0.136185
C262  C     C_3   0.517244 0.299887 0.104259 -0.834113
H169  H     H_    0.543145 0.273906 0.105237 0.254474
H170  H     H_    0.529661 0.325453 0.083959 0.197219
H171  H     H_    0.533234 0.305700 0.164165 0.259548
O76   O     O_3   0.571760 0.732830 0.926690 -0.546767
C263  C     C_3   0.562732 0.696488 0.950309 0.120917
H172  H     H_    0.584749 0.696226 0.013436 0.122246
H173  H     H_    0.583790 0.672276 0.937921 0.117527
C264  C     C_3   0.491004 0.688768 0.906221 -0.828674
H174  H     H_    0.466165 0.689220 0.842475 0.259101
H175  H     H_    0.483740 0.659737 0.922740 0.199847
H176  H     H_    0.469700 0.711290 0.921360 0.259217
O77   O     O_3   0.499262 0.540396 0.668139 -0.621261
C265  C     C_3   0.436064 0.539835 0.646616 0.155266
H177  H     H_    0.427789 0.512122 0.666206 0.192574
H178  H     H_    0.398162 0.542992 0.582474 0.107586
C266  C     C_3   0.428548 0.573610 0.686166 -0.877466
H179  H     H_    0.436086 0.601711 0.666965 0.241397
H180  H     H_    0.379237 0.573337 0.670333 0.215812
H181  H     H_    0.464435 0.571022 0.750478 0.262707
O78   O     O_3   0.499986 0.459685 0.330188 -0.594471
C267  C     C_3   0.561194 0.453093 0.347820 0.146552
H182  H     H_    0.601967 0.453681 0.411472 0.087979
H183  H     H_    0.569991 0.475616 0.318186 0.177481
C268  C     C_3   0.561300 0.413534 0.315956 -0.887621
H184  H     H_    0.521945 0.412171 0.252254 0.265343
H185  H     H_    0.608243 0.408940 0.326498 0.216657
H186  H     H_    0.554318 0.389842 0.345347 0.233169
O79   O     O_3   0.511202 0.540270 0.337708 -0.580866
C269  C     C_3   0.574971 0.553097 0.372333 0.085899
H187  H     H_    0.610654 0.528979 0.402673 0.108396
H188  H     H_    0.589490 0.576601 0.415347 0.130860
C270  C     C_3   0.578477 0.569421 0.309308 -0.829378
H189  H     H_    0.544722 0.594397 0.279684 0.249183
H190  H     H_    0.628301 0.579644 0.335808 0.204609
H191  H     H_    0.565285 0.546503 0.265615 0.255942
O80   O     O_3   0.502918 0.459312 0.670952 -0.615099
C271  C     C_3   0.567627 0.454457 0.737309 0.120841
H192  H     H_    0.590486 0.483197 0.763836 0.172085
H193  H     H_    0.596422 0.438895 0.722394 0.131841
C272  C     C_3   0.569058 0.430143 0.797430 -0.847768
H194  H     H_    0.546955 0.401152 0.772623 0.243346
H195  H     H_    0.619747 0.425952 0.849864 0.208143
H196  H     H_    0.541759 0.445149 0.814803 0.262697
O81   O     O_3   0.975316 0.040349 0.649147 -0.619139
C273  C     C_3   0.910211 0.038666 0.620963 0.148665
H197  H     H_    0.900593 0.010575 0.638023 0.195058
H198  H     H_    0.875657 0.041832 0.556331 0.109766
C274  C     C_3   0.897533 0.071716 0.657024 -0.870272
H199  H     H_    0.907051 0.100211 0.641156 0.243940
H200  H     H_    0.846423 0.070879 0.635156 0.215899
H201  H     H_    0.929457 0.068743 0.721507 0.260957
O82   O     O_3   0.033949 0.958764 0.358568 -0.635695
C275  C     C_3   0.988145 0.967320 0.278276 0.175922
H202  H     H_    0.009503 0.988396 0.260472 0.187469
H203  H     H_    0.942080 0.979864 0.262560 0.126269
C276  C     C_3   0.972125 0.929998 0.231746 -0.915480
H204  H     H_    0.951023 0.908181 0.248657 0.251021
H205  H     H_    0.936712 0.936281 0.168474 0.218445
H206  H     H_    0.016560 0.917653 0.243157 0.262695
O83   O     O_3   0.039964 0.041109 0.364274 -0.628811
C277  C     C_3   0.107686 0.041050 0.406014 0.110576
H207  H     H_    0.124283 0.012045 0.401573 0.180857
H208  H     H_    0.133540 0.048259 0.468813 0.128382
C278  C     C_3   0.125920 0.071524 0.371079 -0.855322
H209  H     H_    0.109691 0.100799 0.374650 0.245765
H210  H     H_    0.179125 0.071991 0.403715 0.216365
H211  H     H_    0.102743 0.064543 0.309028 0.255834
O84   O     O_3   0.978663 0.959035 0.651902 -0.618428
C279  C     C_3   0.040732 0.954569 0.723423 0.123397
H212  H     H_    0.060705 0.983358 0.752186 0.173952
H213  H     H_    0.074711 0.940412 0.715069 0.130420
C280  C     C_3   0.035881 0.928750 0.777153 -0.855708
H214  H     H_    0.016428 0.899704 0.749981 0.243946
H215  H     H_    0.084439 0.924876 0.833594 0.206279
H216  H     H_    0.003379 0.942361 0.788144 0.263350
O85   O     O_3   0.772058 0.909782 0.308085 -0.608218
C281  C     C_3   0.835643 0.916794 0.333438 0.100298
H217  H     H_    0.866746 0.890310 0.357231 0.169832
H218  H     H_    0.858176 0.939938 0.378734 0.163228
C282  C     C_3   0.833251 0.930403 0.264572 -0.843075
H219  H     H_    0.800914 0.955981 0.235985 0.268442
H220  H     H_    0.882466 0.938556 0.285223 0.215331
H221  H     H_    0.815099 0.906523 0.221261 0.255831
O86   O     O_3   0.225386 0.093121 0.697445 -0.615460
C283  C     C_3   0.161767 0.086384 0.672140 0.101381
H222  H     H_    0.137355 0.065176 0.623210 0.157307
H223  H     H_    0.132916 0.113711 0.653777 0.176027
C284  C     C_3   0.164237 0.069285 0.739120 -0.832100
H224  H     H_    0.184782 0.091021 0.786768 0.255939
H225  H     H_    0.114786 0.061493 0.718544 0.231228
H226  H     H_    0.194820 0.042753 0.762331 0.264184
O87   O     O_3   0.228558 0.926337 0.653215 -0.607184
C285  C     C_3   0.167123 0.942676 0.619245 0.114899
H227  H     H_    0.132414 0.920471 0.611565 0.162279
H228  H     H_    0.148485 0.956488 0.562508 0.150623
C286  C     C_3   0.173499 0.974333 0.672733 -0.839037
H229  H     H_    0.207742 0.997066 0.681426 0.282164
H230  H     H_    0.125924 0.988082 0.646638 0.205613
H231  H     H_    0.191577 0.961635 0.730098 0.251116
O88   O     O_3   0.773411 0.077229 0.337272 -0.613414
C287  C     C_3   0.835354 0.061907 0.370654 0.119830
H232  H     H_    0.854821 0.047713 0.427295 0.137963
H233  H     H_    0.868927 0.084885 0.378050 0.169264
C288  C     C_3   0.829763 0.030781 0.316819 -0.812635
H234  H     H_    0.811653 0.043841 0.259714 0.255391
H235  H     H_    0.877589 0.017332 0.343018 0.207343
H236  H     H_    0.795708 0.007784 0.307602 0.275420
O89   O     O_3   0.272074 0.408544 0.305363 -0.609466
C289  C     C_3   0.334687 0.413020 0.326018 0.077482
H237  H     H_    0.361308 0.384868 0.341618 0.169529
H238  H     H_    0.362879 0.433536 0.375876 0.166602
C290  C     C_3   0.329298 0.429749 0.256845 -0.795874
H239  H     H_    0.301804 0.457487 0.237326 0.266047
H240  H     H_    0.378180 0.435319 0.273490 0.250222
H241  H     H_    0.303980 0.408694 0.207731 0.252165
O90   O     O_3   0.728862 0.593344 0.700534 -0.615321
C291  C     C_3   0.666174 0.588152 0.679233 0.100560
H242  H     H_    0.638674 0.567609 0.629345 0.159569
H243  H     H_    0.639196 0.616152 0.663694 0.171850
C292  C     C_3   0.671403 0.570846 0.747925 -0.832180
H244  H     H_    0.696933 0.591530 0.797667 0.257532
H245  H     H_    0.622479 0.565281 0.731146 0.242448
H246  H     H_    0.698570 0.542993 0.766536 0.261748
O91   O     O_3   0.730086 0.426902 0.652721 -0.607781
C293  C     C_3   0.669277 0.444180 0.618705 0.113640
H247  H     H_    0.634377 0.422842 0.613062 0.160541
H248  H     H_    0.650127 0.456859 0.560907 0.133532
C294  C     C_3   0.677548 0.477246 0.670915 -0.832495
H249  H     H_    0.712207 0.499071 0.677712 0.284428
H250  H     H_    0.630678 0.491865 0.644951 0.201114
H251  H     H_    0.696009 0.465709 0.729210 0.246411
O92   O     O_3   0.275120 0.571493 0.355206 -0.613200
C295  C     C_3   0.336814 0.557275 0.384478 0.109391
H252  H     H_    0.361338 0.545411 0.444198 0.138436
H253  H     H_    0.366946 0.580277 0.384231 0.169506
C296  C     C_3   0.328774 0.524071 0.332695 -0.782453
H254  H     H_    0.305388 0.534897 0.272514 0.257872
H255  H     H_    0.376443 0.511538 0.355519 0.212492
H256  H     H_    0.298353 0.500799 0.331270 0.274725

loop_
_geom_bond_atom_site_label_1
_geom_bond_atom_site_label_2
_ccdc_geom_bond_type
C230  H90   S    
C164  O28   A    
C291  H242  S    
O7    Zn9   S    
O38   Zn10  S    
C238  H109  S    
C1    O5    A    
C293  C294  S    
C81   C134  S    
O9    Zn15  S    
C165  C166  A    
C61   C69   A    
O69   C249  S    
C250  H141  S    
C271  C272  S    
C45   C57   A    
C23   O71   S    
O2    Zn4   S    
C122  C130  A    
C231  H92   S    
C288  H234  S    
O64   C239  S    
C267  H182  S    
C21   O69   S    
C6    C25   A    
C195  C203  A    
C115  C136  A    
C178  O46   A    
C189  C197  A    
C184  C193  S    
C153  C173  A    
C184  O52   A    
C268  H186  S    
C193  C201  A    
C30   C38   A    
C285  C286  S    
C65   H61   S    
C246  H129  S    
C169  H25   S    
C80   O18   A    
C287  H232  S    
C16   C212  A    
C214  C222  A    
C235  C236  S    
C280  H215  S    
C197  C205  A    
C91   O63   S    
C5    C217  A    
C155  C167  A    
C244  H125  S    
C177  C200  S    
O1    Zn3   S    
C277  H207  S    
C245  H128  S    
C196  C204  A    
C61   C105  A    
C227  H81   S    
C292  H246  S    
C97   C105  A    
C206  C214  A    
C90   O62   S    
C34   H54   S    
C94   O66   S    
C117  H13   S    
C200  C208  A    
O84   C279  S    
O10   Zn16  S    
C96   O68   S    
O26   Zn14  S    
C9    C189  A    
C41   C49   A    
C37   C80   S    
C203  H35   S    
C182  O50   A    
C273  H198  S    
C10   C21   A    
C12   C192  A    
C294  H251  S    
C257  H158  S    
C60   O84   S    
C115  C123  A    
C51   C52   A    
C62   H58   S    
C74   H70   S    
C233  H98   S    
C17   H45   S    
C93   C101  A    
C281  H217  S    
C242  H121  S    
C19   H47   S    
C20   C28   A    
C291  C292  S    
O20   Zn8   S    
O80   C271  S    
O82   C275  S    
C185  O53   S    
C7    C28   A    
C31   C37   A    
C140  H20   S    
C25   O73   S    
C112  O92   S    
C229  H86   S    
O66   C243  S    
C216  C224  A    
C275  H202  S    
C32   H52   S    
C12   C23   A    
C284  H224  S    
C240  H116  S    
C204  C212  A    
C277  C278  S    
C3    O9    A    
C13   C21   A    
C278  H209  S    
O3    Zn15  S    
C66   C110  A    
C283  H223  S    
C290  H239  S    
C72   C84   A    
C281  H218  S    
O46   Zn4   S    
C264  H175  S    
C63   C71   A    
C96   C104  A    
O90   C291  S    
C33   C47   A    
C246  H131  S    
C295  H253  S    
C229  H87   S    
C34   C48   A    
C27   O75   S    
C180  O48   A    
C207  H39   S    
C124  C161  S    
C44   C50   A    
O33   Zn7   S    
C271  H192  S    
C243  H123  S    
O2    Zn2   S    
O3    Zn7   S    
C281  C282  S    
O2    Zn12  S    
C183  O51   A    
O55   C227  S    
C261  H167  S    
C62   C106  A    
O4    Zn14  S    
C83   C91   A    
C286  H229  S    
C6    C186  A    
C125  C133  A    
C98   C106  A    
C163  O27   A    
C17   C25   A    
C89   O61   S    
C80   O20   A    
C209  C217  A    
C118  C129  A    
O88   C287  S    
C272  H195  S    
C150  C170  A    
C280  H214  S    
O44   Zn16  S    
O43   Zn15  S    
C19   C215  A    
C192  C200  A    
C144  C154  A    
C253  H147  S    
C70   C82   A    
C239  H113  S    
O14   Zn2   S    
C143  C153  A    
C141  C147  A    
C110  O90   S    
C47   C59   A    
C48   C52   A    
C126  C134  A    
C102  H6    S    
C40   C77   S    
C142  C156  A    
C234  H99   S    
O53   C225  S    
O36   Zn6   S    
C4    O10   A    
O56   C228  S    
C288  H235  S    
C158  O32   A    
C178  C199  S    
C84   C135  S    
O63   C237  S    
C171  H27   S    
O19   Zn7   S    
O30   Zn4   S    
O35   Zn5   S    
C254  H149  S    
C248  H136  S    
C261  C262  S    
C232  H94   S    
C125  C160  S    
C109  O89   S    
C116  C135  A    
O81   C273  S    
C62   C70   A    
O78   C267  S    
O49   Zn7   S    
C149  C169  A    
C70   H66   S    
C7    C187  A    
C269  H187  S    
C152  C172  A    
C279  H213  S    
C170  C171  A    
C156  C168  A    
C150  C166  A    
C183  C194  S    
C151  C171  A    
C108  O88   S    
C124  C132  A    
C253  C254  S    
C186  O54   S    
C68   C112  A    
C270  H189  S    
C174  C175  A    
C290  H241  S    
C259  H163  S    
O5    Zn11  S    
C219  C224  A    
C241  H117  S    
C85   C93   A    
C33   C39   A    
C12   C224  A    
C260  H164  S    
C265  C266  S    
C248  H134  S    
C228  H84   S    
C141  H21   S    
C36   C46   A    
C245  H127  S    
C92   O64   S    
C139  H19   S    
C243  C244  S    
O32   Zn2   S    
C162  O26   A    
C58   O82   S    
O42   Zn14  S    
O12   Zn14  S    
C180  O40   A    
O73   C257  S    
C46   C58   A    
O15   Zn3   S    
C203  C211  A    
C18   C214  A    
O2    Zn10  S    
C201  C209  A    
C236  H105  S    
C95   C103  A    
C128  C157  S    
C64   C108  A    
C71   C83   A    
O4    Zn16  S    
C103  H7    S    
C286  H231  S    
C255  H153  S    
C100  C108  A    
C154  C174  A    
O13   Zn1   S    
C39   C78   S    
C13   C209  A    
C66   H62   S    
C149  C165  A    
C269  C270  S    
C181  O41   A    
C173  H29   S    
C104  C112  A    
C10   C222  A    
C249  H137  S    
C293  H248  S    
C142  H22   S    
C2    C147  S    
C151  C165  A    
C191  O59   S    
C161  O35   A    
O51   Zn5   S    
C87   C95   A    
C256  H155  S    
C289  C290  S    
C285  H228  S    
O71   C253  S    
C122  C163  S    
C262  H170  S    
C64   H60   S    
C225  H74   S    
C226  H78   S    
O17   Zn5   S    
C245  C246  S    
C252  H144  S    
C272  H194  S    
C234  H101  S    
C53   O77   S    
C254  H150  S    
C225  H75   S    
C41   C53   A    
C83   C136  S    
C238  H110  S    
C42   C50   A    
C29   C43   A    
C43   C55   A    
C77   O15   A    
C4    O12   A    
C78   O16   A    
C237  H107  S    
C263  H173  S    
C67   C75   A    
C227  H80   S    
C159  O23   A    
C18   H46   S    
C284  H226  S    
C160  O24   A    
C218  C221  A    
C53   C56   A    
C75   C87   A    
C230  H89   S    
C273  H197  S    
C101  H5    S    
C160  O30   A    
C31   C41   A    
C267  C268  S    
O29   Zn3   S    
C265  H177  S    
C93   O65   S    
C186  C194  A    
O1    Zn11  S    
O60   C232  S    
C249  C250  S    
C240  H114  S    
C152  C166  A    
O31   Zn1   S    
C179  C198  S    
C266  H180  S    
C211  C219  A    
C14   C22   A    
C282  H219  S    
C137  H17   S    
O89   C289  S    
C267  H183  S    
C247  C248  S    
O27   Zn15  S    
O83   C277  S    
C164  O34   A    
C138  C146  A    
C4    C145  S    
C248  H135  S    
C11   C191  A    
C158  O22   A    
C251  H142  S    
C201  H33   S    
C182  O42   A    
C113  C121  A    
C114  H10   S    
C237  C238  S    
C244  H124  S    
C277  H208  S    
C182  C195  S    
C84   C92   A    
C88   C131  S    
C157  O31   A    
O72   C255  S    
C117  C125  A    
C220  C223  A    
O65   C241  S    
C292  H245  S    
C273  C274  S    
C119  C127  A    
C97   H1    S    
C88   C96   A    
O62   C235  S    
C177  O45   A    
C120  C131  A    
C278  H210  S    
O37   Zn9   S    
C262  H171  S    
C18   C26   A    
C5    C185  A    
C95   O67   S    
C30   C44   A    
C232  H96   S    
C115  H11   S    
C296  H254  S    
O34   Zn8   S    
C8    C188  A    
C113  H9    S    
C294  H250  S    
O86   C283  S    
C266  H181  S    
C20   C216  A    
C137  C145  A    
C177  O37   A    
C15   H43   S    
C128  C136  A    
O74   C259  S    
C179  O39   A    
C274  H200  S    
C38   C79   S    
C101  C109  A    
C226  H76   S    
C194  C202  A    
C159  O29   A    
C264  H176  S    
C170  H26   S    
C103  C111  A    
O50   Zn8   S    
C100  H4    S    
C225  H73   S    
C36   H56   S    
C75   H71   S    
C28   O76   S    
C192  O60   S    
C296  H255  S    
C6    C218  A    
C213  C221  A    
C174  H30   S    
C162  O36   A    
C276  H205  S    
O18   Zn6   S    
C291  H243  S    
C126  C159  S    
C275  C276  S    
O75   C261  S    
C81   C89   A    
C118  H14   S    
C205  C213  A    
O77   C265  S    
C153  C167  A    
C270  H190  S    
C295  C296  S    
O39   Zn11  S    
C79   O19   A    
O25   Zn13  S    
O54   C226  S    
C271  H193  S    
C260  H165  S    
O41   Zn13  S    
C55   O79   S    
O52   Zn6   S    
C231  H91   S    
C199  C207  A    
C140  C146  A    
C167  C168  A    
C188  O56   S    
C247  H132  S    
C111  O91   S    
C57   C60   A    
C261  H168  S    
C138  C152  A    
C58   C59   A    
O85   C281  S    
C275  H203  S    
C139  C149  A    
C241  C242  S    
C35   C39   A    
O79   C269  S    
C268  H185  S    
C85   C130  S    
C286  H230  S    
C44   C56   A    
C212  C220  A    
C272  H196  S    
C116  H12   S    
C207  C215  A    
C10   C190  A    
C253  H148  S    
C127  C158  S    
C65   C109  A    
C35   H55   S    
C120  H16   S    
C178  O38   A    
C67   C111  A    
C184  O44   A    
C113  C134  A    
C235  H102  S    
C265  H178  S    
C102  C110  A    
C250  H140  S    
C31   H51   S    
C11   C223  A    
C296  H256  S    
C190  C198  A    
O57   C229  S    
C155  C175  A    
C217  C222  A    
O24   Zn12  S    
C257  H157  S    
C156  C176  A    
C116  C124  A    
C123  C131  A    
C283  C284  S    
C141  C155  A    
O3    Zn5   S    
C121  C129  A    
C274  H201  S    
C13   H41   S    
O61   C233  S    
C47   C51   A    
O59   C231  S    
C120  C128  A    
C175  H31   S    
O58   C230  S    
C99   C107  A    
C247  H133  S    
C208  H40   S    
C260  H166  S    
C82   C133  S    
C229  H85   S    
C42   C54   A    
C269  H188  S    
C204  H36   S    
C279  C280  S    
O48   Zn2   S    
O47   Zn1   S    
C143  H23   S    
O28   Zn16  S    
C107  O87   S    
C72   H68   S    
C283  H222  S    
C22   O70   S    
C289  H238  S    
C290  H240  S    
C69   C81   A    
C5    C26   A    
C9    C221  A    
C29   C37   A    
C228  H83   S    
C8    C27   A    
C32   C42   A    
C295  H252  S    
C163  O33   A    
C187  O55   S    
C79   O17   A    
C61   H57   S    
O22   Zn10  S    
C257  C258  S    
C66   C74   A    
C243  H122  S    
O45   Zn3   S    
C54   C55   A    
C235  H103  S    
C231  H93   S    
C189  O57   S    
C56   O80   S    
C144  C148  A    
C119  H15   S    
C236  H104  S    
C274  H199  S    
C63   H59   S    
C230  H88   S    
C33   H53   S    
C143  C147  A    
C206  H38   S    
C255  C256  S    
C258  H159  S    
O70   C251  S    
C205  H37   S    
O40   Zn12  S    
C34   C40   A    
C278  H211  S    
C191  C199  A    
C228  H82   S    
C76   H72   S    
C202  H34   S    
O3    Zn13  S    
C249  H138  S    
C9    C22   A    
C104  H8    S    
C105  O85   S    
C45   C51   A    
C46   C52   A    
C11   C24   A    
C65   C73   A    
C73   H69   S    
C256  H154  S    
C246  H130  S    
C181  C196  S    
C239  H112  S    
C15   C211  A    
C180  C197  S    
C154  C168  A    
C252  H145  S    
C289  H237  S    
O4    Zn6   S    
O1    Zn1   S    
O1    Zn9   S    
C226  H77   S    
C233  C234  S    
C268  H184  S    
C67   H63   S    
C68   C76   A    
C32   C38   A    
C236  H106  S    
C282  H220  S    
C86   C94   A    
C262  H169  S    
C76   C88   A    
C138  H18   S    
C288  H236  S    
C7    C219  A    
C244  H126  S    
C15   C23   A    
C161  O25   A    
C208  C216  A    
C68   H64   S    
C237  H108  S    
C263  C264  S    
C190  O58   S    
O67   C245  S    
C71   H67   S    
C202  C210  A    
C17   C213  A    
C232  H95   S    
C48   C60   A    
C287  H233  S    
C282  H221  S    
C251  C252  S    
C14   C210  A    
C142  C148  A    
C36   C40   A    
O23   Zn11  S    
C258  H160  S    
C123  C162  S    
C279  H212  S    
C43   C49   A    
C259  C260  S    
C250  H139  S    
C121  C164  S    
O6    Zn12  S    
C252  H146  S    
C172  H28   S    
C2    O6    A    
C24   O72   S    
C89   C97   A    
C26   O74   S    
C242  H120  S    
C87   C132  S    
O21   Zn9   S    
O68   C247  S    
C259  H162  S    
C8    C220  A    
C198  C206  A    
C176  H32   S    
C78   O14   A    
C239  C240  S    
O11   Zn13  S    
O8    Zn10  S    
C266  H179  S    
C264  H174  S    
C119  C132  A    
C82   C90   A    
C74   C86   A    
C54   O78   S    
C251  H143  S    
C117  C130  A    
C287  C288  S    
C16   H44   S    
C59   O83   S    
C276  H206  S    
C49   C50   A    
C144  H24   S    
C169  C172  A    
C234  H100  S    
C63   C107  A    
C140  C150  A    
C280  H216  S    
C19   C27   A    
C227  H79   S    
C92   C100  A    
C292  H244  S    
C73   C85   A    
C173  C176  A    
C179  O47   A    
O16   Zn4   S    
C20   H48   S    
C255  H152  S    
C139  C145  A    
C258  H161  S    
C29   H49   S    
C187  C195  A    
C77   O13   A    
C137  C151  A    
C185  C193  A    
C270  H191  S    
C215  C223  A    
C86   C129  S    
C30   H50   S    
C293  H247  S    
C240  H115  S    
C294  H249  S    
C210  C218  A    
O87   C285  S    
C99   H3    S    
C256  H156  S    
C91   C99   A    
C284  H225  S    
O92   C295  S    
O4    Zn8   S    
C242  H119  S    
O91   C293  S    
C57   O81   S    
C238  H111  S    
C114  C133  A    
C69   H65   S    
C157  O21   A    
C64   C72   A    
C181  O49   A    
C285  H227  S    
C127  C135  A    
C254  H151  S    
C241  H118  S    
C233  H97   S    
C106  O86   S    
C183  O43   A    
C114  C122  A    
C188  C196  A    
C3    C146  S    
C16   C24   A    
C276  H204  S    
C3    O11   A    
C263  H172  S    
C1    O7    A    
C1    C148  S    
C118  C126  A    
C2    O8    A    
O76   C263  S    
C90   C98   A    
C14   H42   S    
C94   C102  A    
C98   H2    S    
C35   C45   A    
