data_mof_unit_47989.cif
_audit_creation_date              2012-12-11T15:34:10-0500
_audit_creation_method            fapswitch 2.2
_symmetry_space_group_name_H-M    P1
_symmetry_Int_Tables_number       1
_space_group_crystal_system       triclinic
_cell_length_a                    15.057999
_cell_length_b                    15.061881
_cell_length_c                    34.957954
_cell_angle_alpha                 90.529451
_cell_angle_beta                  89.992912
_cell_angle_gamma                 60.054647
_cell_volume                      6869.68729094

loop_
_atom_site_label
_atom_site_type_symbol
_atom_type_description
_atom_site_fract_x
_atom_site_fract_y
_atom_site_fract_z
_atom_type_partial_charge
C1    C     C_R   0.302676 0.608181 0.555790 0.550031
C2    C     C_R   0.653864 0.663970 0.668778 0.033294
C3    C     C_R   0.270270 0.636691 0.266228 -0.161522
C4    C     C_R   0.197516 0.628811 0.288871 0.025579
C5    C     C_R   0.119681 0.617775 0.271388 0.416203
C6    C     C_R   0.112229 0.619466 0.231659 -0.000675
C7    C     C_R   0.182486 0.631688 0.209119 0.037367
C8    C     C_R   0.207862 0.556176 0.353386 -0.035777
C9    C     C_R   0.229766 0.553208 0.392228 0.325051
C10   C     C_R   0.232767 0.712449 0.386287 0.338737
C11   C     C_R   0.211212 0.714478 0.347529 -0.080781
C12   C     C_R   0.203081 0.634300 0.330627 -0.057903
C13   C     C_R   0.563988 0.730664 0.648733 0.399477
C14   C     C_R   0.248048 0.628557 0.408697 0.024506
C15   C     C_R   0.736000 0.025439 0.943309 0.537327
C16   C     C_R   0.745794 0.722750 0.945090 0.561631
C17   C     C_R   0.038370 0.733925 0.948233 0.570963
C18   C     C_R   0.723019 0.038887 0.052851 0.568797
C19   C     C_R   0.733282 0.734473 0.054787 0.582134
C20   C     C_R   0.027902 0.744518 0.057879 0.580391
C21   C     C_R   0.553219 0.710433 0.610530 -0.082215
C22   C     C_R   0.667785 0.677746 0.788271 0.356331
C23   C     C_R   0.660527 0.671875 0.710717 0.345818
C24   C     C_R   0.755682 0.600273 0.849522 -0.120630
C25   C     C_R   0.774529 0.609166 0.887978 0.389357
C26   C     C_R   0.626995 0.780527 0.889727 -0.141189
C27   C     C_R   0.608126 0.771657 0.851272 0.377117
C28   C     C_R   0.675349 0.682828 0.830282 -0.026420
C29   C     C_R   0.610721 0.588545 0.555178 0.545016
C30   C     C_R   0.712985 0.701596 0.907992 -0.037649
C31   C     C_R   0.722999 0.073128 0.905544 0.012913
C32   C     C_R   0.632554 0.103236 0.884823 -0.104312
C33   C     C_R   0.628243 0.125401 0.846067 -0.103091
C34   C     C_R   0.713781 0.118853 0.827445 0.054406
C35   C     C_R   0.801579 0.096282 0.848587 -0.052844
C36   C     C_R   0.806232 0.073509 0.887418 -0.108249
C37   C     C_R   0.737584 0.196666 0.768086 0.402121
C38   C     C_R   0.731175 0.207618 0.728404 0.005439
C39   C     C_R   0.701698 0.149267 0.705675 0.005729
C40   C     C_R   0.590324 0.300453 0.553557 0.544288
C41   C     C_R   0.680861 0.078172 0.723168 -0.127641
C42   C     C_R   0.686490 0.067686 0.762772 -0.166932
C43   C     C_R   0.713392 0.127804 0.785549 0.020109
C44   C     C_R   0.590039 0.185956 0.648745 -0.149063
C45   C     C_R   0.563021 0.221606 0.611536 -0.127701
C46   C     C_R   0.723823 0.219940 0.604074 -0.075513
C47   C     C_R   0.751163 0.183876 0.641296 0.388393
C48   C     C_R   0.682598 0.170250 0.664422 0.034045
C49   C     C_R   0.627937 0.242661 0.589365 -0.037937
C50   C     C_R   0.092395 0.696918 0.911029 0.022360
C51   C     C_R   0.300254 0.610205 0.445951 0.588775
C52   C     C_R   0.119676 0.759421 0.889997 0.333968
C53   C     C_R   0.142800 0.740630 0.851183 -0.083932
C54   C     C_R   0.141389 0.658485 0.832770 -0.096192
C55   C     C_R   0.125360 0.589680 0.854227 -0.091616
C56   C     C_R   0.100834 0.608511 0.893102 0.344280
C57   C     C_R   0.220307 0.558994 0.772656 -0.044448
C58   C     C_R   0.230387 0.554529 0.732854 0.397305
C59   C     C_R   0.167157 0.641297 0.710777 0.057625
C60   C     C_R   0.092009 0.730830 0.729038 -0.098078
C61   C     C_R   0.083197 0.735490 0.768737 -0.114595
C62   C     C_R   0.607879 0.589613 0.445171 0.564417
C63   C     C_R   0.148428 0.650244 0.790810 -0.023854
C64   C     C_R   0.199862 0.718816 0.653437 0.399595
C65   C     C_R   0.230550 0.711711 0.615401 -0.065453
C66   C     C_R   0.227298 0.553288 0.607831 -0.139771
C67   C     C_R   0.195709 0.560717 0.645825 -0.119893
C68   C     C_R   0.185154 0.641561 0.669281 0.050673
C69   C     C_R   0.248327 0.626984 0.592666 -0.040741
C70   C     C_R   0.690882 0.718655 0.090689 -0.040675
C71   C     C_R   0.607107 0.801911 0.109304 0.319463
C72   C     C_R   0.581023 0.792049 0.146668 -0.144925
C73   C     C_R   0.587891 0.302946 0.443685 0.560662
C74   C     C_R   0.637113 0.699495 0.166156 -0.096741
C75   C     C_R   0.715400 0.614088 0.146726 0.426408
C76   C     C_R   0.741648 0.623337 0.109284 0.390899
C77   C     C_R   0.617434 0.612496 0.223572 0.008246
C78   C     C_R   0.616458 0.602684 0.263184 0.438454
C79   C     C_R   0.618913 0.676487 0.287376 0.067948
C80   C     C_R   0.617504 0.762263 0.271608 -0.141517
C81   C     C_R   0.619312 0.771548 0.232007 -0.113759
C82   C     C_R   0.621655 0.695541 0.207684 0.005533
C83   C     C_R   0.545849 0.733668 0.352632 -0.197158
C84   C     C_R   0.631454 0.623816 0.591735 -0.039348
C85   C     C_R   0.544855 0.713761 0.391461 -0.183649
C86   C     C_R   0.707666 0.556074 0.384003 0.427084
C87   C     C_R   0.707905 0.575848 0.345104 0.492151
C88   C     C_R   0.625109 0.662713 0.329028 -0.005678
C89   C     C_R   0.623488 0.622683 0.407285 -0.047727
C90   C     C_R   0.699253 0.101538 0.088067 -0.046621
C91   C     C_R   0.770726 0.126178 0.103673 0.436474
C92   C     C_R   0.758213 0.164140 0.141027 0.451453
C93   C     C_R   0.674123 0.178454 0.163116 -0.040846
C94   C     C_R   0.597979 0.163579 0.146303 -0.186804
C95   C     C_R   0.724395 0.562995 0.610651 -0.139126
C96   C     C_R   0.610339 0.125545 0.109072 -0.168470
C97   C     C_R   0.581586 0.268484 0.222960 -0.108525
C98   C     C_R   0.576126 0.274454 0.262750 -0.129063
C99   C     C_R   0.660608 0.206688 0.284832 0.040876
C100  C     C_R   0.751795 0.134587 0.266566 0.406073
C101  C     C_R   0.757105 0.128890 0.226762 0.006430
C102  C     C_R   0.671824 0.195027 0.204719 0.006428
C103  C     C_R   0.725847 0.220072 0.348886 0.025544
C104  C     C_R   0.710370 0.240181 0.388068 0.395733
C105  C     C_R   0.550848 0.237402 0.383838 -0.167090
C106  C     C_R   0.735477 0.582897 0.648768 -0.167986
C107  C     C_R   0.566682 0.217366 0.344745 -0.147834
C108  C     C_R   0.652268 0.212397 0.326808 -0.000611
C109  C     C_R   0.619946 0.253828 0.405616 0.009921
C110  C     C_R   0.086729 0.706427 0.093627 -0.108413
C111  C     C_R   0.109856 0.610116 0.108141 0.360023
C112  C     C_R   0.147591 0.582595 0.145123 0.359482
C113  C     C_R   0.163692 0.650093 0.167994 -0.103916
C114  C     C_R   0.149061 0.742119 0.152584 0.361371
C115  C     C_R   0.111224 0.770065 0.115672 0.366887
C116  C     C_R   0.262871 0.638018 0.226554 -0.059569
Cr1   Cr    Cr6+3 0.421670 0.426920 0.499620 1.096576
Cr2   Cr    Cr6+3 0.427030 0.651190 0.500980 1.079122
Cr3   Cr    Cr6+3 0.651280 0.421870 0.499380 1.139090
Cr4   Cr    Cr6+3 0.910810 0.908010 0.001130 1.185841
Cr5   Cr    Cr6+3 0.682800 0.909890 0.998370 1.106983
Cr6   Cr    Cr6+3 0.908370 0.682300 0.002180 1.238008
H1    H     H_    0.786592 0.496369 0.596743 0.168560
H2    H     H_    0.877112 0.050238 0.902579 0.182170
H3    H     H_    0.745088 0.264802 0.715616 0.190571
H4    H     H_    0.559342 0.144043 0.830232 0.147371
H5    H     H_    0.488663 0.238297 0.601015 0.162890
H6    H     H_    0.868461 0.090589 0.834610 0.177702
H7    H     H_    0.775931 0.234279 0.587409 0.164640
H8    H     H_    0.183153 0.501322 0.657328 0.173764
H9    H     H_    0.157851 0.792855 0.835050 0.184027
H10   H     H_    0.025872 0.806018 0.782321 0.134268
H11   H     H_    0.246536 0.769454 0.604554 0.178378
H12   H     H_    0.239892 0.487337 0.590927 0.154854
H13   H     H_    0.519421 0.858261 0.161022 0.185379
H14   H     H_    0.623153 0.835989 0.220404 0.138273
H15   H     H_    0.505656 0.331653 0.276353 0.141312
H16   H     H_    0.532503 0.174245 0.162879 0.169986
H17   H     H_    0.317923 0.646961 0.209496 0.171047
H18   H     H_    0.200659 0.494227 0.340663 0.204447
N1    N     N_R   0.743706 0.599259 0.768019 -0.221899
N2    N     N_R   0.739975 0.596213 0.730079 -0.227287
N3    N     N_R   0.584646 0.750475 0.730949 -0.099290
N4    N     N_R   0.588450 0.753596 0.768925 -0.094060
O1    O     O_R   0.502070 0.323090 0.541280 -0.509880
O2    O     O_R   0.520720 0.641670 0.461580 -0.512033
O3    O     O_R   0.674120 0.502090 0.457500 -0.406366
O4    O     O_R   0.640110 0.338380 0.459630 -0.424365
O5    O     O_3   0.499990 0.499990 0.499990 -0.289678
O6    O     O_R   0.017640 0.822070 0.960410 -0.446487
O7    O     O_R   0.822000 0.989470 0.960340 -0.496062
O8    O     O_R   0.666920 0.007430 0.955290 -0.512134
O9    O     O_R   0.694410 0.812480 0.959650 -0.529311
O10   O     O_R   0.831550 0.656950 0.958960 -0.393426
O11   O     O_R   0.998590 0.685540 0.963930 -0.442844
O12   O     O_R   0.338340 0.520690 0.539540 -0.496082
O13   O     O_R   0.008220 0.831200 0.045060 -0.416677
O14   O     O_R   0.813270 0.997930 0.038810 -0.428407
O15   O     O_R   0.657500 0.016560 0.039940 -0.483304
O16   O     O_R   0.685680 0.820940 0.038120 -0.440881
O17   O     O_R   0.822130 0.666070 0.043610 -0.419654
O18   O     O_R   0.989860 0.694000 0.042400 -0.445014
O19   O     O_3   0.833990 0.833400 0.000560 -0.334098
O20   O     O_R   0.324760 0.674070 0.543580 -0.511745
O21   O     O_R   0.522400 0.640310 0.540110 -0.507371
O22   O     O_R   0.675940 0.500630 0.542210 -0.506912
O23   O     O_R   0.641790 0.337020 0.538150 -0.503821
O24   O     O_R   0.500260 0.324550 0.456580 -0.504342
O25   O     O_R   0.336660 0.522040 0.461020 -0.444209
O26   O     O_R   0.322940 0.675540 0.458880 -0.441586
F1    F     F_    0.843229 0.165064 0.655023 -0.610112
F2    F     F_    0.762306 0.256803 0.789485 -0.600844
H19   H     H_    0.658433 0.032085 0.706222 0.146627
H20   H     H_    0.668945 0.013140 0.775747 0.150873
H21   H     H_    0.535718 0.176413 0.666020 0.157068
H22   H     H_    0.481035 0.759260 0.596449 0.165817
F3    F     F_    0.117403 0.842970 0.906050 -0.580457
F4    F     F_    0.078785 0.543836 0.912267 -0.547403
F5    F     F_    0.305500 0.467473 0.716189 -0.628219
H23   H     H_    0.271082 0.492647 0.789390 0.153171
H24   H     H_    0.041589 0.797932 0.712585 0.176738
F6    F     F_    0.192292 0.797096 0.675436 -0.584678
F7    F     F_    0.856565 0.529349 0.904693 -0.531057
H25   H     H_    0.125455 0.524987 0.840381 0.172644
F8    F     F_    0.554030 0.894944 0.092533 -0.581674
F9    F     F_    0.820565 0.539962 0.092141 -0.487322
F10   F     F_    0.787384 0.508378 0.322786 -0.501695
F11   F     F_    0.613951 0.520871 0.277941 -0.606772
H26   H     H_    0.616824 0.554314 0.205313 0.185786
H27   H     H_    0.618739 0.819991 0.289957 0.144065
H28   H     H_    0.806483 0.531397 0.663026 0.167699
H29   H     H_    0.482038 0.801618 0.340606 0.164827
H30   H     H_    0.479345 0.766858 0.408550 0.200523
F12   F     F_    0.772211 0.523624 0.164894 -0.516238
F13   F     F_    0.786818 0.468605 0.398104 -0.507691
F14   F     F_    0.855477 0.108579 0.083722 -0.500320
H31   H     H_    0.553489 0.108452 0.097785 0.219558
H32   H     H_    0.509955 0.209796 0.328188 0.144334
H33   H     H_    0.514993 0.319947 0.206408 0.149511
F15   F     F_    0.483840 0.811728 0.666368 -0.571312
F16   F     F_    0.830485 0.182634 0.156228 -0.508334
F17   F     F_    0.833868 0.066631 0.287137 -0.597869
H34   H     H_    0.826493 0.069817 0.213154 0.193614
H35   H     H_    0.792508 0.216279 0.335459 0.223068
F18   F     F_    0.780718 0.252715 0.408051 -0.543671
H36   H     H_    0.480954 0.246631 0.396414 0.187821
F19   F     F_    0.091916 0.544110 0.087353 -0.500783
F20   F     F_    0.092615 0.862498 0.102709 -0.483896
H37   H     H_    0.205127 0.776658 0.330269 0.182016
H38   H     H_    0.807160 0.529854 0.834434 0.199402
H39   H     H_    0.331858 0.643462 0.279345 0.145829
F21   F     F_    0.164580 0.491721 0.159221 -0.536622
F22   F     F_    0.047893 0.611105 0.292695 -0.579977
H40   H     H_    0.048778 0.616118 0.218528 0.188377
F23   F     F_    0.239503 0.472964 0.412897 -0.591049
F24   F     F_    0.163397 0.809054 0.174352 -0.541640
F25   F     F_    0.245846 0.788971 0.400890 -0.588117
H41   H     H_    0.577339 0.852099 0.904517 0.182897
F26   F     F_    0.527652 0.852668 0.834403 -0.576869
H42   H     H_    0.567003 0.104061 0.897962 0.163877

loop_
_geom_bond_atom_site_label_1
_geom_bond_atom_site_label_2
_ccdc_geom_bond_type
Cr3   O5    S    
C44   C48   A    
C87   C88   A    
C75   C76   A    
C27   F26   S    
C101  C102  A    
C13   F15   S    
C111  F19   S    
C26   H41   S    
C41   C42   A    
C97   H33   S    
C35   C36   A    
C44   H21   S    
C55   C56   A    
C38   H3    S    
C46   H7    S    
C15   O7    A    
C97   C98   A    
C57   C58   A    
C105  H36   S    
C39   C41   A    
C56   F4    S    
C77   C78   A    
C9    F23   S    
C99   C108  S    
C105  C107  A    
C46   C49   A    
Cr2   O20   S    
C26   C27   A    
C93   C94   A    
Cr6   O17   S    
Cr5   O9    S    
C40   O1    A    
C19   O16   A    
C64   C68   A    
C92   C93   A    
C36   H2    S    
C71   F8    S    
C62   O2    A    
C3    C116  A    
C31   C36   A    
C19   O17   A    
C5    C6    A    
C59   C68   S    
C66   C69   A    
C54   C63   S    
Cr2   O26   S    
Cr1   O24   S    
Cr3   O3    S    
C40   C49   S    
Cr5   O19   S    
C62   C89   S    
C60   H24   S    
Cr1   O1    S    
C34   C35   A    
Cr6   O11   S    
C29   O21   A    
C61   C63   A    
C2    C13   A    
C112  F21   S    
C52   F3    S    
C15   O8    A    
C40   O23   A    
C105  C109  A    
C18   O15   A    
C103  C104  A    
Cr4   O19   S    
C66   H12   S    
C100  F17   S    
C14   C51   S    
C1    O20   A    
C8    C9    A    
Cr5   O16   S    
C50   C52   A    
C55   H25   S    
C23   N2    A    
C103  C108  A    
C53   H9    S    
C4    C12   S    
C97   C102  A    
C61   H10   S    
C8    C12   A    
C116  H17   S    
C64   F6    S    
C66   C67   A    
C20   O18   A    
C59   C60   A    
C22   C28   S    
C115  F20   S    
Cr4   O14   S    
C65   H11   S    
Cr6   O10   S    
C23   N3    A    
C106  H28   S    
C74   C82   S    
C73   O24   A    
C79   C88   S    
C57   C63   A    
C51   O26   A    
C3    H39   S    
C96   H31   S    
C74   C75   A    
C98   H15   S    
C67   C68   A    
C18   C90   S    
C47   C48   A    
C114  F24   S    
C83   H29   S    
Cr2   O2    S    
C24   C25   A    
C29   C84   S    
C72   C74   A    
C42   H20   S    
C91   C92   A    
C24   H38   S    
C78   C79   A    
C80   C81   A    
C72   H13   S    
C87   F10   S    
C73   O4    A    
Cr3   O4    S    
C53   C54   A    
C15   C31   S    
C2    C106  A    
C1    C69   S    
Cr6   O19   S    
C110  C111  A    
C33   H4    S    
C60   C61   A    
C84   C95   A    
C7    C116  A    
C37   C43   A    
Cr2   O5    S    
C94   C96   A    
C9    C14   A    
C37   C38   A    
C18   O14   A    
C95   C106  A    
C86   F13   S    
C57   H23   S    
C99   C100  A    
C6    H40   S    
C21   C84   A    
C45   C49   A    
C107  C108  A    
C21   H22   S    
C5    F22   S    
Cr1   O12   S    
C33   C34   A    
C13   C21   A    
C32   H42   S    
C104  F18   S    
C90   C96   A    
Cr3   O22   S    
C58   F5    S    
C25   F7    S    
C20   C110  S    
C83   C85   A    
C26   C30   A    
C20   O13   A    
C101  H34   S    
Cr4   O13   S    
C94   H16   S    
C37   F2    S    
C67   H8    S    
C78   F11   S    
C42   C43   A    
C70   C76   A    
C3    C4    A    
C17   O11   A    
Cr3   O23   S    
C27   C28   A    
C70   C71   A    
C76   F9    S    
C44   C45   A    
C81   H14   S    
C113  C114  A    
C95   H1    S    
C25   C30   A    
C41   H19   S    
C54   C55   A    
Cr4   O7    S    
C85   C89   A    
C111  C112  A    
C86   C87   A    
C93   C102  S    
C80   H27   S    
C31   C32   A    
C34   C43   S    
C24   C28   A    
C4    C5    A    
C16   O9    A    
C86   C89   A    
C17   C50   S    
C107  H32   S    
C47   F1    S    
C11   C12   A    
C114  C115  A    
C6    C7    A    
Cr2   O21   S    
Cr4   O6    S    
Cr6   O18   S    
Cr5   O8    S    
C8    H18   S    
C77   H26   S    
C32   C33   A    
C7    C113  S    
C52   C53   A    
N3    N4    A    
C58   C59   A    
C1    O12   A    
C71   C72   A    
C103  H35   S    
N1    N2    A    
C64   C65   A    
C16   O10   A    
C91   F14   S    
C85   H30   S    
C90   C91   A    
C38   C39   A    
C77   C82   A    
C45   H5    S    
C65   C69   A    
C62   O3    A    
C22   N1    A    
C100  C101  A    
C83   C88   A    
C112  C113  A    
C73   C109  S    
C35   H6    S    
C50   C56   A    
C46   C47   A    
C10   C11   A    
C79   C80   A    
C75   F12   S    
Cr1   O25   S    
C10   F25   S    
C81   C82   A    
C98   C99   A    
Cr5   O15   S    
C22   N4    A    
C2    C23   S    
C104  C109  A    
C19   C70   S    
Cr1   O5    S    
C16   C30   S    
C110  C115  A    
C11   H37   S    
C92   F16   S    
C29   O22   A    
C51   O25   A    
C10   C14   A    
C39   C48   S    
C17   O6    A    
