data_mof_unit_26315.cif
_audit_creation_date              2012-12-11T18:13:30-0500
_audit_creation_method            fapswitch 2.2
_symmetry_space_group_name_H-M    P1
_symmetry_Int_Tables_number       1
_space_group_crystal_system       triclinic
_cell_length_a                    8.226567
_cell_length_b                    12.680649
_cell_length_c                    18.68433
_cell_angle_alpha                 99.396537
_cell_angle_beta                  91.238254
_cell_angle_gamma                 98.620771
_cell_volume                      1899.1143573

loop_
_atom_site_label
_atom_site_type_symbol
_atom_type_description
_atom_site_fract_x
_atom_site_fract_y
_atom_site_fract_z
_atom_type_partial_charge
Ba1   Ba    Ba6+2 0.852780 0.548340 0.465070 1.651448
Ba2   Ba    Ba6+2 0.337060 0.451750 0.534940 1.643686
C1    C     C_3   0.615677 0.918790 0.283185 -0.385405
C2    C     C_R   0.892849 0.392010 0.095286 0.032838
C3    C     C_R   0.728934 0.349100 0.072904 -0.091602
C4    C     C_3   0.082159 0.781085 0.265843 0.311722
C5    C     C_R   0.668160 0.354979 0.003450 -0.090386
C6    C     C_R   0.770342 0.403329 0.954774 0.031466
C7    C     C_R   0.934604 0.447790 0.976709 0.012766
C8    C     C_R   0.710882 0.406181 0.884340 -0.109637
C9    C     C_R   0.813877 0.450972 0.833921 -0.042961
C10   C     C_R   0.977359 0.500048 0.856612 -0.006097
C11   C     C_R   0.037058 0.497788 0.928248 -0.008971
C12   C     C_3   0.666186 0.819006 0.307878 0.305428
C13   C     C_R   0.759666 0.446020 0.760977 -0.007637
C14   C     C_R   0.868106 0.486778 0.711788 -0.297023
C15   C     C_R   0.025555 0.542539 0.733845 0.048235
C16   C     C_3   0.023238 0.819864 0.197847 -0.426452
C17   C     C_R   0.081501 0.550634 0.807864 -0.046977
C18   C     C_R   0.160682 0.485208 0.069420 -0.007837
C19   C     C_R   0.221279 0.481335 0.140636 -0.013471
C20   C     C_R   0.114044 0.436679 0.190618 -0.050047
C21   C     C_R   0.953347 0.387013 0.165327 -0.044462
C22   C     C_R   0.239133 0.604818 0.834614 -0.040602
C23   C     C_3   0.459123 0.265727 0.313203 0.311836
C24   C     C_R   0.301748 0.596435 0.903805 0.035637
C25   C     C_R   0.200620 0.542829 0.950901 0.006155
C26   C     C_R   0.263220 0.534988 0.020914 0.011222
C27   C     C_R   0.465870 0.639030 0.926134 -0.083391
C28   C     C_3   0.238069 0.789378 0.622529 0.275368
C29   C     C_R   0.529122 0.628467 0.994287 -0.089034
C30   C     C_R   0.428409 0.577531 0.042359 0.028835
C31   C     C_R   0.387530 0.525170 0.162259 -0.049712
C32   C     C_R   0.490168 0.570174 0.111718 -0.094301
C33   C     C_R   0.443386 0.527955 0.234986 0.075201
C34   C     C_3   0.439180 0.223938 0.231945 -0.398563
C35   C     C_R   0.334533 0.488324 0.284351 -0.216562
C36   C     C_R   0.170596 0.445100 0.264331 0.047330
C37   C     C_R   0.765194 0.183111 0.530734 -0.279544
C38   C     C_R   0.425854 0.809272 0.474911 -0.280027
C39   C     C_R   0.399234 0.986419 0.451073 -0.105007
C40   C     C_3   0.247446 0.911431 0.639569 -0.339645
C41   C     C_R   0.334142 0.878397 0.447886 0.056536
C42   C     C_R   0.577423 0.849298 0.511733 0.044827
C43   C     C_R   0.642142 0.961398 0.519940 -0.062567
C44   C     C_R   0.552336 0.029919 0.487226 -0.075320
C45   C     C_3   0.063485 0.238410 0.736017 0.367843
C46   C     C_R   0.616664 0.140501 0.492328 0.048426
C47   C     C_R   0.857129 0.116798 0.561181 -0.012576
C48   C     C_R   0.794073 0.007148 0.558056 -0.088233
C49   C     C_3   0.960241 0.212386 0.382696 0.268125
C50   C     C_3   0.977777 0.093573 0.370053 -0.334942
C51   C     C_3   0.730202 0.705935 0.682630 0.314858
C52   C     C_3   0.754509 0.744031 0.764228 -0.406966
C53   C     C_2   0.239516 0.738499 0.250448 0.403074
C54   C     C_3   0.083180 0.213892 0.812466 -0.367178
C55   C     C_3   0.559647 0.179273 0.702816 0.348447
C56   C     C_3   0.611836 0.100863 0.749067 -0.417015
C57   C     C_R   0.996070 0.442049 0.047256 0.007916
H1    H     H_    0.790406 0.840936 0.334840 0.068029
H2    H     H_    0.845443 0.681298 0.661280 0.015733
H3    H     H_    0.628970 0.636066 0.672276 0.065687
H4    H     H_    0.624288 0.985623 0.330160 0.090097
H5    H     H_    0.861106 0.810268 0.776144 0.128809
H6    H     H_    0.777768 0.676606 0.792024 0.057291
H7    H     H_    0.642315 0.774295 0.785825 0.117151
H8    H     H_    0.579124 0.795690 0.348765 0.077729
H9    H     H_    0.487175 0.901581 0.260667 0.132313
H10   H     H_    0.338975 0.285238 0.332754 0.018000
H11   H     H_    0.553512 0.339674 0.322701 0.041446
H12   H     H_    0.326476 0.943987 0.689335 0.116545
H13   H     H_    0.343376 0.150868 0.220854 0.131003
H14   H     H_    0.401658 0.286770 0.202980 0.045978
H15   H     H_    0.557621 0.202721 0.211132 0.117407
H16   H     H_    0.695927 0.945647 0.240651 0.112896
H17   H     H_    0.988857 0.750056 0.153071 0.088261
H18   H     H_    0.142616 0.316398 0.732899 0.091781
H19   H     H_    0.932918 0.246205 0.725781 -0.075359
H20   H     H_    0.214390 0.211106 0.825887 0.149369
H21   H     H_    0.040577 0.277614 0.852266 0.071097
H22   H     H_    0.008939 0.134655 0.816661 0.111142
H23   H     H_    0.300241 0.949277 0.594254 0.075750
H24   H     H_    0.670528 0.213668 0.676523 -0.054554
H25   H     H_    0.469747 0.134175 0.659226 0.077353
H26   H     H_    0.706345 0.144565 0.791136 0.113477
H27   H     H_    0.664102 0.035547 0.714420 0.094417
H28   H     H_    0.988330 0.715699 0.278194 0.102036
H29   H     H_    0.504636 0.064543 0.776684 0.129122
H30   H     H_    0.647135 0.311507 0.109323 0.059543
H31   H     H_    0.541071 0.321198 0.987686 0.072012
H32   H     H_    0.826062 0.479491 0.655678 0.067726
H33   H     H_    0.584223 0.371539 0.869312 0.108550
H34   H     H_    0.122397 0.932381 0.648514 0.139260
H35   H     H_    0.872143 0.345243 0.199770 0.093605
H36   H     H_    0.317864 0.650480 0.801285 0.097422
H37   H     H_    0.546292 0.679269 0.890444 0.062410
H38   H     H_    0.656708 0.661257 0.009710 0.072484
H39   H     H_    0.618363 0.601570 0.125998 0.109313
H40   H     H_    0.376937 0.495241 0.340414 0.062005
H41   H     H_    0.326532 0.035356 0.426096 0.109052
H42   H     H_    0.866712 0.959145 0.584240 0.105769
H43   H     H_    0.814478 0.267759 0.533147 0.060750
H44   H     H_    0.374929 0.724528 0.470399 0.085535
H45   H     H_    0.831391 0.220762 0.392749 0.006517
H46   H     H_    0.915080 0.860868 0.208966 0.156400
H47   H     H_    0.121244 0.879011 0.179950 0.101644
H48   H     H_    0.361956 0.769539 0.611241 0.009238
H49   H     H_    0.152614 0.758432 0.574344 0.064210
H50   H     H_    0.289747 0.733082 0.196924 -0.006679
H51   H     H_    0.040444 0.252605 0.430908 0.079327
H52   H     H_    0.914801 0.052368 0.317826 0.123037
H53   H     H_    0.923899 0.054257 0.414626 0.087108
H54   H     H_    0.109784 0.085586 0.367144 0.139795
O1    O     O_2   0.873090 0.425890 0.325140 -0.471658
O2    O     O_2   0.195144 0.121512 0.552130 -0.483992
O3    O     O_3   0.111045 0.154283 0.686243 -0.596998
O4    O     O_3   0.122420 0.434370 0.414380 -0.491940
O5    O     O_3   0.578370 0.633800 0.536380 -0.488560
O6    O     O_2   0.341510 0.231850 0.465510 -0.471474
O7    O     O_3   0.508854 0.185156 0.347815 -0.646715
O8    O     O_2   0.420417 0.453773 0.757033 -0.496940
O9    O     O_3   0.483459 0.256947 0.746897 -0.595071
O10   O     O_3   0.659500 0.627100 0.368810 -0.481398
O11   O     O_2   0.788496 0.555982 0.243684 -0.521436
O12   O     O_3   0.691269 0.791775 0.650689 -0.641615
O13   O     O_3   0.002238 0.253340 0.319479 -0.642432
O14   O     O_3   0.667558 0.736519 0.247317 -0.611567
O15   O     O_2   0.848200 0.768190 0.534530 -0.473251
O16   O     O_3   0.081160 0.685950 0.404810 -0.457653
O17   O     O_2   0.001427 0.881542 0.455555 -0.508779
O18   O     O_2   0.312763 0.708799 0.298632 -0.649751
O19   O     O_3   0.104862 0.868792 0.323782 -0.630052
O20   O     O_2   0.316610 0.574140 0.674900 -0.471138
O21   O     O_3   0.067290 0.565720 0.585630 -0.496623
O22   O     O_3   0.530210 0.372990 0.631200 -0.466051
O23   O     O_3   0.183411 0.746656 0.683519 -0.639705
O24   O     O_3   0.611340 0.366290 0.463630 -0.477992
O25   O     O_3   0.108550 0.314140 0.595200 -0.484871
P1    P     P_3+3 0.041040 0.394770 0.336330 0.981439
P2    P     P_3+3 0.672880 0.754030 0.556100 0.966268
P3    P     P_3+3 0.126997 0.826752 0.408497 0.982629
P4    P     P_3+3 0.148670 0.605320 0.663680 0.970243
P5    P     P_3+3 0.066852 0.175460 0.598128 0.951168
P6    P     P_3+3 0.640964 0.608446 0.274066 0.967279
P7    P     P_3+3 0.522657 0.229905 0.441725 0.933914
P8    P     P_3+3 0.549331 0.385036 0.725075 0.949607

loop_
_geom_bond_atom_site_label_1
_geom_bond_atom_site_label_2
_ccdc_geom_bond_type
C56   H26   S    
C28   H48   S    
C40   H34   S    
C1    H9    S    
C40   H23   S    
Ba1   O15   S    
C4    C53   S    
C32   H39   S    
C16   H47   S    
Ba2   O5    S    
C5    C6    A    
C52   H6    S    
C51   C52   S    
O20   P4    D    
Ba2   O21   S    
C54   H20   S    
O24   P7    S    
C33   C35   A    
C22   C24   A    
Ba1   O16   S    
O25   P5    S    
C19   C31   A    
C50   H53   S    
C13   C14   A    
C20   C36   A    
C10   C17   A    
C27   H37   S    
Ba1   Ba2   S    
O17   P3    D    
C7    C11   A    
O23   P4    S    
C15   C17   A    
C55   O9    S    
C51   H2    S    
C38   C41   A    
C6    C7    A    
O10   P6    S    
C39   C44   A    
C55   H24   S    
C1    H16   S    
O11   P6    D    
Ba1   P1    S    
C33   P6    S    
Ba1   O5    S    
C29   H38   S    
C8    H33   S    
O7    P7    S    
C42   P2    S    
C19   C20   A    
C53   H50   S    
C39   C41   A    
O4    P1    S    
C9    C13   A    
O5    P2    S    
C56   H27   S    
Ba2   O4    S    
C44   C46   A    
O12   P2    S    
C45   O3    S    
C4    C16   S    
O2    P5    D    
O13   P1    S    
C39   H41   S    
Ba2   O20   S    
C49   C50   S    
Ba2   O25   S    
C26   C30   A    
C4    O19   S    
C8    C9    A    
C22   H36   S    
C3    C5    A    
C2    C21   A    
C14   C15   A    
C18   C26   A    
C50   H52   S    
C49   H45   S    
C50   H54   S    
C5    H31   S    
C4    H28   S    
C15   P4    S    
C7    C57   A    
C30   C32   A    
Ba2   O24   S    
Ba1   O10   S    
C35   C36   A    
O21   P4    S    
O3    P5    S    
C51   H3    S    
C29   C30   A    
C12   H8    S    
O22   P8    S    
C46   P7    S    
C31   C32   A    
C24   C25   A    
C55   H25   S    
Ba1   O4    S    
O1    P1    D    
C10   C11   A    
C18   C57   A    
Ba1   P2    S    
C1    C12   S    
C51   O12   S    
C14   H32   S    
C37   C47   A    
C45   C54   S    
C49   H51   S    
C53   O18   D    
Ba2   P4    S    
C41   P3    S    
C23   H10   S    
Ba1   O1    S    
C45   H18   S    
Ba1   O21   S    
C23   O7    S    
C35   H40   S    
Ba1   O24   S    
C42   C43   A    
C37   H43   S    
C36   P1    S    
O19   P3    S    
C34   H15   S    
C16   H17   S    
C28   H49   S    
O8    P8    D    
C49   O13   S    
C28   C40   S    
C2    C3    A    
C56   H29   S    
C13   P8    S    
Ba2   O6    S    
C52   H7    S    
C1    H4    S    
O6    P7    D    
C12   H1    S    
C28   O23   S    
Ba2   O22   S    
C54   H21   S    
C21   H35   S    
C48   H42   S    
C17   C22   A    
O15   P2    D    
C16   H46   S    
C27   C29   A    
C38   H44   S    
C55   C56   S    
C52   H5    S    
C43   C48   A    
C47   P5    S    
C2    C57   A    
C40   H12   S    
C31   C33   A    
C54   H22   S    
O14   P6    S    
O9    P8    S    
C34   H14   S    
C12   O14   S    
C23   C34   S    
C43   C44   A    
C38   C42   A    
O16   P3    S    
C18   C19   A    
C24   C27   A    
C6    C8    A    
C47   C48   A    
C25   C26   A    
C20   C21   A    
C11   C25   A    
C23   H11   S    
C45   H19   S    
C3    H30   S    
C34   H13   S    
C9    C10   A    
C37   C46   A    
