data_mof_unit_21385.cif
_audit_creation_date              2012-12-11T14:49:42-0500
_audit_creation_method            fapswitch 2.2
_symmetry_space_group_name_H-M    P1
_symmetry_Int_Tables_number       1
_space_group_crystal_system       triclinic
_cell_length_a                    11.411758
_cell_length_b                    11.358185
_cell_length_c                    18.851227
_cell_angle_alpha                 90.552384
_cell_angle_beta                  90.113264
_cell_angle_gamma                 121.002577
_cell_volume                      2094.21150512

loop_
_atom_site_label
_atom_site_type_symbol
_atom_type_description
_atom_site_fract_x
_atom_site_fract_y
_atom_site_fract_z
_atom_type_partial_charge
C1    C     C_R   0.526872 0.460704 0.645158 0.547052
C2    C     C_R   0.466266 0.529018 0.352986 0.582947
C3    C     C_R   0.473741 0.937733 0.147428 0.561755
C4    C     C_R   0.069297 0.537943 0.355895 0.562690
C5    C     C_R   0.415423 0.986029 0.525846 -0.003296
C6    C     C_R   0.633838 0.554561 0.975220 -0.057513
C7    C     C_R   0.079036 0.459999 0.551226 0.018315
C8    C     C_R   0.468953 0.100522 0.976699 -0.094740
C9    C     C_R   0.574475 0.611844 0.542164 -0.081938
C10   C     C_R   0.924353 0.363058 0.971824 -0.049690
C11   C     C_R   0.932184 0.381068 0.045430 -0.024778
C12   C     C_R   0.931858 0.468017 0.854420 0.540570
C13   C     C_R   0.583179 0.622379 0.468517 -0.071387
C14   C     C_R   0.484020 0.091104 0.050069 -0.044082
C15   C     C_R   0.078136 0.446672 0.476666 -0.014646
C16   C     C_R   0.613772 0.537754 0.048602 -0.042302
C17   C     C_R   0.452996 0.060817 0.461969 -0.020065
C18   C     C_R   0.525096 0.020882 0.419360 -0.010013
C19   C     C_R   0.484021 0.486141 0.074749 0.022360
C20   C     C_R   0.029052 0.513304 0.432358 0.020488
C21   C     C_R   0.501681 0.985906 0.073776 -0.029611
C22   C     C_R   0.499630 0.507703 0.424891 0.030437
C23   C     C_R   0.541338 0.069824 0.643575 0.567002
C24   C     C_R   0.008233 0.513488 0.073323 0.005630
C25   C     C_R   0.982707 0.479724 0.926767 0.002932
C26   C     C_R   0.493071 0.483508 0.572324 -0.026092
C27   C     C_R   0.506128 0.028816 0.928165 -0.015367
C28   C     C_R   0.014187 0.522237 0.580400 0.048504
C29   C     C_R   0.520087 0.504237 0.927958 -0.015818
C30   C     C_R   0.528531 0.019374 0.568240 -0.044583
C31   C     C_R   0.644668 0.036696 0.453045 -0.057168
C32   C     C_R   0.369721 0.417632 0.027473 0.038079
C33   C     C_R   0.983285 0.595081 0.465071 -0.038635
C34   C     C_R   0.532270 0.465944 0.854621 0.547037
C35   C     C_R   0.529515 0.908963 0.024301 -0.041052
C36   C     C_R   0.413262 0.377666 0.454301 0.002091
C37   C     C_R   0.051202 0.629257 0.027649 -0.095385
C38   C     C_R   0.059319 0.612233 0.954710 -0.064192
C39   C     C_R   0.394907 0.369806 0.528111 -0.080234
C40   C     C_R   0.536289 0.931914 0.951969 -0.001852
C41   C     C_R   0.995369 0.614486 0.538607 -0.055526
C42   C     C_R   0.387998 0.447430 0.955001 0.023231
C43   C     C_R   0.648828 0.041861 0.529021 -0.012356
C44   C     C_1   0.337880 0.840205 0.517096 0.240667
C45   C     C_R   0.942205 0.477166 0.648890 0.577098
C46   C     C_1   0.768030 0.648641 0.949854 0.332174
C47   C     C_1   0.153008 0.426323 0.600901 0.220886
C48   C     C_1   0.372686 0.137728 0.953373 0.300323
C49   C     C_1   0.639612 0.731657 0.588105 0.237011
C50   C     C_1   0.880507 0.226894 0.944674 0.304169
C51   C     C_1   0.870099 0.264159 0.092561 0.247258
C52   C     C_1   0.690834 0.742085 0.435292 0.257710
C53   C     C_1   0.463301 0.172793 0.102008 0.265868
C54   C     C_1   0.111440 0.354565 0.444615 0.305320
C55   C     C_1   0.718269 0.559471 0.099164 0.248114
C56   C     C_R   0.539699 0.074246 0.855474 0.588914
C57   C     C_1   0.545767 0.209536 0.472620 0.204922
C58   C     C_2   0.773811 0.098786 0.410451 0.646142
C59   C     C_2   0.232696 0.314854 0.052921 0.663925
C60   C     C_2   0.929684 0.665672 0.422117 0.592729
C61   C     C_2   0.521880 0.784437 0.046219 0.611983
C62   C     C_2   0.355952 0.249808 0.406727 0.612948
C63   C     C_2   0.083675 0.766751 0.054120 0.615641
C64   C     C_2   0.156536 0.724707 0.905758 0.590352
C65   C     C_2   0.279878 0.237002 0.556063 0.672109
C66   C     C_2   0.564556 0.847265 0.900840 0.636202
C67   C     C_R   0.463795 0.523747 0.147412 0.625445
C68   C     C_2   0.017767 0.745805 0.570902 0.626402
C69   C     C_2   0.271580 0.414870 0.905668 0.629084
C70   C     C_2   0.783816 0.134408 0.558015 0.599519
C71   C     C_R   0.475371 0.939618 0.352763 0.547973
C72   C     C_R   0.064612 0.537223 0.146021 0.571640
Cr1   Cr    Cr6+3 0.776430 0.541680 0.750000 1.129336
Cr2   Cr    Cr6+3 0.765250 0.223570 0.750000 1.111351
Cr3   Cr    Cr6+3 0.458320 0.234750 0.750000 1.155764
Cr4   Cr    Cr6+3 0.541680 0.776430 0.250000 1.158185
Cr5   Cr    Cr6+3 0.223570 0.765250 0.250000 1.140715
Cr6   Cr    Cr6+3 0.234750 0.458320 0.250000 1.146163
H1    H     H_    0.871930 0.031352 0.473960 0.356571
H2    H     H_    0.841720 0.718186 0.535260 0.292958
H3    H     H_    0.209812 0.464931 0.816526 0.364084
H4    H     H_    0.945164 0.167164 0.617630 0.371805
H5    H     H_    0.108136 0.127309 0.093722 0.373061
H6    H     H_    0.097920 0.853308 0.438231 0.341518
H7    H     H_    0.315055 0.679526 0.043299 0.283390
H8    H     H_    0.379500 0.163815 0.317427 0.353289
H9    H     H_    0.271839 0.850784 0.022229 0.274242
H10   H     H_    0.111989 0.872096 0.933332 0.359883
H11   H     H_    0.405031 0.179243 0.579717 0.293734
H12   H     H_    0.522572 0.747189 0.806612 0.361985
N1    N     N_1   0.286458 0.723695 0.508401 -0.361621
N2    N     N_1   0.131610 0.279031 0.413873 -0.103817
N3    N     N_1   0.795002 0.570869 0.142730 -0.199783
N4    N     N_1   0.626045 0.324854 0.481638 -0.261809
N5    N     N_1   0.873280 0.728432 0.927842 -0.215382
N6    N     N_1   0.210626 0.404601 0.644505 -0.248866
N7    N     N_1   0.289025 0.158068 0.933662 -0.170992
N8    N     N_1   0.689390 0.824303 0.626938 -0.158579
N9    N     N_1   0.850549 0.118706 0.924051 -0.152563
N10   N     N_1   0.821754 0.171484 0.130350 -0.212738
N11   N     N_1   0.775575 0.829867 0.402801 -0.130073
N12   N     N_1   0.448361 0.235674 0.145819 -0.234241
O1    O     O_R   0.916700 0.566820 0.669930 -0.491880
O2    O     O_R   0.566820 0.916700 0.330070 -0.493028
O3    O     O_R   0.083300 0.650120 0.169930 -0.470710
O4    O     O_R   0.349880 0.433180 0.330070 -0.491248
O5    O     O_R   0.649840 0.534790 0.674920 -0.486992
O6    O     O_R   0.884950 0.350160 0.825080 -0.517905
O7    O     O_R   0.465210 0.115050 0.674920 -0.465424
O8    O     O_R   0.649840 0.534790 0.825080 -0.500893
O9    O     O_R   0.884950 0.350160 0.674920 -0.477793
O10   O     O_R   0.465210 0.115050 0.825080 -0.471693
O11   O     O_R   0.534790 0.649840 0.174920 -0.436164
O12   O     O_R   0.650120 0.083300 0.830070 -0.487109
O13   O     O_R   0.350160 0.884950 0.325080 -0.502583
O14   O     O_R   0.115050 0.465210 0.174920 -0.455005
O15   O     O_R   0.534790 0.649840 0.325080 -0.502255
O16   O     O_R   0.350160 0.884950 0.174920 -0.467719
O17   O     O_R   0.115050 0.465210 0.325080 -0.497637
O18   O     O_3   0.666667 0.333333 0.750000 -0.342852
O19   O     O_3   0.333333 0.666667 0.250000 -0.334452
O20   O     O_2   0.785477 0.167123 0.358338 -0.422447
O21   O     O_R   0.884221 0.085498 0.429642 -0.606754
O22   O     O_2   0.143716 0.342674 0.053530 -0.497654
O23   O     O_R   0.433180 0.349880 0.669930 -0.486919
O24   O     O_R   0.206083 0.187954 0.077635 -0.631854
O25   O     O_2   0.824215 0.596851 0.388075 -0.430269
O26   O     O_R   0.005226 0.808309 0.413939 -0.580069
O27   O     O_2   0.627691 0.785703 0.057301 -0.414969
O28   O     O_R   0.394037 0.667602 0.056642 -0.714260
O29   O     O_2   0.256121 0.140136 0.423501 -0.455668
O30   O     O_R   0.424743 0.254796 0.344188 -0.646260
O31   O     O_2   0.995193 0.784136 0.078774 -0.408566
O32   O     O_R   0.213630 0.878493 0.048916 -0.648180
O33   O     O_2   0.222882 0.698970 0.864718 -0.401365
O34   O     O_R   0.916700 0.566820 0.830070 -0.476301
O35   O     O_R   0.170912 0.854214 0.900904 -0.627768
O36   O     O_2   0.161221 0.204107 0.546994 -0.424463
O37   O     O_R   0.304735 0.141122 0.584344 -0.565156
O38   O     O_2   0.656473 0.825128 0.913184 -0.468290
O39   O     O_R   0.490793 0.799176 0.837240 -0.597121
O40   O     O_2   0.116198 0.813450 0.609957 -0.392619
O41   O     O_R   0.926908 0.790972 0.560051 -0.593856
O42   O     O_2   0.160082 0.310702 0.912413 -0.468553
O43   O     O_R   0.293691 0.500242 0.848075 -0.640523
O44   O     O_2   0.830379 0.254433 0.545941 -0.543384
O45   O     O_R   0.650120 0.083300 0.669930 -0.464699
O46   O     O_R   0.855720 0.089246 0.598252 -0.614771
O47   O     O_R   0.433180 0.349880 0.830070 -0.482081
O48   O     O_R   0.566820 0.916700 0.169930 -0.464385
O49   O     O_R   0.083300 0.650120 0.330070 -0.473666
O50   O     O_R   0.349880 0.433180 0.169930 -0.482690

loop_
_geom_bond_atom_site_label_1
_geom_bond_atom_site_label_2
_ccdc_geom_bond_type
Cr4   O2    S    
C71   O2    A    
H6    O26   S    
C29   C42   A    
C69   O43   S    
C11   C24   A    
C55   N3    T    
Cr5   O49   S    
Cr6   O50   S    
Cr1   O8    S    
C66   O39   S    
C69   O42   D    
C48   N7    T    
C24   C72   S    
C50   N9    T    
C31   C43   A    
Cr4   O19   S    
C63   O31   D    
C14   C21   A    
C1    O23   A    
H7    O28   S    
C26   C39   A    
Cr1   O5    S    
C5    C17   A    
Cr2   O12   S    
C28   C41   A    
C18   C71   S    
C68   O41   S    
C17   C18   A    
Cr6   O19   S    
C9    C13   A    
C45   O1    A    
C49   N8    T    
C2    O15   A    
C46   N5    T    
H11   O37   S    
C2    C22   S    
C47   N6    T    
C4    O17   A    
C19   C67   S    
C70   O44   D    
Cr2   O6    S    
C23   C30   S    
C53   N12   T    
C61   O27   D    
C7    C15   A    
C64   O33   D    
Cr1   O18   S    
C40   C66   S    
C39   C65   S    
H9    O32   S    
C36   C62   S    
C19   C32   A    
C37   C63   S    
C34   O47   A    
C9    C26   A    
C24   C37   A    
C41   C68   S    
C38   C64   S    
C64   O35   S    
C36   C39   A    
C32   C42   A    
C15   C20   A    
C28   C45   S    
C52   N11   T    
C58   O20   D    
Cr3   O7    S    
C63   O32   S    
C62   O30   S    
Cr2   O45   S    
C60   O26   S    
C9    C49   S    
C15   C54   S    
Cr2   O9    S    
C12   O6    A    
C27   C56   S    
H1    O21   S    
C29   C34   S    
C2    O4    A    
C42   C69   S    
C7    C28   A    
C59   O24   S    
C7    C47   S    
C8    C48   S    
C54   N2    T    
C37   C38   A    
C3    O16   A    
C25   C38   A    
C13   C52   S    
Cr1   O34   S    
Cr4   O48   S    
C27   C40   A    
H2    O41   S    
C6    C29   A    
Cr4   O11   S    
Cr3   O10   S    
C71   O13   A    
C35   C61   S    
C68   O40   D    
C44   N1    T    
C61   O28   S    
C1    O5    A    
C65   O36   D    
C10   C25   A    
C5    C44   S    
Cr5   O16   S    
C43   C70   S    
H3    O43   S    
C57   N4    T    
C1    C26   S    
C34   O8    A    
C30   C43   A    
C3    C21   S    
C70   O46   S    
C20   C33   A    
H5    O24   S    
C10   C50   S    
Cr2   O18   S    
C31   C58   S    
C5    C30   A    
C59   O22   D    
C4    O49   A    
C3    O48   A    
C8    C14   A    
C6    C46   S    
C67   O50   A    
C62   O29   D    
C60   O25   D    
Cr6   O14   S    
Cr3   O18   S    
H4    O46   S    
C45   O9    A    
C21   C35   A    
C33   C60   S    
C22   C36   A    
C72   O14   A    
Cr4   O15   S    
Cr6   O4    S    
C12   C25   S    
C51   N10   T    
C33   C41   A    
Cr5   O3    S    
C35   C40   A    
C67   O11   A    
C16   C55   S    
H8    O30   S    
C23   O45   A    
Cr3   O47   S    
C16   C19   A    
C58   O21   S    
C13   C22   A    
Cr6   O17   S    
C11   C51   S    
C65   O37   S    
H10   O35   S    
H12   O39   S    
Cr5   O19   S    
C10   C11   A    
C6    C16   A    
C4    C20   S    
Cr1   O1    S    
C14   C53   S    
C66   O38   D    
C72   O3    A    
C12   O34   A    
C8    C27   A    
C56   O12   A    
C18   C31   A    
C32   C59   S    
Cr3   O23   S    
Cr5   O13   S    
C56   O10   A    
C23   O7    A    
C17   C57   S    
