data_mof_unit_34732.cif
_audit_creation_date              2012-12-10T17:09:28-0500
_audit_creation_method            fapswitch 2.2
_symmetry_space_group_name_H-M    P1
_symmetry_Int_Tables_number       1
_space_group_crystal_system       triclinic
_cell_length_a                    10.564492
_cell_length_b                    10.725203
_cell_length_c                    10.104598
_cell_angle_alpha                 84.607519
_cell_angle_beta                  89.446651
_cell_angle_gamma                 90.042283
_cell_volume                      1139.79306994

loop_
_atom_site_label
_atom_site_type_symbol
_atom_type_description
_atom_site_fract_x
_atom_site_fract_y
_atom_site_fract_z
_atom_type_partial_charge
C1    C     C_R   0.500507 0.262300 0.506867 0.898341
C2    C     C_3   0.958562 0.603965 0.433609 0.226210
C3    C     C_3   0.042796 0.504529 0.375370 -0.231846
C4    C     C_3   0.121854 0.497189 0.503686 -0.266062
C5    C     C_2   0.402551 0.930070 0.514271 -0.162566
C6    C     C_2   0.499161 0.868081 0.470162 -0.232141
C7    C     C_2   0.403486 0.062889 0.480328 0.273296
C8    C     C_2   0.496894 0.129181 0.531540 0.126422
C9    C     C_2   0.596155 0.530998 0.924075 -0.013950
C10   C     C_2   0.601726 0.506645 0.073280 -0.035211
C11   C     C_R   0.257370 0.498693 0.501035 0.979981
C12   C     C_R   0.502332 0.736794 0.493118 0.928661
C13   C     C_R   0.741853 0.499529 0.499521 0.956300
C14   C     C_3   0.036236 0.392565 0.568143 0.483531
C15   C     C_3   0.956655 0.398498 0.441033 -0.170027
C16   C     C_3   0.875842 0.498801 0.498759 -0.215218
C17   C     C_3   0.952749 0.491501 0.626601 -0.288569
C18   C     C_3   0.037917 0.596201 0.560303 0.305044
H1    H     H_    0.919663 0.317476 0.392395 0.222381
H2    H     H_    0.678677 0.573744 0.873696 0.132943
H3    H     H_    0.693762 0.495369 0.119397 0.167462
H4    H     H_    0.423034 0.544207 0.105300 0.232785
H5    H     H_    0.913967 0.486197 0.729562 0.221360
H6    H     H_    0.081064 0.510254 0.272237 0.238310
H7    H     H_    0.328131 0.885296 0.575917 0.244957
H8    H     H_    0.567932 0.913835 0.400621 0.189370
N1    N     N_2   0.501360 0.501330 0.852150 0.044410
N2    N     N_2   0.501400 0.501360 0.147810 -0.139135
O1    O     O_R   0.499980 0.319060 0.613040 -0.533153
O2    O     O_R   0.500020 0.319100 0.386900 -0.567668
O3    O     O_R   0.313930 0.499950 0.613050 -0.536147
O4    O     O_R   0.313970 0.499990 0.386910 -0.601391
O5    O     O_R   0.499980 0.680900 0.613100 -0.583990
O6    O     O_R   0.500020 0.680940 0.386960 -0.630172
O7    O     O_R   0.686030 0.500010 0.613090 -0.637470
O8    O     O_R   0.686070 0.500050 0.386950 -0.626231
Zn1   Zn    Zn3+2 0.499970 0.499970 0.650990 1.142814
Zn2   Zn    Zn3+2 0.500030 0.500030 0.349010 1.064742
S1    S     S_3+6 0.600669 0.063343 0.660182 0.053793
O9    O     O_2   0.526802 0.979249 0.760476 -0.260116
O10   O     O_2   0.702588 0.988430 0.599707 -0.280224
O11   O     O_3   0.670974 0.176006 0.738840 -0.493717
H9    H     H_    0.722487 0.130496 0.809172 0.406913
S2    S     S_3+6 0.394840 0.385917 0.917504 0.194799
O12   O     O_2   0.457101 0.297401 0.021344 -0.249398
O13   O     O_2   0.280914 0.445056 0.976118 -0.241272
O14   O     O_3   0.341826 0.300657 0.799307 -0.424766
H10   H     H_    0.342336 0.212599 0.839061 0.410515
S3    S     S_3+6 0.069142 0.248369 0.664244 0.110685
O15   O     O_2   0.192729 0.195507 0.622061 -0.269706
O16   O     O_2   0.073843 0.270192 0.808854 -0.229483
O17   O     O_3   0.952703 0.145967 0.641209 -0.478730
H11   H     H_    0.977218 0.067764 0.694782 0.423475
S4    S     S_3+6 0.079229 0.728024 0.646390 0.076374
O18   O     O_2   0.196625 0.700656 0.726548 -0.230927
O19   O     O_2   0.101275 0.840120 0.548456 -0.257309
O20   O     O_3   0.959794 0.759102 0.749404 -0.487115
H12   H     H_    0.884985 0.772330 0.691408 0.373693
Br1   Br    Br    0.895205 0.753935 0.333670 -0.362530
S5    S     S_3+6 0.304155 0.117933 0.346281 0.119281
O21   O     O_2   0.254782 0.247211 0.360092 -0.232968
O22   O     O_2   0.379526 0.119765 0.219423 -0.231920
O23   O     O_3   0.180238 0.020669 0.337684 -0.422128
H13   H     H_    0.214557 0.946777 0.297592 0.374406

loop_
_geom_bond_atom_site_label_1
_geom_bond_atom_site_label_2
_ccdc_geom_bond_type
C8    S1    S    
O4    Zn2   S    
C2    C18   S    
C1    C8    S    
C2    C16   S    
C9    C10   S    
S4    O18   D    
C9    H2    S    
O14   H10   S    
C17   H5    S    
S2    O14   S    
N2    Zn2   S    
S3    O17   S    
C4    C18   S    
O8    Zn2   S    
C17   C18   S    
C3    H6    S    
C11   O3    A    
C7    C8    D    
S1    O10   D    
H4    N2    S    
O17   H11   S    
C4    C11   S    
C15   H1    S    
C14   C17   S    
O2    Zn2   S    
O20   H12   S    
C6    H8    S    
N1    Zn1   S    
S5    O23   S    
C5    H7    S    
C6    C12   S    
C1    O1    A    
C1    O2    A    
O7    Zn1   S    
S2    O13   D    
C11   O4    A    
C13   O7    A    
S1    O11   S    
C2    C3    S    
C10   H3    S    
C4    C14   S    
C5    C6    D    
S4    O19   D    
C14   S3    S    
O11   H9    S    
C18   S4    S    
O23   H13   S    
C10   N2    D    
C15   C16   S    
O3    Zn1   S    
C7    S5    S    
C3    C15   S    
S2    O12   D    
C9    N1    D    
C13   O8    A    
S5    O22   D    
S3    O15   D    
C13   C16   S    
O1    Zn1   S    
S1    O9    D    
C5    C7    S    
C2    Br1   S    
S5    O21   D    
C12   O5    A    
C14   C15   S    
C12   O6    A    
N1    S2    S    
O5    Zn1   S    
C3    C4    S    
C16   C17   S    
S3    O16   D    
S4    O20   S    
O6    Zn2   S    
