data_mof_unit_15132.cif
_audit_creation_date              2012-10-26T18:50:02-0400
_audit_creation_method            fapswitch 2.2
_symmetry_space_group_name_H-M    P1
_symmetry_Int_Tables_number       1
_space_group_crystal_system       triclinic
_cell_length_a                    10.886259
_cell_length_b                    12.992052
_cell_length_c                    11.665511
_cell_angle_alpha                 99.585572
_cell_angle_beta                  93.411478
_cell_angle_gamma                 92.406847
_cell_volume                      1621.73124218

loop_
_atom_site_label
_atom_site_type_symbol
_atom_type_description
_atom_site_fract_x
_atom_site_fract_y
_atom_site_fract_z
_atom_type_partial_charge
C1    C     C_R   0.501668 0.299234 0.478715 0.526910
C2    C     C_R   0.499616 0.860898 0.433859 -0.122501
C3    C     C_R   0.499288 0.031037 0.555768 0.046336
C4    C     C_R   0.500712 0.968962 0.444232 0.046336
C5    C     C_R   0.386236 0.396697 0.022203 -0.172998
C6    C     C_R   0.613764 0.603303 0.977797 -0.172997
C7    C     C_R   0.396749 0.407216 0.144408 0.050333
C8    C     C_R   0.603251 0.592784 0.855591 0.050334
C9    C     C_R   0.548557 0.545518 0.156910 0.051404
C10   C     C_R   0.451443 0.454482 0.843090 0.051405
C11   C     C_R   0.541161 0.537761 0.034075 0.008180
C12   C     C_R   0.498331 0.700766 0.521285 0.526909
C13   C     C_R   0.458839 0.462239 0.965925 0.008181
C14   C     C_R   0.262452 0.491308 0.499636 0.525224
C15   C     C_R   0.737548 0.508691 0.500364 0.525225
C16   C     C_R   0.098201 0.295600 0.483749 0.098795
C17   C     C_R   0.901800 0.704403 0.516263 0.098794
C18   C     C_R   0.017533 0.207961 0.475443 -0.061549
C19   C     C_R   0.982467 0.792040 0.524564 -0.061548
C20   C     C_R   0.892021 0.217818 0.474307 -0.157445
C21   C     C_R   0.107978 0.782181 0.525687 -0.157447
C22   C     C_R   0.845183 0.315738 0.481711 -0.096581
C23   C     C_R   0.497546 0.814085 0.533482 0.007745
C24   C     C_R   0.154816 0.684260 0.518278 -0.096583
C25   C     C_R   0.923010 0.407772 0.490988 -0.003168
C26   C     C_R   0.076990 0.592227 0.509008 -0.003168
C27   C     C_R   0.052528 0.399035 0.491939 0.005995
C28   C     C_R   0.947472 0.600965 0.508065 0.005994
C29   C     C_R   0.871497 0.507062 0.499145 -0.012483
C30   C     C_R   0.128503 0.492937 0.500855 -0.012482
C31   C     C_R   0.502453 0.185915 0.466518 0.007744
C32   C     C_R   0.503359 0.015903 0.344831 -0.139362
C33   C     C_R   0.496640 0.984097 0.655169 -0.139361
C34   C     C_R   0.504129 0.124050 0.355913 -0.134345
C35   C     C_R   0.495871 0.875950 0.644087 -0.134339
C36   C     C_R   0.500383 0.139102 0.566140 -0.122495
Cu1   Cu    Cu3+1 0.509250 0.507730 0.615930 0.916470
Cu2   Cu    Cu3+1 0.490750 0.492270 0.384070 0.916469
H1    H     H_    0.169641 0.850882 0.532491 0.119513
H2    H     H_    0.498797 0.186489 0.651819 0.120741
H3    H     H_    0.494004 0.840871 0.721976 0.131550
H4    H     H_    0.505996 0.159129 0.278024 0.131550
H5    H     H_    0.504638 0.969118 0.258865 0.104165
H6    H     H_    0.495362 0.030881 0.741135 0.104164
H7    H     H_    0.388181 0.396888 0.789718 0.110441
H8    H     H_    0.611819 0.603111 0.210282 0.110444
H9    H     H_    0.659360 0.643736 0.812965 0.122669
H10   H     H_    0.340639 0.356264 0.187035 0.122671
H11   H     H_    0.260666 0.297364 0.409821 0.251365
H12   H     H_    0.830357 0.149115 0.467496 0.119511
H13   H     H_    0.270169 0.310457 0.561428 0.250414
H14   H     H_    0.729826 0.689551 0.438602 0.250411
H15   H     H_    0.739344 0.702637 0.590208 0.251365
H16   H     H_    0.321974 0.337738 0.972266 0.088740
H17   H     H_    0.678026 0.662263 0.027734 0.088740
H18   H     H_    0.053143 0.130724 0.469438 0.134182
H19   H     H_    0.946856 0.869277 0.530574 0.134184
H20   H     H_    0.746378 0.317634 0.479886 0.143857
H21   H     H_    0.253620 0.682362 0.520093 0.143859
H22   H     H_    0.501202 0.813511 0.348181 0.120740
N1    N     N_R   0.523180 0.519350 0.790130 -0.226831
N2    N     N_R   0.476820 0.480650 0.209870 -0.226831
N3    N     N_3   0.225086 0.273818 0.482934 -0.648364
N4    N     N_3   0.774917 0.726187 0.517094 -0.648363
O1    O     O_R   0.506570 0.354460 0.582000 -0.516409
O2    O     O_R   0.493430 0.645540 0.418000 -0.516412
O3    O     O_R   0.490940 0.341410 0.386200 -0.515958
O4    O     O_R   0.509060 0.658590 0.613800 -0.515954
O5    O     O_R   0.327470 0.506520 0.597900 -0.504672
O6    O     O_R   0.672530 0.493480 0.402100 -0.504672
O7    O     O_R   0.311840 0.493460 0.402100 -0.502372
O8    O     O_R   0.688160 0.506540 0.597900 -0.502370

loop_
_geom_bond_atom_site_label_1
_geom_bond_atom_site_label_2
_ccdc_geom_bond_type
C22   H20   S    
Cu2   O3    S    
C2    C4    A    
Cu2   O6    S    
C7    N2    A    
C15   C29   S    
Cu1   Cu2   S    
H11   N3    S    
C16   N3    S    
Cu1   O5    S    
C25   C27   A    
C12   O4    A    
C14   O7    A    
C6    H17   S    
C5    C13   A    
C9    N2    A    
C21   H1    S    
C18   H18   S    
C8    N1    A    
C7    H10   S    
C17   C28   A    
C10   H7    S    
C14   O5    A    
C8    H9    S    
C9    H8    S    
C26   C28   A    
C19   H19   S    
C27   C30   A    
C15   O8    A    
C9    C11   A    
C12   C23   S    
C4    C32   A    
C3    C36   A    
C14   C30   S    
C24   H21   S    
C6    C8    A    
C16   C27   A    
C28   C29   A    
C19   C21   A    
C32   H5    S    
C20   C22   A    
C26   C30   A    
C23   C35   A    
C6    C11   A    
C17   N4    S    
C25   C29   A    
C35   H3    S    
H15   N4    S    
C2    H22   S    
C21   C24   A    
C31   C34   A    
C11   C13   A    
C3    C33   A    
C3    C4    A    
C10   N1    A    
Cu1   O4    S    
C5    H16   S    
C1    C31   S    
H13   N3    S    
Cu1   N1    S    
C18   C20   A    
C16   C18   A    
H14   N4    S    
Cu1   O8    S    
C2    C23   A    
C5    C7    A    
C15   O6    A    
Cu2   O7    S    
C17   C19   A    
C36   H2    S    
C20   H12   S    
C33   C35   A    
C31   C36   A    
C33   H6    S    
C12   O2    A    
C1    O1    A    
C10   C13   A    
C1    O3    A    
Cu2   O2    S    
Cu1   O1    S    
C24   C26   A    
C34   H4    S    
Cu2   N2    S    
C22   C25   A    
C32   C34   A    
