data_mof_unit_16843.cif
_audit_creation_date              2013-03-05T16:05:19-0500
_audit_creation_method            fapswitch 2.2
_symmetry_space_group_name_H-M    P1
_symmetry_Int_Tables_number       1
_space_group_crystal_system       triclinic
_cell_length_a                    10.831633
_cell_length_b                    9.532624
_cell_length_c                    15.920974
_cell_angle_alpha                 90.327406
_cell_angle_beta                  90.169128
_cell_angle_gamma                 89.998849
_cell_volume                      1643.86841238

loop_
_atom_site_label
_atom_site_type_symbol
_atom_site_description
_atom_site_fract_x
_atom_site_fract_y
_atom_site_fract_z
_atom_type_partial_charge
O1    O     O_R   0.319660 0.618740 0.500000 -0.589099
O2    O     O_R   0.319660 0.381260 0.500000 -0.588423
C1    C     C_R   0.262111 0.499999 0.499876 0.801139
O3    O     O_R   0.500020 0.618840 0.379440 -0.566572
O4    O     O_R   0.500020 0.381160 0.379440 -0.572245
C2    C     C_R   0.499913 0.499571 0.340340 0.828630
Cu1   Cu    Cu3+1 0.500020 0.640660 0.500000 0.981710
Cu2   Cu    Cu3+1 0.500020 0.359340 0.500000 0.977987
O5    O     O_R   0.680370 0.618830 0.500010 -0.591261
O6    O     O_R   0.680370 0.381170 0.500010 -0.590660
O7    O     O_R   0.500010 0.618730 0.620560 -0.568642
O8    O     O_R   0.500010 0.381270 0.620560 -0.572535
C3    C     C_R   0.737896 0.499999 0.499988 0.793133
C4    C     C_R   0.500120 0.500403 0.659694 0.824409
C5    C     C_3   0.444514 0.637282 0.049525 0.107240
C6    C     C_3   0.424842 0.365603 0.046766 0.108999
C7    C     C_3   0.414258 0.379652 0.949188 -0.239952
C8    C     C_3   0.446105 0.640756 0.951255 -0.252866
H1    H     H_    0.349923 0.648569 0.926946 0.197446
H2    H     H_    0.317584 0.411146 0.933997 0.194611
H3    H     H_    0.477655 0.268773 0.061192 0.141058
H4    H     H_    0.503667 0.723962 0.072985 0.187445
C9    C     C_1   0.500164 0.501406 0.749036 -0.116781
C10   C     C_3   0.500572 0.495024 0.083236 -0.091826
C11   C     C_3   0.499881 0.500128 0.916696 -0.013620
C12   C     C_3   0.633713 0.480165 0.950206 -0.403757
C13   C     C_3   0.639228 0.479663 0.049571 -0.193312
C14   C     C_1   0.500098 0.501630 0.824341 -0.013524
C15   C     C_1   0.499999 0.496241 0.175692 0.156750
C16   C     C_1   0.499888 0.498164 0.251035 -0.015662
H5    H     H_    0.693098 0.563668 0.923633 0.223361
H6    H     H_    0.673605 0.384371 0.921695 0.251385
C17   C     C_R   0.063867 0.372513 0.499667 -0.152513
C18   C     C_R   0.063862 0.627479 0.499718 -0.153372
H7    H     H_    0.111896 0.272835 0.499603 0.155911
H8    H     H_    0.111888 0.727156 0.499693 0.155907
C19   C     C_R   0.936147 0.372512 0.499751 -0.159402
C20   C     C_R   0.936143 0.627479 0.499802 -0.160576
H9    H     H_    0.888126 0.272832 0.499767 0.153843
H10   H     H_    0.888119 0.727160 0.499861 0.154000
C21   C     C_R   0.871767 0.499996 0.499857 -0.018894
C22   C     C_R   0.128241 0.499997 0.499729 -0.017625
C23   C     C_R   0.422699 0.073880 0.448203 -0.003077
C24   C     C_R   0.422689 0.925154 0.448208 0.001084
H11   H     H_    0.360680 0.129446 0.406682 0.139593
H12   H     H_    0.360647 0.868820 0.406692 0.143225
N1    N     N_R   0.500030 0.852070 0.500020 -0.167494
N2    N     N_R   0.500030 0.147930 0.500020 -0.166497
C25   C     C_R   0.577342 0.926119 0.551852 -0.000300
C26   C     C_R   0.577353 0.074847 0.551845 -0.002055
H13   H     H_    0.639345 0.870555 0.593384 0.126980
H14   H     H_    0.639384 0.131179 0.593368 0.126038
N3    N     N_R   0.320408 0.665885 0.083016 0.167475
O9    O     O_R   0.221485 0.617922 0.046105 -0.267255
O10   O     O_R   0.308032 0.751469 0.146409 -0.309564
N4    N     N_R   0.301418 0.342210 0.083443 0.167337
O11   O     O_R   0.268458 0.397964 0.154697 -0.296218
O12   O     O_R   0.232437 0.242889 0.052223 -0.277949
C27   C     C_2   0.434895 0.240306 0.904821 0.910206
O13   O     O_2   0.351496 0.188154 0.863143 -0.522698
O14   O     O_R   0.548935 0.172789 0.909943 -0.737880
H15   H     H_    0.554397 0.089191 0.870727 0.356291
C28   C     C_2   0.511877 0.769751 0.918028 0.854388
O15   O     O_2   0.461651 0.841361 0.864389 -0.561918
O16   O     O_R   0.628826 0.806998 0.948198 -0.751088
H16   H     H_    0.664332 0.892075 0.919124 0.358742
C29   C     C_2   0.726081 0.597290 0.079283 0.933192
O17   O     O_2   0.828763 0.607436 0.047908 -0.508240
O18   O     O_R   0.693935 0.687761 0.145190 -0.763915
H17   H     H_    0.761154 0.758349 0.158877 0.361692
C30   C     C_2   0.699373 0.344926 0.083362 0.861071
O19   O     O_2   0.728392 0.248251 0.036584 -0.518204
O20   O     O_R   0.723544 0.333256 0.169464 -0.760780
H18   H     H_    0.763327 0.240511 0.184691 0.355973

loop_
_geom_bond_atom_site_label_1
_geom_bond_atom_site_label_2
_geom_bond_distance
_ccdc_geom_bond_type
C4    C9    1.422399 S    
O4    Cu2   1.931851 S    
C26   H14   1.081745 S    
C23   C24   1.417753 A    
Cu2   N2    2.015295 S    
C1    C22   1.450017 S    
C12   H6    1.105910 S    
C15   C16   1.199567 T    
C5    C8    1.565242 S    
C24   N1    1.367503 A    
C23   N2    1.367394 A    
O14   H15   1.011399 S    
C18   C22   1.401083 A    
C10   C13   1.602555 S    
Cu2   O8    1.929594 S    
C7    C11   1.567281 S    
C28   O16   1.398539 S    
C25   H13   1.081754 S    
C3    C21   1.450044 S    
O2    C1    1.292189 A    
C13   C30   1.539250 S    
C27   O13   1.223189 D    
C6    C10   1.587799 S    
C18   C20   1.383412 A    
N3    O9    1.302205 A    
C11   C14   1.470532 S    
Cu1   O7    1.931969 S    
C23   H11   1.081760 S    
C17   H7    1.083276 S    
C12   C13   1.582977 S    
C6    H3    1.110689 S    
C8    C11   1.559656 S    
C6    N4    1.477862 S    
C7    C27   1.517756 S    
O3    Cu1   1.929488 S    
O4    C2    1.292155 A    
C5    N3    1.472510 S    
N2    C26   1.367509 A    
C5    C10   1.581801 S    
C20   H10   1.083273 S    
C5    H4    1.108087 S    
O8    C4    1.292209 A    
O16   H16   1.012553 S    
C18   H8    1.083276 S    
N3    O10   1.301388 A    
C19   C21   1.401103 A    
O18   H17   1.013796 S    
C19   H9    1.083272 S    
O7    C4    1.291715 A    
C17   C19   1.383415 A    
C8    C28   1.519587 S    
C27   O14   1.395236 S    
O3    C2    1.293085 A    
C9    C14   1.198916 T    
C17   C22   1.401095 A    
C29   O18   1.399232 S    
C28   O15   1.222764 D    
C30   O19   1.223223 D    
C12   H5    1.109882 S    
C7    H2    1.115544 S    
C13   C29   1.535404 S    
N4    O11   1.300918 A    
C20   C21   1.401108 A    
N1    C25   1.367405 A    
C25   C26   1.417764 A    
O20   H18   1.013862 S    
C30   O20   1.399896 S    
Cu1   O5    1.964534 S    
Cu1   Cu2   2.681718 S    
O5    C3    1.292828 A    
C10   C15   1.472012 S    
C8    H1    1.112942 S    
C24   H12   1.081762 S    
C2    C16   1.421812 S    
C11   C12   1.555258 S    
O1    Cu1   1.964741 S    
Cu2   O6    1.964542 S    
O2    Cu2   1.964732 S    
C29   O17   1.224636 D    
N4    O12   1.301608 A    
C6    C7    1.563927 S    
O1    C1    1.292204 A    
O6    C3    1.292829 A    
Cu1   N1    2.015290 S    
