data_mof_unit_42245.cif
_audit_creation_date              2012-12-10T20:31:03-0500
_audit_creation_method            fapswitch 2.2
_symmetry_space_group_name_H-M    P1
_symmetry_Int_Tables_number       1
_space_group_crystal_system       triclinic
_cell_length_a                    14.87099
_cell_length_b                    10.625201
_cell_length_c                    9.860444
_cell_angle_alpha                 90.253225
_cell_angle_beta                  89.745146
_cell_angle_gamma                 90.485973
_cell_volume                      1557.93530393

loop_
_atom_site_label
_atom_site_type_symbol
_atom_type_description
_atom_site_fract_x
_atom_site_fract_y
_atom_site_fract_z
_atom_type_partial_charge
C1    C     C_R   0.495691 0.259875 0.499935 0.874359
C2    C     C_R   0.907742 0.609661 0.457466 0.127976
C3    C     C_R   0.950617 0.298144 0.616836 -0.220429
C4    C     C_R   0.043858 0.298112 0.624043 0.435480
C5    C     C_R   0.093043 0.400903 0.568790 0.007103
C6    C     C_R   0.047278 0.506876 0.515974 -0.003116
C7    C     C_R   0.095166 0.612774 0.464542 0.093006
C8    C     C_R   0.048684 0.720643 0.419772 -0.003962
C9    C     C_R   0.954939 0.716331 0.413558 -0.263828
C10   C     C_R   0.186318 0.399328 0.560169 -0.262982
C11   C     C_R   0.231951 0.500433 0.502932 -0.041600
C12   C     C_R   0.327109 0.499028 0.500435 0.873298
C13   C     C_R   0.188277 0.606144 0.455913 -0.265876
C14   C     C_R   0.475959 0.064487 0.623832 0.116527
C15   C     C_R   0.477363 0.128668 0.500984 -0.108653
C16   C     C_R   0.458546 0.064102 0.379931 -0.237009
C17   C     C_R   0.458488 0.933886 0.380163 -0.224513
C18   C     C_R   0.477307 0.870858 0.501445 -0.104688
C19   C     C_R   0.475915 0.936195 0.624078 0.138717
C20   C     C_3   0.538121 0.930413 0.742614 -0.492319
C21   C     C_3   0.538203 0.073041 0.742327 -0.469628
C22   C     C_R   0.462422 0.401845 0.070979 0.220418
C23   C     C_R   0.495759 0.740063 0.500255 0.873992
C24   C     C_R   0.544361 0.590809 0.072122 -0.129120
C25   C     C_R   0.544427 0.590757 0.928107 -0.128799
C26   C     C_R   0.462432 0.401882 0.928451 0.218299
C27   C     C_3   0.366809 0.359013 0.922899 -0.518922
C28   C     C_3   0.366724 0.359047 0.077010 -0.515502
C29   C     C_R   0.673034 0.500742 0.499757 0.883122
C30   C     C_R   0.814647 0.605690 0.449931 -0.256447
C31   C     C_R   0.768441 0.501323 0.500067 -0.042745
C32   C     C_R   0.812621 0.399722 0.556767 -0.226847
C33   C     C_R   0.905609 0.400532 0.561866 0.029077
C34   C     C_R   0.953682 0.505992 0.512398 0.052364
H1    H     H_    0.777849 0.684359 0.408446 0.132125
H2    H     H_    0.451370 0.884028 0.284686 0.172386
H3    H     H_    0.504856 0.889477 0.833671 0.202010
H4    H     H_    0.604576 0.889484 0.716237 0.200839
H5    H     H_    0.505070 0.114411 0.833247 0.199811
H6    H     H_    0.604703 0.115061 0.715702 0.203493
H7    H     H_    0.578768 0.665408 0.126557 0.147104
H8    H     H_    0.579020 0.665148 0.873911 0.146007
H9    H     H_    0.321628 0.430828 0.878867 0.226179
H10   H     H_    0.359967 0.263263 0.878029 0.194335
H11   H     H_    0.321504 0.430923 0.122120 0.227284
H12   H     H_    0.774344 0.320202 0.595829 0.131754
H13   H     H_    0.359697 0.263296 0.120968 0.189467
H14   H     H_    0.913147 0.218301 0.656524 0.170080
H15   H     H_    0.224849 0.319068 0.592935 0.131373
H16   H     H_    0.227871 0.682076 0.412427 0.147334
H17   H     H_    0.918592 0.797462 0.377067 0.153081
H18   H     H_    0.451495 0.112889 0.284386 0.167026
N1    N     N_R   0.499390 0.499140 0.142800 -0.106759
N2    N     N_R   0.499390 0.499180 0.857150 -0.105792
O1    O     O_R   0.500010 0.316790 0.614690 -0.619857
O2    O     O_R   0.500000 0.316760 0.385350 -0.620930
O3    O     O_R   0.367850 0.499990 0.614680 -0.619737
O4    O     O_R   0.367840 0.499950 0.385340 -0.622368
O5    O     O_R   0.500000 0.683240 0.614650 -0.619360
O6    O     O_R   0.499990 0.683210 0.385310 -0.629852
O7    O     O_R   0.632160 0.500050 0.614660 -0.615452
O8    O     O_R   0.632150 0.500010 0.385320 -0.610918
Zn1   Zn    Zn3+2 0.500010 0.500020 0.653130 0.942649
Zn2   Zn    Zn3+2 0.499990 0.499980 0.346870 0.943075
O9    O     O_3   0.083518 0.195756 0.684329 -0.778220
H19   H     H_    0.138050 0.224843 0.732682 0.320960
C35   C     C_R   0.095579 0.840354 0.384511 0.107653
C36   C     C_R   0.150844 0.901449 0.480289 -0.132970
C37   C     C_R   0.194734 0.014318 0.447612 -0.071156
C38   C     C_R   0.183034 0.067935 0.319868 -0.111438
C39   C     C_R   0.127367 0.008769 0.224637 -0.135105
C40   C     C_R   0.083548 0.895592 0.256736 -0.157143
H20   H     H_    0.159978 0.861471 0.580095 0.136859
H21   H     H_    0.237656 0.060366 0.521428 0.133415
H22   H     H_    0.216955 0.155409 0.294812 0.126531
H23   H     H_    0.118223 0.050575 0.125806 0.142450
H24   H     H_    0.040866 0.850582 0.181829 0.135021

loop_
_geom_bond_atom_site_label_1
_geom_bond_atom_site_label_2
_ccdc_geom_bond_type
C28   H13   S    
C19   C20   S    
C9    H17   S    
C7    C8    A    
C23   O5    A    
C26   C27   S    
C30   H1    S    
C5    C6    A    
C14   C21   S    
C1    O2    A    
C18   C19   A    
C39   H23   S    
N1    Zn2   S    
C16   C17   A    
N2    Zn1   S    
C3    C33   A    
C15   C16   A    
C3    H14   S    
C35   C40   A    
O7    Zn1   S    
C4    O9    S    
O8    Zn2   S    
C27   H10   S    
C8    C9    A    
O1    Zn1   S    
O2    Zn2   S    
C38   C39   A    
C1    C15   S    
C17   H2    S    
C12   O4    A    
C2    C34   A    
C22   C28   S    
C24   H7    S    
C10   H15   S    
C26   N2    A    
O3    Zn1   S    
C22   N1    A    
O4    Zn2   S    
C23   O6    A    
C29   O7    A    
C28   H11   S    
C35   C36   A    
C25   N2    A    
C36   C37   A    
C24   N1    A    
C6    C34   A    
C40   H24   S    
C20   H4    S    
C31   C32   A    
C21   H5    S    
C17   C18   A    
C37   H21   S    
C24   C25   A    
C12   O3    A    
C3    C4    A    
C38   H22   S    
C29   O8    A    
C32   H12   S    
C14   C19   A    
C16   H18   S    
C4    C5    A    
C25   H8    S    
C11   C12   S    
C6    C7    A    
O5    Zn1   S    
C2    C30   A    
O6    Zn2   S    
C32   C33   A    
C36   H20   S    
C5    C10   A    
C29   C31   S    
C20   H3    S    
C11   C13   A    
C30   C31   A    
C21   H6    S    
C18   C23   S    
C33   C34   A    
C1    O1    A    
C37   C38   A    
C10   C11   A    
C13   H16   S    
C27   H9    S    
C7    C13   A    
C39   C40   A    
C20   C21   S    
C8    C35   S    
O9    H19   S    
C22   C26   A    
C27   C28   S    
C14   C15   A    
C2    C9    A    
