data_mof_unit_52479.cif
_audit_creation_date              2012-12-10T17:24:12-0500
_audit_creation_method            fapswitch 2.2
_symmetry_space_group_name_H-M    P1
_symmetry_Int_Tables_number       1
_space_group_crystal_system       triclinic
_cell_length_a                    10.211921
_cell_length_b                    10.420705
_cell_length_c                    16.898184
_cell_angle_alpha                 92.199234
_cell_angle_beta                  77.217442
_cell_angle_gamma                 94.74568
_cell_volume                      1747.27669696

loop_
_atom_site_label
_atom_site_type_symbol
_atom_type_description
_atom_site_fract_x
_atom_site_fract_y
_atom_site_fract_z
_atom_type_partial_charge
C1    C     C_R   0.555367 0.735195 0.491665 0.936925
C2    C     C_R   0.445282 0.264674 0.501675 0.921351
C3    C     C_2   0.582586 0.873013 0.474672 -0.307765
C4    C     C_2   0.420813 0.125712 0.489027 -0.274430
C5    C     C_2   0.513538 0.926404 0.425273 -0.097984
C6    C     C_2   0.503607 0.066535 0.426158 -0.104406
C7    C     C_2   0.933917 0.524833 0.495353 -0.087411
C8    C     C_2   0.076464 0.491498 0.489175 -0.061396
C9    C     C_R   0.483890 0.508107 0.654317 0.918871
C10   C     C_R   0.517565 0.497366 0.345526 0.803731
C11   C     C_R   0.483673 0.544322 0.738414 -0.103467
C12   C     C_R   0.530495 0.507090 0.258624 -0.089260
C13   C     C_R   0.607035 0.567543 0.761300 -0.124068
C14   C     C_R   0.419765 0.537415 0.229012 -0.182053
C15   C     C_R   0.611463 0.617091 0.837329 -0.127880
C16   C     C_R   0.433770 0.556651 0.147262 -0.101029
C17   C     C_R   0.492046 0.635410 0.894397 0.087892
C18   C     C_R   0.559115 0.547496 0.093887 0.096231
C19   C     C_R   0.366121 0.615617 0.872281 0.000541
C20   C     C_R   0.671752 0.515230 0.122523 -0.012972
C21   C     C_R   0.363791 0.571256 0.793175 -0.148742
C22   C     C_R   0.655601 0.494716 0.205438 -0.142873
C23   C     C_2   0.501121 0.647559 0.979208 -0.225158
C24   C     C_2   0.566892 0.560126 0.007662 -0.236102
H1    H     H_    0.701063 0.547513 0.720685 0.211789
H2    H     H_    0.322411 0.547961 0.268947 0.159498
H3    H     H_    0.741324 0.471851 0.228816 0.202444
H4    H     H_    0.268663 0.555761 0.774568 0.203516
H5    H     H_    0.620530 0.489096 0.966950 0.160135
H6    H     H_    0.444662 0.717294 0.019331 0.160449
H7    H     H_    0.345521 0.576802 0.125580 0.148171
H8    H     H_    0.708417 0.632689 0.853801 0.162583
H9    H     H_    0.113606 0.620811 0.574257 0.165553
H10   H     H_    0.876333 0.360439 0.443213 0.186472
N1    N     N_2   0.846390 0.448330 0.467170 -0.204724
N2    N     N_2   0.153610 0.551670 0.532830 -0.212472
O1    O     O_R   0.430310 0.692580 0.506610 -0.640396
O2    O     O_R   0.569690 0.307420 0.493390 -0.644093
O3    O     O_R   0.652740 0.659410 0.485540 -0.556658
O4    O     O_R   0.347260 0.340590 0.514460 -0.519480
O5    O     O_R   0.375640 0.518570 0.627580 -0.605266
O6    O     O_R   0.624360 0.481430 0.372420 -0.627003
O7    O     O_R   0.598070 0.485390 0.606510 -0.563301
O8    O     O_R   0.401930 0.514610 0.393490 -0.650123
Zn1   Zn    Zn3+2 0.351480 0.522150 0.514070 0.989278
Zn2   Zn    Zn3+2 0.648520 0.477850 0.485930 0.993958
C25   C     C_2   0.237337 0.634498 0.931386 0.441421
H11   H     H_    0.236665 0.666980 0.993130 0.066806
O9    O     O_2   0.129280 0.613905 0.911713 -0.556050
C26   C     C_2   0.806726 0.507157 0.067612 0.433058
H12   H     H_    0.824549 0.534584 0.004668 0.096838
O10   O     O_2   0.900772 0.470537 0.092288 -0.543243
C27   C     C_2   0.586945 0.138248 0.355537 0.522305
H13   H     H_    0.567821 0.235849 0.344605 0.048800
O11   O     O_2   0.676609 0.087262 0.307827 -0.550573
C28   C     C_2   0.445732 0.848426 0.368124 0.511562
H14   H     H_    0.469049 0.750248 0.352829 0.049865
O12   O     O_2   0.364792 0.894916 0.336236 -0.556965
C29   C     C_2   0.317091 0.052200 0.549950 0.499194
H15   H     H_    0.295593 0.949403 0.541907 0.082722
O13   O     O_2   0.253750 0.106400 0.609928 -0.528230
C30   C     C_2   0.670752 0.953006 0.519614 0.447497
H16   H     H_    0.698825 0.053475 0.505114 0.102898
O14   O     O_2   0.712731 0.907331 0.573786 -0.519186
C31   C     C_2   0.129738 0.389338 0.431266 0.533977
H17   H     H_    0.169528 0.411369 0.367958 0.027210
O15   O     O_2   0.122540 0.278373 0.453374 -0.537497
C32   C     C_2   0.897735 0.651700 0.531061 0.538974
H18   H     H_    0.954473 0.738171 0.504610 0.051289
O16   O     O_2   0.811961 0.660511 0.593337 -0.521550

loop_
_geom_bond_atom_site_label_1
_geom_bond_atom_site_label_2
_ccdc_geom_bond_type
C1    C3    S    
C2    C4    S    
C23   C24   D    
C30   H16   S    
C2    O4    A    
C28   O12   D    
C10   O6    A    
C11   C13   A    
C2    O2    A    
C5    C28   S    
C9    O5    A    
C25   H11   S    
C10   O8    A    
C30   O14   D    
C3    C5    D    
C27   O11   D    
C26   H12   S    
N2    Zn1   S    
C25   O9    D    
C16   C18   A    
C27   H13   S    
O8    Zn1   S    
C16   H7    S    
C9    C11   S    
C13   H1    S    
C17   C23   S    
C10   C12   S    
O3    Zn2   S    
C18   C24   S    
C5    C6    S    
C4    C29   S    
C4    C6    D    
C19   C21   A    
C21   H4    S    
C20   C22   A    
H10   N1    S    
C18   C20   A    
C22   H3    S    
C13   C15   A    
C8    N2    D    
O4    Zn1   S    
C1    O1    A    
O7    Zn2   S    
C14   C16   A    
C29   O13   D    
C8    C31   S    
C9    O7    A    
C1    O3    A    
C6    C27   S    
O1    Zn1   S    
C23   H6    S    
C12   C22   A    
C29   H15   S    
H9    N2    S    
C28   H14   S    
C3    C30   S    
C32   O16   D    
C31   H17   S    
O6    Zn2   S    
C19   C25   S    
C26   O10   D    
C15   C17   A    
C7    C8    S    
O5    Zn1   S    
C24   H5    S    
C17   C19   A    
C20   C26   S    
O2    Zn2   S    
C7    C32   S    
N1    Zn2   S    
C7    N1    D    
C11   C21   A    
C14   H2    S    
C12   C14   A    
C32   H18   S    
C31   O15   D    
C15   H8    S    
