data_mof_unit_43373.cif
_audit_creation_date              2012-12-11T15:24:38-0500
_audit_creation_method            fapswitch 2.2
_symmetry_space_group_name_H-M    P1
_symmetry_Int_Tables_number       1
_space_group_crystal_system       monoclinic
_cell_length_a                    23.01976
_cell_length_b                    6.959543
_cell_length_c                    20.731692
_cell_angle_alpha                 90.0
_cell_angle_beta                  93.132025
_cell_angle_gamma                 90.0
_cell_volume                      3316.40121796

loop_
_atom_site_label
_atom_site_type_symbol
_atom_type_description
_atom_site_fract_x
_atom_site_fract_y
_atom_site_fract_z
_atom_type_partial_charge
O1    O     O_R   0.188030 0.379840 0.189340 -0.515264
O2    O     O_R   0.811970 0.620160 0.810660 -0.519682
O3    O     O_R   0.311970 0.879840 0.310660 -0.515264
O4    O     O_R   0.688030 0.120160 0.689340 -0.519682
O5    O     O_R   0.307090 0.708420 0.185790 -0.541383
O6    O     O_R   0.692910 0.291580 0.814210 -0.540108
O7    O     O_R   0.192910 0.208420 0.314210 -0.541383
O8    O     O_R   0.807090 0.791580 0.685790 -0.540108
C1    C     C_R   0.326692 0.540780 0.170696 0.719243
C2    C     C_R   0.673300 0.459216 0.829294 0.722344
C3    C     C_R   0.173308 0.040780 0.329304 0.719244
C4    C     C_R   0.826700 0.959216 0.670705 0.722344
O9    O     O_R   0.188180 0.709480 0.181650 -0.544769
O10   O     O_R   0.811820 0.290520 0.818350 -0.548606
O11   O     O_R   0.311820 0.209480 0.318350 -0.544769
O12   O     O_R   0.688180 0.790520 0.681650 -0.548606
O13   O     O_R   0.192210 0.880960 0.306500 -0.535324
O14   O     O_R   0.807790 0.119040 0.693500 -0.533509
O15   O     O_R   0.307790 0.380960 0.193500 -0.535324
O16   O     O_R   0.692210 0.619040 0.806500 -0.533509
C5    C     C_R   0.168343 0.540164 0.164784 0.745878
C6    C     C_R   0.831575 0.460014 0.835486 0.747545
C7    C     C_R   0.331657 0.040164 0.335215 0.745878
C8    C     C_R   0.668425 0.960014 0.664514 0.747545
O17   O     O_3   0.251460 0.546730 0.290970 -0.361071
O18   O     O_3   0.748540 0.453270 0.709030 -0.361315
O19   O     O_3   0.248540 0.046730 0.209030 -0.361071
O20   O     O_3   0.751460 0.953270 0.790970 -0.361315
V1    V     V_3+5 0.249730 0.821120 0.242400 1.510954
V2    V     V_3+5 0.750270 0.178880 0.757600 1.496107
V3    V     V_3+5 0.250270 0.321120 0.257600 1.510954
V4    V     V_3+5 0.749730 0.678880 0.742400 1.496107
C9    C     C_R   0.580261 0.821390 0.606344 -0.240474
C10   C     C_R   0.422392 0.173059 0.389312 -0.205689
C11   C     C_R   0.919739 0.321390 0.893656 -0.240474
C12   C     C_R   0.077608 0.673059 0.110688 -0.205688
C13   C     C_R   0.620253 0.972514 0.613538 -0.140644
C14   C     C_R   0.380292 0.027893 0.385315 -0.148309
C15   C     C_R   0.879747 0.472514 0.886462 -0.140644
C16   C     C_R   0.119708 0.527893 0.114684 -0.148310
C17   C     C_R   0.612631 0.137885 0.574169 0.331247
C18   C     C_R   0.384774 0.871456 0.428773 0.328649
C19   C     C_R   0.887369 0.637885 0.925831 0.331247
C20   C     C_R   0.115226 0.371456 0.071227 0.328649
C21   C     C_R   0.565959 0.147674 0.526005 -0.022727
C22   C     C_R   0.434187 0.853695 0.473112 -0.021227
C23   C     C_R   0.934041 0.647674 0.973995 -0.022727
C24   C     C_R   0.065813 0.353695 0.026888 -0.021227
C25   C     C_R   0.524789 0.995245 0.521537 -0.046889
C26   C     C_R   0.476147 0.003909 0.476505 -0.054346
C27   C     C_R   0.975211 0.495245 0.978463 -0.046889
C28   C     C_R   0.023853 0.503909 0.023495 -0.054345
C29   C     C_R   0.532407 0.832945 0.561775 0.095426
C30   C     C_R   0.469766 0.162738 0.434519 0.087640
C31   C     C_R   0.967593 0.332945 0.938225 0.095427
C32   C     C_R   0.030234 0.662738 0.065480 0.087640
C33   C     C_R   0.559850 0.302580 0.481461 0.350814
C34   C     C_R   0.443742 0.688836 0.512695 0.343587
C35   C     C_R   0.940150 0.802580 0.018539 0.350814
C36   C     C_R   0.056258 0.188836 0.987305 0.343586
C37   C     C_R   0.511614 0.308313 0.436827 -0.228788
C38   C     C_R   0.492413 0.681865 0.556766 -0.246522
C39   C     C_R   0.988386 0.808313 0.063173 -0.228788
C40   C     C_R   0.007586 0.181865 0.943234 -0.246522
H1    H     H_    0.585378 0.696200 0.637257 0.127265
H2    H     H_    0.418611 0.293993 0.356337 0.148448
H3    H     H_    0.914621 0.196200 0.862742 0.127265
H4    H     H_    0.081389 0.793993 0.143662 0.148448
H5    H     H_    0.506836 0.427688 0.403337 0.124411
H6    H     H_    0.499473 0.555895 0.586977 0.109844
H7    H     H_    0.993164 0.927688 0.096662 0.124411
H8    H     H_    0.000527 0.055895 0.913023 0.109844
C41   C     C_3   0.050572 0.045822 0.532923 -0.263041
C42   C     C_3   0.949446 0.954156 0.467094 -0.254945
C43   C     C_3   0.449428 0.545822 0.967076 -0.263040
C44   C     C_3   0.550554 0.454156 0.032906 -0.254945
C45   C     C_3   0.013427 0.863050 0.544804 -0.225293
C46   C     C_3   0.986590 0.136928 0.455213 -0.220926
C47   C     C_3   0.486572 0.363050 0.955195 -0.225294
C48   C     C_3   0.513410 0.636929 0.044787 -0.220926
H9    H     H_    0.024214 0.750091 0.581240 0.143690
H10   H     H_    0.975804 0.249886 0.418777 0.146430
H11   H     H_    0.475786 0.250091 0.918760 0.143690
H12   H     H_    0.524196 0.749886 0.081223 0.146430
H13   H     H_    0.091624 0.087307 0.559934 0.138503
H14   H     H_    0.908393 0.912670 0.440083 0.145201
H15   H     H_    0.408376 0.587307 0.940066 0.138503
H16   H     H_    0.591607 0.412670 0.059917 0.145201
C49   C     C_1   0.872102 0.968602 0.624920 -0.166717
C50   C     C_1   0.127911 0.031388 0.375094 -0.173025
C51   C     C_1   0.627898 0.468602 0.875080 -0.166717
C52   C     C_1   0.372089 0.531388 0.124905 -0.173025
C53   C     C_3   0.994124 0.165664 0.528953 0.414215
C54   C     C_3   0.005893 0.834315 0.471064 0.413632
C55   C     C_3   0.505876 0.665664 0.971047 0.414215
C56   C     C_3   0.494107 0.334315 0.028936 0.413632
C57   C     C_3   0.957443 0.987128 0.540964 0.091882
C58   C     C_3   0.042574 0.012850 0.459053 0.092278
C59   C     C_3   0.542557 0.487128 0.959035 0.091882
C60   C     C_3   0.457426 0.512850 0.040947 0.092278
C61   C     C_1   0.910428 0.976859 0.586973 0.033247
C62   C     C_1   0.089588 0.023124 0.413044 0.029514
C63   C     C_1   0.589572 0.476859 0.913027 0.033247
C64   C     C_1   0.410412 0.523124 0.086956 0.029515
O21   O     O_3   0.651522 0.286902 0.583322 -0.603694
H17   H     H_    0.628160 0.403050 0.591593 0.312241
O22   O     O_3   0.339243 0.742944 0.428466 -0.614256
H18   H     H_    0.327519 0.732577 0.473640 0.315739
O23   O     O_3   0.848477 0.786902 0.916677 -0.603695
H19   H     H_    0.871840 0.903050 0.908407 0.312241
O24   O     O_3   0.160757 0.242944 0.071533 -0.614256
H20   H     H_    0.172481 0.232577 0.026359 0.315738
O25   O     O_3   0.601969 0.443969 0.480349 -0.625532
H21   H     H_    0.590292 0.541992 0.447419 0.295419
O26   O     O_3   0.406862 0.532446 0.506162 -0.635279
H22   H     H_    0.419999 0.430394 0.537007 0.288740
O27   O     O_3   0.898031 0.943969 0.019651 -0.625532
H23   H     H_    0.909708 0.041992 0.052581 0.295419
O28   O     O_3   0.093138 0.032446 0.993838 -0.635278
H24   H     H_    0.080001 0.930394 0.962993 0.288740
O29   O     O_3   0.012966 0.659049 0.439607 -0.645782
H25   H     H_    0.977774 0.583523 0.448301 0.291467
O30   O     O_3   0.987052 0.340931 0.560410 -0.645929
H26   H     H_    0.022243 0.416456 0.551715 0.289462
O31   O     O_3   0.487034 0.159049 0.060393 -0.645782
H27   H     H_    0.522226 0.083523 0.051699 0.291467
O32   O     O_3   0.512948 0.840931 0.939590 -0.645929
H28   H     H_    0.477757 0.916457 0.948286 0.289463

loop_
_geom_bond_atom_site_label_1
_geom_bond_atom_site_label_2
_ccdc_geom_bond_type
C34   C38   A    
C59   C63   S    
O1    C5    A    
O19   V1    S    
O13   V1    S    
C42   C54   S    
O3    C7    A    
O24   H20   S    
C41   C53   S    
C48   H12   S    
O15   V3    S    
C10   H2    S    
C43   C55   S    
O30   H26   S    
C44   C59   S    
O7    C3    A    
C21   C33   A    
O5    C1    A    
C26   C30   A    
C17   O21   S    
C47   C59   S    
C14   C18   A    
O4    C8    A    
C55   C59   S    
C54   C58   S    
C46   C53   S    
C37   H5    S    
O26   H22   S    
C45   C54   S    
O1    V3    S    
C38   H6    S    
C36   O28   S    
O2    V4    S    
C18   C22   A    
O3    V1    S    
C50   C62   T    
C12   C16   A    
C28   C32   A    
C1    O15   A    
C60   C64   S    
C2    O16   A    
C46   C58   S    
O22   H18   S    
C45   C57   S    
O14   V2    S    
C45   H9    S    
C18   O22   S    
C44   H16   S    
C16   C20   A    
O11   C7    A    
O12   C8    A    
C22   C34   A    
O17   V1    S    
O10   V2    S    
C1    C52   S    
C24   C36   A    
C42   C57   S    
O5    V1    S    
C9    C29   A    
C41   C58   S    
O7    V3    S    
C9    H1    S    
C27   C28   A    
O8    V4    S    
C44   C48   S    
C4    C49   S    
O20   V4    S    
O18   V4    S    
C33   O25   S    
C58   C62   S    
C11   C31   A    
C9    C13   A    
C11   C15   A    
C20   O24   S    
O2    C6    A    
C12   C32   A    
C29   C38   A    
C46   H10   S    
C21   C25   A    
O8    C4    A    
C57   C61   S    
C31   C40   A    
C8    C13   S    
C32   C39   A    
O9    C5    A    
C42   H14   S    
C48   C55   S    
C33   C37   A    
C41   H13   S    
O29   H25   S    
C43   H15   S    
O6    V2    S    
C39   H7    S    
C2    C51   S    
C10   C30   A    
O19   V3    S    
O31   H27   S    
O32   H28   S    
C53   C57   S    
O25   H21   S    
O16   V4    S    
O9    V1    S    
C3    O13   A    
C17   C21   A    
C49   C61   T    
C10   C14   A    
O17   V3    S    
C53   O30   S    
C51   C63   T    
O6    C2    A    
C23   C27   A    
O28   H24   S    
C12   H4    S    
O11   V3    S    
C30   C37   A    
O12   V4    S    
C7    C14   S    
O21   H17   S    
C22   C26   A    
C35   C39   A    
C36   C40   A    
O10   C6    A    
O20   V2    S    
C47   C56   S    
O27   H23   S    
C44   C56   S    
C47   H11   S    
C3    C50   S    
C34   O26   S    
C5    C16   S    
C43   C47   S    
C25   C29   A    
C6    C15   S    
C56   C60   S    
C43   C60   S    
C56   O31   S    
C27   C31   A    
C40   H8    S    
C13   C17   A    
O4    V2    S    
C11   H3    S    
C52   C64   T    
C23   C35   A    
C54   O29   S    
C55   O32   S    
C24   C28   A    
C15   C19   A    
C35   O27   S    
C25   C26   A    
C42   C46   S    
C4    O14   A    
C41   C45   S    
C19   O23   S    
O23   H19   S    
C19   C23   A    
C48   C60   S    
C20   C24   A    
O18   V2    S    
