data_mof_unit_44441.cif
_audit_creation_date              2012-12-11T15:57:32-0500
_audit_creation_method            fapswitch 2.2
_symmetry_space_group_name_H-M    P1
_symmetry_Int_Tables_number       1
_space_group_crystal_system       triclinic
_cell_length_a                    10.714222
_cell_length_b                    10.768551
_cell_length_c                    16.986045
_cell_angle_alpha                 99.520054
_cell_angle_beta                  99.402485
_cell_angle_gamma                 61.538093
_cell_volume                      1691.09441702

loop_
_atom_site_label
_atom_site_type_symbol
_atom_type_description
_atom_site_fract_x
_atom_site_fract_y
_atom_site_fract_z
_atom_type_partial_charge
C1    C     C_R   0.355928 0.774610 0.401375 0.556109
C2    C     C_2   0.320589 0.317399 0.814900 0.015799
C3    C     C_2   0.325129 0.214221 0.755808 -0.127634
C4    C     C_R   0.370317 0.346971 0.357055 0.539042
C5    C     C_2   0.371651 0.198674 0.677521 -0.043687
C6    C     C_1   0.818138 0.341673 0.708510 -0.039094
C7    C     C_1   0.845394 0.312983 0.776177 -0.044867
C8    C     C_1   0.358372 0.764008 0.713539 -0.046198
C9    C     C_1   0.325866 0.811346 0.780483 -0.055608
C10   C     C_R   0.893006 0.308263 0.086222 0.552104
C11   C     C_R   0.319183 0.299946 0.119515 0.547219
C12   C     C_2   0.824917 0.332149 0.157826 -0.108590
C13   C     C_R   0.295117 0.888384 0.082317 0.550567
C14   C     C_R   0.886399 0.296629 0.858477 0.541560
C15   C     C_R   0.306823 0.291785 0.892901 0.547891
C16   C     C_R   0.774940 0.377837 0.404256 0.554882
C17   C     C_R   0.280532 0.880970 0.857235 0.541681
C18   C     C_R   0.381164 0.714164 0.631393 0.561311
C19   C     C_R   0.364025 0.343459 0.577708 0.529791
C20   C     C_R   0.773183 0.381067 0.629575 0.542711
C21   C     C_1   0.344180 0.337341 0.273669 -0.045893
C22   C     C_1   0.332302 0.327553 0.202748 -0.038086
C23   C     C_2   0.847942 0.220291 0.193868 -0.163646
C24   C     C_2   0.840840 0.333853 0.330205 -0.125077
C25   C     C_R   0.505295 0.068489 0.656289 0.065591
C26   C     C_R   0.623732 0.016707 0.714058 -0.092838
C27   C     C_R   0.750702 0.897736 0.694008 -0.111440
C28   C     C_R   0.761148 0.829356 0.616214 -0.089328
C29   C     C_R   0.643949 0.878573 0.558653 -0.064863
C30   C     C_R   0.515355 0.995291 0.578913 -0.028227
C31   C     C_3   0.345131 0.442574 0.807780 -0.283771
C32   C     C_3   0.501258 0.396935 0.799483 -0.433286
C33   C     C_3   0.199916 0.977848 0.313252 -0.272471
C34   C     C_2   0.820552 0.236924 0.276766 -0.170254
C35   C     C_3   0.223816 0.108921 0.324573 -0.422071
C36   C     C_2   0.338734 0.846746 0.332091 0.015864
C37   C     C_2   0.349661 0.808107 0.151356 -0.118842
C38   C     C_2   0.439669 0.831251 0.208467 -0.171405
C39   C     C_2   0.451536 0.791094 0.287962 -0.143328
C40   C     C_2   0.298501 0.308719 0.633302 -0.123472
Cr1   Cr    Cr6+3 0.608020 0.610770 0.522990 0.994890
Cr2   Cr    Cr6+3 0.289390 0.599570 0.488050 1.012611
Cr3   Cr    Cr6+3 0.602610 0.289690 0.489020 1.013160
Cr4   Cr    Cr6+3 0.053780 0.052210 0.965970 1.016745
Cr5   Cr    Cr6+3 0.060060 0.372530 0.992430 1.028800
Cr6   Cr    Cr6+3 0.372600 0.061970 0.991430 1.021796
H1    H     H_    0.893700 0.113108 0.163838 0.157750
H2    H     H_    0.618900 0.069638 0.774341 0.124863
H3    H     H_    0.841555 0.859450 0.738628 0.123373
H4    H     H_    0.860079 0.738255 0.600508 0.111757
H5    H     H_    0.653079 0.826182 0.498263 0.122940
H6    H     H_    0.424976 0.031062 0.533770 0.103884
H7    H     H_    0.516855 0.492439 0.802438 0.136656
H8    H     H_    0.571126 0.333333 0.849034 0.155275
H9    H     H_    0.533453 0.333576 0.741214 0.170535
H10   H     H_    0.275419 0.503360 0.757473 0.146070
H11   H     H_    0.315356 0.517774 0.862981 0.145564
H12   H     H_    0.194974 0.391691 0.650121 0.102265
H13   H     H_    0.259761 0.129370 0.388308 0.147098
H14   H     H_    0.304802 0.094910 0.286203 0.164946
H15   H     H_    0.123594 0.202831 0.307275 0.142944
H16   H     H_    0.152463 0.964671 0.251355 0.153351
H17   H     H_    0.120447 0.996204 0.354218 0.154086
H18   H     H_    0.779300 0.170826 0.292847 0.164020
H19   H     H_    0.774913 0.439541 0.187369 0.107745
H20   H     H_    0.886640 0.396166 0.314309 0.102351
H21   H     H_    0.493410 0.891026 0.199777 0.158339
H22   H     H_    0.552317 0.702715 0.306762 0.144715
H23   H     H_    0.296340 0.749383 0.162779 0.114579
H24   H     H_    0.313244 0.125081 0.769144 0.138284
O1    O     O_R   0.749250 0.499990 0.439200 -0.527973
O2    O     O_R   0.411120 0.181190 0.091480 -0.513696
O3    O     O_R   0.364220 0.944920 0.062310 -0.494637
O4    O     O_R   0.477870 0.725740 0.440280 -0.519219
O5    O     O_R   0.158740 0.906940 0.874970 -0.510740
O6    O     O_R   0.930920 0.176940 0.885610 -0.498969
O7    O     O_R   0.910730 0.394510 0.895320 -0.507836
O8    O     O_R   0.185840 0.361180 0.920280 -0.497686
O9    O     O_R   0.399210 0.173040 0.915160 -0.519086
O10   O     O_R   0.353170 0.937370 0.898860 -0.498979
O11   O     O_3   0.162150 0.162240 0.983280 -0.252861
O12   O     O_R   0.299400 0.468710 0.556310 -0.516862
O13   O     O_R   0.260770 0.742210 0.412610 -0.507661
O14   O     O_R   0.297990 0.466320 0.394220 -0.495326
O15   O     O_R   0.487720 0.253870 0.385870 -0.520564
O16   O     O_R   0.721940 0.304340 0.422320 -0.493741
O17   O     O_R   0.750770 0.502570 0.614050 -0.515578
O18   O     O_R   0.479280 0.728140 0.602370 -0.488509
O19   O     O_R   0.262290 0.744790 0.587460 -0.507462
O20   O     O_R   0.489240 0.256450 0.560730 -0.507195
O21   O     O_R   0.723350 0.306730 0.584410 -0.494898
O22   O     O_3   0.500010 0.500010 0.500020 -0.264444
O23   O     O_R   0.170650 0.915100 0.051290 -0.520186
O24   O     O_R   0.941960 0.184500 0.049060 -0.497860
O25   O     O_R   0.922640 0.402670 0.071640 -0.510416
O26   O     O_R   0.196880 0.368740 0.083740 -0.497156

loop_
_geom_bond_atom_site_label_1
_geom_bond_atom_site_label_2
_ccdc_geom_bond_type
C11   O26   A    
C37   H23   S    
C39   H22   S    
Cr2   O12   S    
C12   C23   D    
C26   C27   A    
C29   C30   A    
C1    O4    A    
C28   C29   A    
Cr6   O9    S    
C15   O8    A    
C10   O24   A    
C20   O17   A    
C33   C36   S    
C35   H13   S    
C14   O7    A    
Cr4   O6    S    
Cr4   O23   S    
Cr1   O4    S    
C28   H4    S    
C7    C14   S    
C15   O9    A    
C8    C9    T    
Cr5   O8    S    
C31   H10   S    
C19   O12   A    
C32   H9    S    
C13   C37   S    
C26   H2    S    
Cr1   O1    S    
C16   C24   S    
C21   C22   T    
C16   O16   A    
Cr3   O16   S    
Cr3   O21   S    
C16   O1    A    
C32   H8    S    
Cr1   O17   S    
C20   O21   A    
Cr3   O20   S    
C40   H12   S    
Cr3   O15   S    
C3    H24   S    
Cr2   O14   S    
Cr4   O11   S    
C11   O2    A    
C33   H16   S    
C4    O15   A    
C25   C26   A    
C17   O10   A    
C24   C34   D    
C13   O23   A    
C35   H14   S    
C14   O6    A    
Cr4   O5    S    
C37   C38   D    
Cr6   O11   S    
C31   C32   S    
C4    O14   A    
C33   H17   S    
C23   C34   S    
C34   H18   S    
C35   H15   S    
C2    C15   S    
C10   C12   S    
C5    C25   S    
C9    C17   S    
C13   O3    A    
Cr5   O25   S    
C32   H7    S    
Cr4   O24   S    
C29   H5    S    
C25   C30   A    
Cr1   O18   S    
C30   H6    S    
C18   O19   A    
Cr6   O2    S    
C36   C39   D    
Cr5   O11   S    
Cr2   O13   S    
C3    C5    S    
C6    C7    T    
C24   H20   S    
C1    O13   A    
C6    C20   S    
C12   H19   S    
C11   C22   S    
Cr3   O22   S    
Cr2   O19   S    
C31   H11   S    
C23   H1    S    
C2    C3    D    
C19   O20   A    
Cr6   O10   S    
C4    C21   S    
C38   C39   S    
C10   O25   A    
C33   C35   S    
Cr2   O22   S    
C8    C18   S    
C18   O18   A    
C19   C40   S    
Cr1   O22   S    
C38   H21   S    
C5    C40   D    
C27   C28   A    
C17   O5    A    
C2    C31   S    
Cr5   O7    S    
Cr5   O26   S    
Cr6   O3    S    
C27   H3    S    
C1    C36   S    
