data_mof_unit_51886.cif
_audit_creation_date              2012-12-10T16:39:32-0500
_audit_creation_method            fapswitch 2.2
_symmetry_space_group_name_H-M    P1
_symmetry_Int_Tables_number       1
_space_group_crystal_system       triclinic
_cell_length_a                    16.864557
_cell_length_b                    16.855934
_cell_length_c                    16.881545
_cell_angle_alpha                 65.788688
_cell_angle_beta                  65.800585
_cell_angle_gamma                 65.836037
_cell_volume                      3820.6089674

loop_
_atom_site_label
_atom_site_type_symbol
_atom_type_description
_atom_site_fract_x
_atom_site_fract_y
_atom_site_fract_z
_atom_type_partial_charge
Br1   Br    Br    0.227955 0.138815 0.789845 -0.376195
Br2   Br    Br    0.328825 0.879218 0.872822 -0.371017
Br3   Br    Br    0.130471 0.668823 0.121348 -0.388468
Br4   Br    Br    0.966027 0.287509 0.857123 -0.316105
Br5   Br    Br    0.759497 0.921901 0.189230 -0.353756
Br6   Br    Br    0.142511 0.787488 0.227740 -0.373921
Br7   Br    Br    0.882598 0.212713 0.764101 -0.369119
Br8   Br    Br    0.804579 0.238943 0.087908 -0.349876
Br9   Br    Br    0.213546 0.773234 0.854772 -0.363908
Br10  Br    Br    0.124564 0.105090 0.683055 -0.364594
Br11  Br    Br    0.852584 0.994838 0.273876 -0.331818
Br12  Br    Br    0.723740 0.146985 0.009756 -0.316382
C1    C     C_R   0.309979 0.009134 0.434113 0.034332
C2    C     C_R   0.330925 0.462347 0.933087 0.036830
C3    C     C_R   0.548246 0.415549 0.977196 -0.010046
C4    C     C_R   0.013280 0.455638 0.585835 -0.010623
C5    C     C_R   0.040348 0.524182 0.398028 -0.008038
C6    C     C_R   0.064512 0.669541 0.538202 0.040418
C7    C     C_R   0.958983 0.325456 0.453677 0.040170
C8    C     C_R   0.448499 0.011684 0.445603 0.027211
C9    C     C_R   0.536569 0.045554 0.534116 0.025442
C10   C     C_R   0.007171 0.447410 0.448356 0.026794
C11   C     C_R   0.039361 0.536424 0.537113 0.027274
C12   C     C_R   0.465736 0.463922 0.954531 0.026437
C13   C     C_R   0.554463 0.552177 0.987860 0.027798
C14   C     C_R   0.963836 0.179436 0.437366 0.856790
C15   C     C_R   0.673654 0.057363 0.539317 0.036737
C16   C     C_R   0.037836 0.820459 0.562011 0.897322
C17   C     C_R   0.179554 0.437973 0.962124 0.860248
C18   C     C_R   0.820546 0.562766 0.035599 0.898219
C19   C     C_R   0.437176 0.964584 0.179407 0.899097
C20   C     C_R   0.562199 0.037664 0.820447 0.857283
C21   C     C_R   0.569717 0.824733 0.017927 0.893174
C22   C     C_R   0.436945 0.179066 0.964606 0.882675
C23   C     C_R   0.034185 0.563519 0.821009 0.886046
C24   C     C_R   0.982447 0.430072 0.175072 0.893226
C25   C     C_R   0.821005 0.035589 0.562965 0.884867
C26   C     C_R   0.009907 0.433062 0.309347 0.030387
C27   C     C_R   0.175550 0.981356 0.430548 0.889951
C28   C     C_R   0.404456 0.993594 0.401886 0.070605
C29   C     C_R   0.582637 0.056802 0.580865 0.069856
C30   C     C_R   0.990933 0.402744 0.404039 0.070109
C31   C     C_R   0.051551 0.582479 0.583258 0.070664
C32   C     C_R   0.418984 0.417737 0.943386 0.069553
C33   C     C_R   0.598332 0.596167 0.005741 0.071818
C34   C     C_R   0.268647 0.982235 0.393846 -0.105200
C35   C     C_R   0.722584 0.057198 0.591581 -0.118765
C36   C     C_R   0.983204 0.392950 0.267885 -0.107728
C37   C     C_R   0.050342 0.541177 0.674768 0.035674
C38   C     C_R   0.053871 0.592298 0.722858 -0.115319
C39   C     C_R   0.408299 0.277557 0.943172 -0.118006
C40   C     C_R   0.606689 0.731855 0.016719 -0.105055
C41   C     C_R   0.591151 0.060476 0.720945 -0.115889
C42   C     C_R   0.405430 0.954077 0.276632 -0.125829
C43   C     C_R   0.723251 0.594767 0.046125 -0.126806
C44   C     C_R   0.279063 0.409166 0.939306 -0.116283
C45   C     C_R   0.059819 0.720959 0.590952 -0.125182
C46   C     C_R   0.952184 0.276989 0.405072 -0.118083
C47   C     C_R   0.442669 0.084240 0.700610 -0.157327
C48   C     C_R   0.460424 0.326502 0.943379 0.035481
C49   C     C_R   0.549170 0.946996 0.293787 -0.159310
C50   C     C_R   0.083827 0.700311 0.442557 -0.160919
C51   C     C_R   0.936834 0.298453 0.549060 -0.158590
C52   C     C_R   0.704913 0.451052 0.055048 -0.159401
C53   C     C_R   0.299766 0.558026 0.914622 -0.153099
C54   C     C_R   0.260510 0.051493 0.504461 -0.163148
C55   C     C_R   0.712487 0.056118 0.447594 -0.164389
C56   C     C_R   0.551915 0.287512 0.945520 -0.161095
C57   C     C_R   0.497794 0.740633 0.944972 -0.161986
C58   C     C_R   0.054829 0.501604 0.259824 -0.166506
C59   C     C_R   0.566867 0.690779 0.989085 0.032609
C60   C     C_R   0.043713 0.450974 0.714628 -0.158891
C61   C     C_R   0.316997 0.953975 0.317523 -0.286372
C62   C     C_R   0.679828 0.062236 0.679232 -0.283246
C63   C     C_R   0.954253 0.316845 0.316107 -0.286853
C64   C     C_R   0.061595 0.679084 0.679496 -0.280576
C65   C     C_R   0.320747 0.320395 0.937735 -0.282828
C66   C     C_R   0.682658 0.683354 0.045676 -0.286638
C67   C     C_R   0.674862 0.026660 0.408567 -0.047316
C68   C     C_R   0.303613 0.060299 0.554799 -0.035781
C69   C     C_R   0.011369 0.414777 0.677080 -0.054295
C70   C     C_R   0.538131 0.066591 0.669099 0.036982
C71   C     C_R   0.064185 0.551900 0.302760 -0.033656
C72   C     C_R   0.447872 0.697786 0.934881 -0.033222
C73   C     C_R   0.590348 0.325094 0.975622 -0.050533
C74   C     C_R   0.592858 0.971778 0.331636 -0.040813
C75   C     C_R   0.394445 0.079395 0.651921 -0.026603
C76   C     C_R   0.349239 0.606520 0.918114 -0.025343
C77   C     C_R   0.666641 0.407141 0.031043 -0.041240
C78   C     C_R   0.956837 0.339070 0.593949 -0.034038
C79   C     C_R   0.079688 0.651171 0.394172 -0.033226
C80   C     C_R   0.725753 0.998937 0.328988 0.239008
C81   C     C_R   0.454001 0.963631 0.323589 0.044230
C82   C     C_R   0.253745 0.088324 0.634373 0.232700
C83   C     C_R   0.976669 0.339426 0.729025 0.255646
C84   C     C_R   0.096932 0.628950 0.252616 0.229384
C85   C     C_R   0.370379 0.748037 0.903063 0.235769
C86   C     C_R   0.668942 0.273870 0.005008 0.247673
C87   C     C_R   0.685903 0.967752 0.292874 0.238420
C88   C     C_R   0.298835 0.098093 0.682703 0.260356
C89   C     C_R   0.320332 0.702508 0.896212 0.261955
C90   C     C_R   0.704260 0.313596 0.037115 0.240886
C91   C     C_R   0.944044 0.305350 0.688659 0.256069
C92   C     C_R   0.675987 0.546352 0.036871 0.044605
C93   C     C_R   0.102523 0.679681 0.298227 0.241760
C94   C     C_R   0.542073 0.002369 0.409403 -0.012893
C95   C     C_R   0.443244 0.054258 0.570858 -0.014142
C96   C     C_R   0.992175 0.414107 0.542753 -0.014830
C97   C     C_R   0.052022 0.571371 0.443110 -0.013705
C98   C     C_R   0.429789 0.557623 0.944218 -0.013551
C99   C     C_R   0.589759 0.458238 0.998901 -0.012892
C100  C     C_R   0.584698 0.024094 0.451001 -0.009350
C101  C     C_R   0.398467 0.041416 0.524254 -0.006316
C102  C     C_R   0.476749 0.602555 0.956458 -0.005909
H1    H     H_    0.283368 0.938356 0.285318 0.206765
H2    H     H_    0.903371 0.246038 0.588450 0.204089
H3    H     H_    0.756628 0.410640 0.089092 0.203265
H4    H     H_    0.239206 0.595275 0.893306 0.205695
H5    H     H_    0.188300 0.081720 0.518437 0.205686
H6    H     H_    0.770740 0.079865 0.404325 0.210059
H7    H     H_    0.595527 0.229220 0.922015 0.212809
H8    H     H_    0.484217 0.812932 0.915293 0.206708
H9    H     H_    0.085408 0.514543 0.187735 0.207870
H10   H     H_    0.066276 0.405666 0.772962 0.218007
H11   H     H_    0.718760 0.059477 0.718415 0.208357
H12   H     H_    0.939663 0.284093 0.282204 0.205227
H13   H     H_    0.060916 0.717696 0.717867 0.208608
H14   H     H_    0.281585 0.281443 0.940342 0.208982
H15   H     H_    0.714836 0.716911 0.061458 0.203969
H16   H     H_    0.405304 0.105552 0.761107 0.206521
H17   H     H_    0.589844 0.913198 0.241953 0.204568
H18   H     H_    0.106740 0.760073 0.405302 0.204714
O1    O     O_R   0.982940 0.138950 0.510160 -0.631546
O2    O     O_R   0.982940 0.510160 0.138950 -0.627387
O3    O     O_R   0.861050 0.017060 0.489840 -0.627526
O4    O     O_R   0.138950 0.982940 0.510160 -0.624591
O5    O     O_R   0.867700 0.025880 0.612340 -0.612604
O6    O     O_R   0.132300 0.974120 0.387660 -0.618355
O7    O     O_R   0.025880 0.612340 0.867700 -0.613979
O8    O     O_R   0.974120 0.387660 0.132300 -0.618284
O9    O     O_R   0.612340 0.867700 0.025880 -0.618130
O10   O     O_R   0.387660 0.132300 0.974120 -0.614119
O11   O     O_R   0.387660 0.974120 0.132300 -0.600081
O12   O     O_R   0.017060 0.861050 0.489840 -0.617190
O13   O     O_R   0.612340 0.025880 0.867700 -0.617093
O14   O     O_R   0.132300 0.387660 0.974120 -0.616069
O15   O     O_R   0.867700 0.612340 0.025880 -0.603848
O16   O     O_R   0.974120 0.132300 0.387660 -0.616084
O17   O     O_R   0.025880 0.867700 0.612340 -0.601597
O18   O     O_R   0.138950 0.510160 0.982940 -0.630350
O19   O     O_R   0.861050 0.489840 0.017060 -0.618104
O20   O     O_R   0.510160 0.982940 0.138950 -0.620365
O21   O     O_R   0.489840 0.017060 0.861050 -0.630801
O22   O     O_R   0.489840 0.861050 0.017060 -0.624517
O23   O     O_R   0.510160 0.138950 0.982940 -0.628316
O24   O     O_R   0.017060 0.489840 0.861050 -0.631011
Zn1   Zn    Zn3+2 0.004880 0.004880 0.583590 1.081580
Zn2   Zn    Zn3+2 0.995120 0.995120 0.416410 1.071194
Zn3   Zn    Zn3+2 0.004880 0.583590 0.004880 1.072515
Zn4   Zn    Zn3+2 0.995120 0.416410 0.995120 1.074102
Zn5   Zn    Zn3+2 0.583590 0.004880 0.004880 1.071875
Zn6   Zn    Zn3+2 0.416410 0.995120 0.995120 1.081078

loop_
_geom_bond_atom_site_label_1
_geom_bond_atom_site_label_2
_ccdc_geom_bond_type
C2    C44   A    
C84   C93   A    
C26   C58   A    
C47   H16   S    
O9    Zn5   S    
C77   C90   A    
C33   C59   A    
C79   C93   A    
C41   C62   A    
C47   C70   A    
C28   C81   A    
O15   Zn3   S    
C76   C89   A    
C13   C99   A    
C18   O15   A    
C10   C96   A    
C94   C100  A    
C16   C45   S    
O23   Zn5   S    
C21   C40   S    
C22   C39   S    
C67   C100  A    
C72   C85   A    
C45   C64   A    
C66   H15   S    
C26   C30   A    
C38   C64   A    
C1    C34   A    
C69   C83   A    
C49   C81   A    
C62   H11   S    
O14   Zn4   S    
Br10  C82   S    
C22   O23   A    
Br4   C83   S    
C11   C31   A    
C57   C59   A    
C15   C29   A    
C95   C101  A    
C1    C28   A    
C73   C86   A    
C23   O7    A    
C17   O18   A    
C58   H9    S    
Br6   C93   S    
Br5   C87   S    
Br2   C85   S    
C7    C51   A    
C42   C81   A    
C37   C60   A    
C53   H4    S    
C25   O3    A    
Br3   C84   S    
C16   O12   A    
C25   C35   S    
C55   H6    S    
C98   C102  A    
O11   Zn6   S    
Br12  C86   S    
O20   Zn5   S    
C7    C30   A    
C3    C73   A    
C76   C98   A    
O2    Zn3   S    
C27   O6    A    
O7    Zn3   S    
C16   O17   A    
O3    Zn2   S    
C25   O5    A    
C60   H10   S    
C56   C73   A    
C36   C63   A    
C74   C94   A    
C52   C77   A    
C40   C66   A    
Br11  C80   S    
Br1   C88   S    
C83   C91   A    
C46   C63   A    
C8    C94   A    
C1    C54   A    
C7    C46   A    
C11   C97   A    
O18   Zn3   S    
C3    C99   A    
O24   Zn4   S    
C12   C98   A    
C23   O24   A    
C17   O14   A    
C43   C66   A    
C4    C96   A    
C21   O22   A    
C6    C50   A    
C20   O13   A    
C21   O9    A    
C86   C90   A    
C43   C92   A    
C14   O1    A    
C52   H3    S    
C24   O2    A    
C41   C70   A    
C5    C71   A    
C27   O4    A    
C39   C65   A    
C74   C87   A    
C33   C92   A    
C50   H18   S    
C42   C61   A    
C14   C46   S    
O6    Zn2   S    
C6    C45   A    
C82   C88   A    
C50   C79   A    
C23   C38   S    
C55   C67   A    
O16   Zn2   S    
C14   O16   A    
C58   C71   A    
C24   O8    A    
C67   C80   A    
C9    C95   A    
C65   H14   S    
C27   C34   S    
C9    C29   A    
O4    Zn1   S    
C3    C12   A    
C4    C11   A    
C54   H5    S    
C12   C32   A    
C51   H2    S    
O12   Zn2   S    
C13   C33   A    
C20   C41   S    
C9    C100  A    
C53   C76   A    
C2    C32   A    
C75   C88   A    
C15   C35   A    
C52   C92   A    
C22   O10   A    
C72   C102  A    
C44   C65   A    
C29   C70   A    
C26   C36   A    
O22   Zn6   S    
C31   C37   A    
C60   C69   A    
C35   C62   A    
C5    C97   A    
C56   H7    S    
O10   Zn6   S    
C17   C44   S    
C54   C68   A    
C18   C43   S    
C77   C99   A    
C5    C10   A    
C61   H1    S    
O5    Zn1   S    
O21   Zn6   S    
C63   H12   S    
O19   Zn4   S    
C79   C97   A    
C78   C96   A    
C57   C72   A    
C13   C102  A    
O8    Zn4   S    
C19   O20   A    
C18   O19   A    
C10   C30   A    
O13   Zn5   S    
C57   H8    S    
C32   C48   A    
C8    C28   A    
C71   C84   A    
C51   C78   A    
C4    C69   A    
C2    C53   A    
C24   C36   S    
O1    Zn1   S    
C19   C42   S    
C19   O11   A    
C8    C101  A    
C47   C75   A    
C78   C91   A    
C15   C55   A    
C49   C74   A    
C49   H17   S    
C20   O21   A    
C75   C95   A    
C68   C101  A    
C48   C56   A    
Br9   C89   S    
C37   C38   A    
C40   C59   A    
C64   H13   S    
C68   C82   A    
Br7   C91   S    
C39   C48   A    
O17   Zn1   S    
C6    C31   A    
Br8   C90   S    
C34   C61   A    
C85   C89   A    
C80   C87   A    
