data_mof_unit_9191.cif
_audit_creation_date              2013-03-05T16:06:00-0500
_audit_creation_method            fapswitch 2.2
_symmetry_space_group_name_H-M    P1
_symmetry_Int_Tables_number       1
_space_group_crystal_system       triclinic
_cell_length_a                    10.888284
_cell_length_b                    9.684903
_cell_length_c                    23.407766
_cell_angle_alpha                 89.998869
_cell_angle_beta                  91.667066
_cell_angle_gamma                 89.999604
_cell_volume                      2467.3503851

loop_
_atom_site_label
_atom_site_type_symbol
_atom_site_description
_atom_site_fract_x
_atom_site_fract_y
_atom_site_fract_z
_atom_type_partial_charge
O1    O     O_R   0.319640 0.618740 0.500000 -0.563299
O2    O     O_R   0.680360 0.381260 0.500000 -0.572315
O3    O     O_R   0.680360 0.618740 0.500000 -0.563395
O4    O     O_R   0.319640 0.381260 0.500000 -0.572550
C1    C     C_R   0.262506 0.500071 0.500297 0.793542
C2    C     C_R   0.737494 0.500070 0.499708 0.793574
O5    O     O_R   0.499960 0.618810 0.417880 -0.565781
O6    O     O_R   0.500040 0.381190 0.582120 -0.568803
O7    O     O_R   0.500040 0.618810 0.582120 -0.565686
O8    O     O_R   0.499960 0.381190 0.417880 -0.568668
C3    C     C_R   0.499780 0.499014 0.391217 0.807615
C4    C     C_R   0.500226 0.499010 0.608783 0.807558
Cu1   Cu    Cu3+1 0.500000 0.640660 0.500000 1.019524
Cu2   Cu    Cu3+1 0.500000 0.359340 0.500000 1.005396
C5    C     C_R   0.605276 0.398235 0.880070 0.672932
C6    C     C_R   0.394838 0.398319 0.119927 0.672902
N1    N     N_R   0.496813 0.429748 0.851975 -0.436501
N2    N     N_R   0.503284 0.429887 0.148023 -0.436456
C7    C     C_R   0.390046 0.439087 0.881026 0.625822
C8    C     C_R   0.610046 0.439291 0.118973 0.625618
C9    C     C_R   0.387251 0.400055 0.938874 -0.071383
C10   C     C_R   0.612871 0.400231 0.061128 -0.071463
C11   C     C_R   0.499811 0.394302 0.969880 -0.009077
C12   C     C_R   0.500315 0.394356 0.030121 -0.008964
C13   C     C_R   0.611559 0.391240 0.940605 -0.110258
C14   C     C_R   0.388565 0.391301 0.059395 -0.110339
C15   C     C_R   0.277550 0.367601 0.967001 -0.096556
C16   C     C_R   0.722588 0.367792 0.033010 -0.096429
C17   C     C_R   0.276593 0.375946 0.027232 -0.060550
C18   C     C_R   0.723535 0.375927 0.972772 -0.060563
O9    O     O_2   0.705465 0.373835 0.849158 -0.450758
O10   O     O_2   0.294660 0.373853 0.150839 -0.450740
O11   O     O_2   0.289170 0.492664 0.854687 -0.467180
O12   O     O_2   0.710879 0.492949 0.145313 -0.467059
C19   C     C_R   0.582250 0.371136 0.246080 -0.067649
C20   C     C_R   0.417843 0.371024 0.753915 -0.067738
C21   C     C_R   0.585434 0.399250 0.304650 -0.238693
C22   C     C_R   0.414616 0.399195 0.695350 -0.238637
H1    H     H_    0.647613 0.341511 0.332715 0.212191
H2    H     H_    0.352435 0.341460 0.667286 0.212234
C23   C     C_R   0.502106 0.491357 0.328530 -0.163804
C24   C     C_R   0.497919 0.491334 0.671470 -0.163907
C25   C     C_R   0.414094 0.558071 0.292690 0.291366
C26   C     C_R   0.585945 0.558025 0.707309 0.291341
C27   C     C_R   0.425231 0.549938 0.232874 0.472873
C28   C     C_R   0.574826 0.549861 0.767126 0.472896
C29   C     C_R   0.504899 0.451229 0.209283 0.152395
C30   C     C_R   0.495186 0.451116 0.790715 0.152334
C31   C     C_R   0.063666 0.375351 0.500914 -0.148546
C32   C     C_R   0.936238 0.625720 0.499725 -0.121735
C33   C     C_R   0.936345 0.375346 0.499198 -0.148398
C34   C     C_R   0.063754 0.625722 0.500208 -0.121717
H3    H     H_    0.110911 0.277208 0.502530 0.211486
H4    H     H_    0.888630 0.723863 0.499434 0.196671
H5    H     H_    0.889109 0.277194 0.497661 0.211489
H6    H     H_    0.111353 0.723867 0.500431 0.196764
C35   C     C_R   0.871624 0.500399 0.499400 -0.034701
C36   C     C_R   0.128376 0.500403 0.500617 -0.034737
C37   C     C_R   0.435996 0.074446 0.458762 0.022551
C38   C     C_R   0.562933 0.926799 0.541580 0.013871
C39   C     C_R   0.563974 0.074437 0.541250 0.022410
C40   C     C_R   0.437063 0.926809 0.458422 0.013884
N3    N     N_R   0.500000 0.852070 0.500000 -0.244067
N4    N     N_R   0.500000 0.147930 0.500000 -0.249760
C41   C     C_2   0.178205 0.285476 0.937245 0.882560
O13   O     O_2   0.146787 0.307669 0.887619 -0.498008
O14   O     O_R   0.125629 0.174550 0.966029 -0.708366
H7    H     H_    0.066442 0.119078 0.940929 0.389737
C42   C     C_2   0.821979 0.285836 0.062806 0.882823
O15   O     O_2   0.853808 0.308649 0.112330 -0.497898
O16   O     O_R   0.874185 0.174441 0.034181 -0.708237
H8    H     H_    0.933518 0.119220 0.059303 0.389712
C43   C     C_2   0.156093 0.382238 0.054527 0.972518
O17   O     O_2   0.118059 0.282505 0.080636 -0.493518
O18   O     O_R   0.086897 0.503412 0.050219 -0.711901
H9    H     H_    0.007644 0.498069 0.071694 0.369630
C44   C     C_2   0.844036 0.381903 0.945462 0.972323
O19   O     O_2   0.881883 0.282039 0.919377 -0.493703
O20   O     O_R   0.913455 0.502921 0.949731 -0.711998
H10   H     H_    0.992676 0.497363 0.928240 0.369426
C45   C     C_2   0.656044 0.253013 0.225516 0.982360
O21   O     O_2   0.619714 0.184429 0.184537 -0.569693
O22   O     O_R   0.765631 0.217023 0.254421 -0.720918
H11   H     H_    0.807176 0.134357 0.236730 0.364335
C46   C     C_2   0.344117 0.252837 0.774471 0.982738
O23   O     O_2   0.380510 0.184227 0.815432 -0.569507
O24   O     O_R   0.234527 0.216814 0.745575 -0.720856
H12   H     H_    0.193033 0.134099 0.763258 0.364398
O25   O     O_3   0.310003 0.618811 0.313707 -0.715635
H13   H     H_    0.297155 0.585829 0.353090 0.347529
O26   O     O_3   0.690038 0.618759 0.686290 -0.715641
H14   H     H_    0.702851 0.585835 0.646897 0.347487
O27   O     O_3   0.354405 0.631058 0.196143 -0.663126
H15   H     H_    0.311236 0.702395 0.218288 0.379588
O28   O     O_3   0.645644 0.630985 0.803856 -0.663109
H16   H     H_    0.688787 0.702345 0.781711 0.379589
C47   C     C_2   0.362501 0.146926 0.413931 0.911569
O29   O     O_2   0.404658 0.163438 0.366553 -0.556840
O30   O     O_R   0.241100 0.183320 0.423922 -0.773362
H17   H     H_    0.199296 0.229091 0.389590 0.340703
C48   C     C_2   0.628958 0.858363 0.589338 0.909397
O31   O     O_2   0.728479 0.804092 0.582114 -0.588589
O32   O     O_R   0.584318 0.874521 0.644329 -0.716250
H18   H     H_    0.649855 0.860128 0.675280 0.374865
C49   C     C_2   0.637224 0.146925 0.586162 0.911602
O33   O     O_2   0.594934 0.163084 0.633533 -0.556946
O34   O     O_R   0.758515 0.183888 0.576236 -0.773252
H19   H     H_    0.800096 0.229707 0.610609 0.340669
C50   C     C_2   0.371064 0.858394 0.410651 0.909496
O35   O     O_2   0.271596 0.804001 0.417872 -0.588540
O36   O     O_R   0.415649 0.874716 0.355657 -0.716411
H20   H     H_    0.350125 0.860223 0.324709 0.374873

loop_
_geom_bond_atom_site_label_1
_geom_bond_atom_site_label_2
_geom_bond_distance
_ccdc_geom_bond_type
O24   H12   1.013937 S    
O27   H15   0.990532 S    
C15   C17   1.412530 A    
C43   O18   1.396643 S    
C43   O17   1.221762 D    
O28   H16   0.990547 S    
N1    C30   1.448399 S    
O3    C2    1.306977 A    
C27   O27   1.382947 S    
N2    C29   1.448387 S    
C47   O29   1.223028 D    
C19   C45   1.486130 S    
C46   O23   1.223007 D    
O5    C3    1.317412 A    
C49   O34   1.394305 S    
C37   N4    1.372900 A    
C32   H4    1.082590 S    
C1    C36   1.460687 S    
C38   N3    1.379081 A    
O1    C1    1.306974 A    
C19   C21   1.397195 A    
C12   C14   1.414024 A    
C22   C24   1.400336 A    
C50   O36   1.397890 S    
C5    C13   1.418249 A    
C17   C43   1.477199 S    
C42   O16   1.399342 S    
O7    Cu1   1.933842 S    
C4    C24   1.470197 S    
C47   O30   1.394348 S    
C18   C44   1.477246 S    
C28   O28   1.382940 S    
C16   C42   1.497900 S    
C31   C33   1.385722 A    
C32   C34   1.388155 A    
O34   H19   1.013957 S    
C20   C30   1.418002 A    
C33   C35   1.401293 A    
C39   C49   1.478332 S    
N2    C8    1.366742 A    
O3    Cu1   1.975250 S    
C8    O12   1.347683 S    
C44   O20   1.396641 S    
C9    C15   1.415898 A    
C19   C29   1.418002 A    
C48   O32   1.397878 S    
C10   C16   1.415901 A    
Cu1   Cu2   2.724557 S    
O4    Cu2   1.975251 S    
C23   C25   1.411668 A    
C2    C35   1.460684 S    
O2    C2    1.308177 A    
C24   C26   1.411672 A    
C45   O22   1.398591 S    
C26   C28   1.411114 A    
C45   O21   1.222997 D    
C27   C29   1.413928 A    
C6    C14   1.418207 A    
C28   C30   1.413949 A    
C46   O24   1.398606 S    
O14   H7    1.013473 S    
C48   O31   1.220547 D    
C7    O11   1.347720 S    
O26   H14   0.989404 S    
C41   O14   1.399361 S    
C44   O19   1.221773 D    
C31   C36   1.401285 A    
C38   C39   1.429935 A    
C39   N4    1.372935 A    
O18   H9    1.012540 S    
C40   N3    1.379103 A    
C15   C41   1.498008 S    
O22   H11   1.013909 S    
Cu1   N3    2.047485 S    
O6    C4    1.300592 A    
Cu2   N4    2.047486 S    
C25   O25   1.380239 S    
C25   C27   1.411114 A    
C26   O26   1.380248 S    
C34   C36   1.402793 A    
C8    C10   1.407081 A    
C9    C11   1.407187 A    
O8    Cu2   1.933842 S    
C37   C47   1.478331 S    
C10   C12   1.407196 A    
O1    Cu1   1.975254 S    
C38   C48   1.469374 S    
C13   C18   1.421981 A    
C5    N1    1.369370 A    
C37   C40   1.429922 A    
O6    Cu2   1.933850 S    
O36   H20   1.011650 S    
C7    C9    1.407033 A    
C32   C35   1.402788 A    
O4    C1    1.308181 A    
C5    O9    1.347367 S    
C20   C46   1.486128 S    
C6    O10   1.347366 S    
C49   O33   1.223015 D    
O30   H17   1.014015 S    
C16   C18   1.412577 A    
O16   H8    1.013440 S    
C21   H1    1.084775 S    
C50   O35   1.220541 D    
C22   H2    1.084773 S    
C40   C50   1.469385 S    
C31   H3    1.080919 S    
C20   C22   1.397190 A    
N1    C7    1.366763 A    
C3    C23   1.470195 S    
C33   H5    1.080916 S    
C11   C13   1.414021 A    
C21   C23   1.400329 A    
C42   O15   1.220412 D    
O2    Cu2   1.975253 S    
O7    C4    1.317426 A    
O8    C3    1.300607 A    
C11   C12   1.409965 A    
O20   H10   1.012551 S    
O5    Cu1   1.933850 S    
C14   C17   1.421943 A    
C6    N2    1.369334 A    
C41   O13   1.220450 D    
O32   H18   1.011650 S    
O25   H13   0.989406 S    
C34   H6    1.082581 S    
