data_mof_unit_60284.cif
_audit_creation_date              2012-12-10T19:08:14-0500
_audit_creation_method            fapswitch 2.2
_symmetry_space_group_name_H-M    P1
_symmetry_Int_Tables_number       1
_space_group_crystal_system       monoclinic
_cell_length_a                    25.560442
_cell_length_b                    34.57738
_cell_length_c                    21.500916
_cell_angle_alpha                 90.0
_cell_angle_beta                  126.646852
_cell_angle_gamma                 90.0
_cell_volume                      15246.5033129

loop_
_atom_site_label
_atom_site_type_symbol
_atom_type_description
_atom_site_fract_x
_atom_site_fract_y
_atom_site_fract_z
_atom_type_partial_charge
C1    C     C_R   0.141653 0.250014 0.999951 0.780667
C2    C     C_3   0.731822 0.240532 0.929058 -0.178192
C3    C     C_R   0.026936 0.917882 0.968933 -0.176072
C4    C     C_R   0.489761 0.582116 0.937212 -0.184894
C5    C     C_R   0.473097 0.417883 0.031107 -0.175845
C6    C     C_R   0.510239 0.582116 0.062788 -0.184895
C7    C     C_R   0.526903 0.417883 0.968893 -0.175845
C8    C     C_R   0.000000 0.102503 0.000000 0.000143
C9    C     C_R   1.000000 0.897495 0.000000 -0.001719
C10   C     C_R   0.500000 0.602503 0.000000 -0.000240
C11   C     C_R   0.500000 0.397495 0.000000 -0.001857
C12   C     C_R   0.000000 0.021335 0.000000 0.110252
C13   C     C_3   0.757855 0.785366 0.980772 -0.171034
C14   C     C_R   0.000000 0.978662 0.000000 0.109914
C15   C     C_R   0.500000 0.521336 0.000000 0.110257
C16   C     C_R   0.500000 0.478662 0.000000 0.109897
C17   C     C_R   0.000000 0.144877 0.000000 0.777794
C18   C     C_R   1.000000 0.855122 0.000000 0.792339
C19   C     C_R   0.500000 0.644877 0.000000 0.776583
C20   C     C_R   0.500000 0.355122 0.000000 0.793462
C21   C     C_R   1.000000 0.355175 0.000000 0.799789
C22   C     C_R   0.000000 0.644822 0.000000 0.772263
C23   C     C_R   0.500000 0.855175 0.000000 0.801114
C24   C     C_3   0.268178 0.240532 0.070942 -0.178193
C25   C     C_R   0.500000 0.144822 0.000000 0.771109
C26   C     C_R   0.052388 0.458151 0.063313 -0.170540
C27   C     C_R   0.941867 0.541837 0.969019 -0.171424
C28   C     C_R   0.947612 0.458151 0.936687 -0.170540
C29   C     C_R   0.058133 0.541837 0.030981 -0.171424
C30   C     C_R   0.552400 0.958152 0.063300 -0.170369
C31   C     C_R   0.441873 0.041837 0.969057 -0.171394
C32   C     C_R   0.447600 0.958152 0.936700 -0.170370
C33   C     C_R   0.558127 0.041837 0.030943 -0.171395
C34   C     C_R   0.052603 0.417900 0.063043 -0.163352
C35   C     C_3   0.768199 0.259483 0.071003 -0.153799
C36   C     C_R   0.941792 0.582087 0.968503 -0.179584
C37   C     C_R   0.947397 0.417900 0.936957 -0.163352
C38   C     C_R   0.058208 0.582087 0.031497 -0.179585
C39   C     C_R   0.552615 0.917901 0.063030 -0.163303
C40   C     C_R   0.441798 0.082088 0.968541 -0.179700
C41   C     C_R   0.447385 0.917901 0.936970 -0.163304
C42   C     C_R   0.558202 0.082088 0.031459 -0.179701
C43   C     C_R   0.000000 0.397526 0.000000 -0.019945
C44   C     C_R   0.000000 0.602465 0.000000 -0.000479
C45   C     C_R   0.500000 0.897527 0.000000 -0.019533
C46   C     C_3   0.257875 0.714650 0.980828 -0.188763
C47   C     C_R   0.500000 0.102465 0.000000 -0.000549
C48   C     C_R   0.000000 0.478664 0.000000 0.103114
C49   C     C_R   1.000000 0.521323 1.000000 0.112160
C50   C     C_R   0.500000 0.978665 0.000000 0.103140
C51   C     C_R   0.500000 0.021323 0.000000 0.112129
C52   C     C_3   0.777077 0.285394 0.019245 -0.179322
C53   C     C_3   0.259202 0.723981 0.052096 -0.113800
C54   C     C_3   0.222923 0.285394 0.980756 -0.179322
C55   C     C_3   0.740798 0.723981 0.947904 -0.113800
C56   C     C_3   0.240818 0.776036 0.947959 -0.130370
C57   C     C_3   0.231801 0.259483 0.928997 -0.153800
C58   C     C_3   0.722947 0.214621 0.980817 -0.185757
C59   C     C_3   0.759181 0.776036 0.052041 -0.130369
C60   C     C_3   0.277053 0.214621 0.019183 -0.185758
C61   C     C_2   0.241009 0.327340 0.453739 0.968381
C62   C     C_2   0.668136 0.740292 0.545964 0.972228
C63   C     C_2   0.758991 0.327340 0.546261 0.968382
C64   C     C_2   0.331865 0.740298 0.454035 0.972228
C65   C     C_2   0.740957 0.827342 0.453738 0.968456
C66   C     C_2   0.168114 0.240363 0.545981 0.971616
C67   C     C_2   0.259035 0.827341 0.546261 0.968456
C68   C     C_3   0.742125 0.714650 0.019172 -0.188763
C69   C     C_2   0.831887 0.240365 0.454019 0.971615
C70   C     C_3   0.199126 0.749839 0.000330 0.046707
C71   C     C_3   0.801134 0.249939 0.000199 0.047018
C72   C     C_3   0.800873 0.749839 0.999670 0.046708
C73   C     C_R   0.858289 0.749944 0.999929 0.785135
C74   C     C_3   0.198866 0.249939 0.999801 0.047018
C75   C     C_3   0.698888 0.250076 0.999856 0.044073
C76   C     C_3   0.300894 0.750177 0.999721 0.043825
C77   C     C_3   0.301112 0.250076 0.000144 0.044073
C78   C     C_3   0.699106 0.750177 0.000279 0.043827
C79   C     C_3   0.196925 0.740485 0.929110 -0.183290
C80   C     C_3   0.793185 0.223999 0.052018 -0.118247
C81   C     C_3   0.803075 0.740485 0.070890 -0.183290
C82   C     C_3   0.206815 0.224000 0.947982 -0.118246
C83   C     C_3   0.706838 0.276016 0.948042 -0.130259
C84   C     C_R   0.858347 0.250014 0.000049 0.780667
C85   C     C_3   0.303096 0.759531 0.070945 -0.156009
C86   C     C_3   0.293162 0.276016 0.051958 -0.130258
C87   C     C_3   0.696903 0.759531 0.929055 -0.156011
C88   C     C_R   0.213308 0.289331 0.415047 -0.132852
C89   C     C_R   0.739085 0.746055 0.584808 -0.136109
C90   C     C_R   0.786692 0.289331 0.584953 -0.132852
C91   C     C_R   0.260915 0.746057 0.415192 -0.136110
C92   C     C_R   0.713289 0.789329 0.415045 -0.132735
C93   C     C_R   0.239068 0.246094 0.584818 -0.135679
C94   C     C_R   0.286707 0.789329 0.584955 -0.132736
C95   C     C_R   0.141711 0.749944 0.000071 0.785138
C96   C     C_R   0.760932 0.246095 0.415182 -0.135683
C97   C     C_R   0.175718 0.287139 0.333861 0.585386
C98   C     C_R   0.782664 0.743825 0.666023 0.587631
C99   C     C_R   0.824282 0.287139 0.666139 0.585385
C100  C     C_R   0.217336 0.743828 0.333976 0.587631
C101  C     C_R   0.675694 0.787140 0.333859 0.584896
C102  C     C_R   0.282650 0.243863 0.666034 0.586885
C103  C     C_R   0.324303 0.787139 0.666141 0.584897
C104  C     C_R   0.717350 0.243864 0.333966 0.586885
C105  C     C_R   0.145770 0.252158 0.295187 -0.150261
C106  C     C_R   0.641703 0.750064 0.000052 0.780523
C107  C     C_R   0.849497 0.751332 0.704814 -0.149585
C108  C     C_R   0.854230 0.252158 0.704813 -0.150261
C109  C     C_R   0.150503 0.751332 0.295186 -0.149582
C110  C     C_R   0.645773 0.752155 0.295184 -0.150303
C111  C     C_R   0.349491 0.251338 0.704816 -0.149295
C112  C     C_R   0.354227 0.752155 0.704815 -0.150306
C113  C     C_R   0.650509 0.251338 0.295184 -0.149293
C114  C     C_R   0.153865 0.219166 0.337712 -0.258975
C115  C     C_R   0.873041 0.760717 0.662405 -0.260304
C116  C     C_R   0.846134 0.219165 0.662288 -0.258974
C117  C     C_R   0.358339 0.249993 0.000029 0.784070
C118  C     C_R   0.126958 0.760714 0.337595 -0.260305
C119  C     C_R   0.653902 0.719155 0.337707 -0.258551
C120  C     C_R   0.373038 0.260699 0.662401 -0.259950
C121  C     C_R   0.346101 0.719156 0.662293 -0.258551
C122  C     C_R   0.626961 0.260698 0.337599 -0.259950
C123  C     C_R   0.192334 0.220684 0.418111 -0.145927
C124  C     C_R   0.830774 0.761980 0.581990 -0.145969
C125  C     C_R   0.807665 0.220683 0.581889 -0.145921
C126  C     C_R   0.169224 0.761977 0.418010 -0.145969
C127  C     C_R   0.692378 0.720670 0.418107 -0.146074
C128  C     C_R   0.358297 0.750064 0.999948 0.780523
C129  C     C_R   0.330768 0.261964 0.581987 -0.146174
C130  C     C_R   0.307625 0.720670 0.581893 -0.146072
C131  C     C_R   0.669231 0.261962 0.418013 -0.146178
C132  C     C_R   0.221965 0.255433 0.457309 0.012313
C133  C     C_R   0.763986 0.754915 0.542660 0.013611
C134  C     C_R   0.778034 0.255432 0.542691 0.012317
C135  C     C_R   0.236013 0.754914 0.457340 0.013608
C136  C     C_R   0.721980 0.755423 0.457306 0.012274
C137  C     C_R   0.263974 0.254925 0.542663 0.013662
C138  C     C_R   0.278019 0.755423 0.542693 0.012277
C139  C     C_R   0.641660 0.249993 0.999971 0.784071
C140  C     C_R   0.736026 0.254925 0.457337 0.013663
C141  C     C_R   0.989302 0.041858 0.936953 -0.173500
C142  C     C_R   0.972622 0.958139 0.030550 -0.171045
C143  C     C_R   0.010698 0.041858 0.063047 -0.173500
C144  C     C_R   0.027377 0.958139 0.969450 -0.171044
C145  C     C_R   0.489276 0.541859 0.936939 -0.173663
C146  C     C_R   0.472655 0.458139 0.030589 -0.171092
C147  C     C_R   0.510724 0.541859 0.063061 -0.173662
C148  C     C_R   0.527345 0.458139 0.969411 -0.171092
C149  C     C_R   0.895047 0.250324 0.789663 0.849875
C150  C     C_3   0.242145 0.785366 0.019227 -0.171033
C151  C     C_R   0.105587 0.750145 0.210332 0.851232
C152  C     C_R   0.104953 0.250324 0.210337 0.849874
C153  C     C_R   0.894413 0.750145 0.789668 0.851228
C154  C     C_R   0.395047 0.750324 0.789664 0.849872
C155  C     C_R   0.605588 0.250146 0.210332 0.851021
C156  C     C_R   0.604953 0.750324 0.210336 0.849874
C157  C     C_R   0.394412 0.250146 0.789668 0.851020
C158  C     C_R   0.989786 0.082115 0.937226 -0.184829
C159  C     C_R   0.973064 0.917882 0.031067 -0.176071
C160  C     C_R   0.010214 0.082115 0.062774 -0.184829
F1    F     F_    0.165060 0.319596 0.292071 -0.621258
F2    F     F_    0.759533 0.736594 0.707726 -0.618077
F3    F     F_    0.834940 0.319596 0.707929 -0.621257
F4    F     F_    0.240468 0.736599 0.292273 -0.618078
F5    F     F_    0.665004 0.819603 0.292068 -0.621730
F6    F     F_    0.259518 0.236662 0.707746 -0.619386
F7    F     F_    0.334989 0.819602 0.707931 -0.621728
F8    F     F_    0.740482 0.236665 0.292254 -0.619383
H1    H     H_    0.092852 0.473180 0.113519 0.142308
H2    H     H_    0.950105 0.973165 0.053179 0.134496
H3    H     H_    0.020269 0.026832 0.113063 0.136473
H4    H     H_    0.049895 0.973165 0.946821 0.134496
H5    H     H_    0.479684 0.526833 0.886912 0.136505
H6    H     H_    0.450162 0.473165 0.053248 0.134455
H7    H     H_    0.520316 0.526833 0.113088 0.136505
H8    H     H_    0.549838 0.473165 0.946752 0.134455
H9    H     H_    0.981254 0.097274 0.887842 0.159229
H10   H     H_    0.951505 0.902721 0.054766 0.159772
H11   H     H_    0.018746 0.097275 0.112158 0.159228
H12   H     H_    0.896561 0.526807 0.946047 0.136254
H13   H     H_    0.048494 0.902721 0.945234 0.159772
H14   H     H_    0.481208 0.597276 0.887818 0.159647
H15   H     H_    0.451565 0.402722 0.054838 0.159613
H16   H     H_    0.518792 0.597276 0.112182 0.159647
H17   H     H_    0.548435 0.402722 0.945162 0.159613
H18   H     H_    0.093473 0.402732 0.112624 0.183827
H19   H     H_    0.896377 0.597252 0.944462 0.162412
H20   H     H_    0.906527 0.402732 0.887376 0.183827
H21   H     H_    0.103623 0.597252 0.055538 0.162412
H22   H     H_    0.593494 0.902733 0.112600 0.183428
H23   H     H_    0.907148 0.473180 0.886481 0.142308
H24   H     H_    0.396390 0.097253 0.944533 0.162882
H25   H     H_    0.406506 0.902733 0.887400 0.183427
H26   H     H_    0.603610 0.097253 0.055467 0.162882
H27   H     H_    0.234579 0.814321 0.034966 0.144953
H28   H     H_    0.718046 0.232785 0.870930 0.140288
H29   H     H_    0.765421 0.814321 0.965034 0.144953
H30   H     H_    0.281954 0.232785 0.129070 0.140288
H31   H     H_    0.781966 0.267224 0.129130 0.167990
H32   H     H_    0.265436 0.685693 0.965090 0.140905
H33   H     H_    0.218034 0.267224 0.870870 0.167989
H34   H     H_    0.103438 0.526807 0.053953 0.136254
H35   H     H_    0.734564 0.685693 0.034910 0.140905
H36   H     H_    0.800353 0.314375 0.034955 0.146733
H37   H     H_    0.265841 0.702622 0.094834 0.167458
H38   H     H_    0.199647 0.314375 0.965046 0.146733
H39   H     H_    0.734159 0.702622 0.905166 0.167458
H40   H     H_    0.234176 0.797398 0.905225 0.158039
H41   H     H_    0.699669 0.185640 0.965110 0.139113
H42   H     H_    0.765824 0.797398 0.094774 0.158037
H43   H     H_    0.300330 0.185640 0.034890 0.139113
H44   H     H_    0.152321 0.732679 0.871035 0.138543
H45   H     H_    0.592873 0.973181 0.113495 0.142277
H46   H     H_    0.829524 0.202648 0.094703 0.160592
H47   H     H_    0.847679 0.732679 0.128965 0.138542
H48   H     H_    0.170475 0.202648 0.905296 0.160592
H49   H     H_    0.670498 0.297368 0.905360 0.154131
H50   H     H_    0.347697 0.767338 0.129022 0.156211
H51   H     H_    0.329502 0.297368 0.094641 0.154130
H52   H     H_    0.652303 0.767338 0.870978 0.156210
H53   H     H_    0.131228 0.192020 0.308736 0.179148
H54   H     H_    0.924393 0.766474 0.691492 0.178496
H55   H     H_    0.868771 0.192019 0.691264 0.179147
H56   H     H_    0.396574 0.026807 0.946115 0.136348
H57   H     H_    0.075605 0.766469 0.308508 0.178493
H58   H     H_    0.631286 0.692006 0.308729 0.179364
H59   H     H_    0.424396 0.266435 0.691484 0.178605
H60   H     H_    0.368720 0.692007 0.691271 0.179367
H61   H     H_    0.575603 0.266433 0.308516 0.178603
H62   H     H_    0.199210 0.194601 0.450154 0.150237
H63   H     H_    0.850165 0.768464 0.550038 0.148824
H64   H     H_    0.800788 0.194601 0.549846 0.150235
H65   H     H_    0.149834 0.768459 0.449962 0.148824
H66   H     H_    0.699281 0.694582 0.450148 0.150191
H67   H     H_    0.407126 0.973181 0.886505 0.142277
H68   H     H_    0.350161 0.268427 0.550031 0.148800
H69   H     H_    0.300725 0.694583 0.549852 0.150191
H70   H     H_    0.649838 0.268425 0.449969 0.148800
H71   H     H_    0.277418 0.378995 0.453001 0.343593
H72   H     H_    0.598181 0.713739 0.546700 0.347195
H73   H     H_    0.722584 0.378995 0.546999 0.343593
H74   H     H_    0.401823 0.713751 0.453296 0.347196
H75   H     H_    0.777316 0.879015 0.452998 0.343633
H76   H     H_    0.098134 0.213860 0.546736 0.347154
H77   H     H_    0.222670 0.879011 0.547000 0.343633
H78   H     H_    0.603426 0.026807 0.053885 0.136348
H79   H     H_    0.901869 0.213868 0.453259 0.347154
H80   H     H_    0.979731 0.026832 0.886937 0.136473
O1    O     O_3   1.000000 0.250010 0.000000 -0.496625
O2    O     O_R   0.359980 0.227250 0.954550 -0.622241
O3    O     O_R   0.359980 0.772750 0.954550 -0.646141
O4    O     O_R   0.640020 0.227250 0.045450 -0.622241
O5    O     O_R   0.944020 0.227270 0.826530 -0.650866
O6    O     O_R   0.055980 0.772730 0.173470 -0.651034
O7    O     O_R   0.055980 0.227270 0.173470 -0.650867
O8    O     O_R   0.944020 0.772730 0.826530 -0.651036
O9    O     O_R   0.444020 0.727270 0.826530 -0.650951
O10   O     O_R   0.555980 0.272730 0.173470 -0.651289
O11   O     O_R   0.555980 0.727270 0.173470 -0.650950
O12   O     O_3   0.000000 0.749990 0.000000 -0.496670
O13   O     O_R   0.444020 0.272730 0.826530 -0.651289
O14   O     O_R   0.008020 0.163280 0.954510 -0.647362
O15   O     O_R   0.991980 0.836720 0.045490 -0.641224
O16   O     O_R   0.991980 0.163280 0.045490 -0.647362
O17   O     O_R   0.008020 0.836720 0.954510 -0.641225
O18   O     O_R   0.508020 0.663280 0.954510 -0.647055
O19   O     O_R   0.491980 0.336720 0.045490 -0.641468
O20   O     O_R   0.491980 0.663280 0.045490 -0.647055
O21   O     O_R   0.508020 0.336720 0.954510 -0.641468
O22   O     O_R   0.053480 0.336740 0.045470 -0.630069
O23   O     O_3   0.500000 0.750010 0.000000 -0.496590
O24   O     O_R   0.946520 0.663260 0.954530 -0.645580
O25   O     O_R   0.946520 0.336740 0.954530 -0.630068
O26   O     O_R   0.053480 0.663260 0.045470 -0.645582
O27   O     O_R   0.553480 0.836740 0.045470 -0.630305
O28   O     O_R   0.446520 0.163260 0.954530 -0.645087
O29   O     O_R   0.446520 0.836740 0.954530 -0.630304
O30   O     O_R   0.553480 0.163260 0.045470 -0.645088
O31   O     O_R   0.882520 0.272750 0.826550 -0.583492
O32   O     O_R   0.117480 0.727250 0.173450 -0.580857
O33   O     O_R   0.117480 0.272750 0.173450 -0.583491
O34   O     O_3   0.500000 0.249990 0.000000 -0.496738
O35   O     O_R   0.882520 0.727250 0.826550 -0.580853
O36   O     O_R   0.382520 0.772750 0.826550 -0.583510
O37   O     O_R   0.617480 0.227250 0.173450 -0.580730
O38   O     O_R   0.617480 0.772750 0.173450 -0.583514
O39   O     O_R   0.382520 0.227250 0.826550 -0.580728
O40   O     O_R   0.094550 0.227270 0.954490 -0.644339
O41   O     O_R   0.905450 0.772730 0.045510 -0.647522
O42   O     O_R   0.905450 0.227270 0.045510 -0.644340
O43   O     O_R   0.094550 0.772730 0.954490 -0.647522
O44   O     O_R   0.594550 0.727270 0.954490 -0.637549
O45   O     O_R   0.140020 0.272750 0.045450 -0.639582
O46   O     O_R   0.405450 0.272730 0.045510 -0.653779
O47   O     O_R   0.405450 0.727270 0.045510 -0.637549
O48   O     O_R   0.594550 0.272730 0.954490 -0.653779
O49   O     O_2   0.246817 0.335462 0.512947 -0.606877
O50   O     O_R   0.259607 0.354226 0.421694 -0.735887
O51   O     O_2   0.627703 0.757923 0.486540 -0.602127
O52   O     O_R   0.647433 0.715056 0.578115 -0.731692
O53   O     O_2   0.753182 0.335462 0.487052 -0.606880
O54   O     O_R   0.740394 0.354226 0.578306 -0.735885
O55   O     O_2   0.372296 0.757929 0.513461 -0.602130
O56   O     O_R   0.859980 0.727250 0.954550 -0.629465
O57   O     O_R   0.352570 0.715066 0.421882 -0.731688
O58   O     O_2   0.746761 0.835451 0.512948 -0.606582
O59   O     O_R   0.759527 0.854245 0.421691 -0.736089
O60   O     O_2   0.127697 0.257995 0.486550 -0.601963
O61   O     O_R   0.147388 0.215156 0.578147 -0.731474
O62   O     O_2   0.253231 0.835451 0.487051 -0.606583
O63   O     O_R   0.240461 0.854242 0.578308 -0.736090
O64   O     O_2   0.872303 0.257995 0.513454 -0.601967
O65   O     O_R   0.852615 0.215164 0.421848 -0.731466
O66   O     O_R   0.859980 0.272750 0.954550 -0.639582
O67   O     O_R   0.140020 0.727250 0.045450 -0.629466
O68   O     O_R   0.640020 0.772750 0.045450 -0.646143
Zn1   Zn    Zn3+2 0.923580 0.282490 0.935040 1.019341
Zn2   Zn    Zn3+2 0.988550 0.782480 0.064990 0.976296
Zn3   Zn    Zn3+2 0.988550 0.217520 0.064990 0.967941
Zn4   Zn    Zn3+2 0.011450 0.782480 0.935010 0.976296
Zn5   Zn    Zn3+2 0.511450 0.717520 0.935010 0.969965
Zn6   Zn    Zn3+2 0.488550 0.282480 0.064990 0.973768
Zn7   Zn    Zn3+2 0.488550 0.717520 0.064990 0.969967
Zn8   Zn    Zn3+2 0.511450 0.282480 0.935010 0.973768
Zn9   Zn    Zn3+2 0.076420 0.717510 0.064960 1.011235
Zn10  Zn    Zn3+2 0.076420 0.282490 0.064960 1.019341
Zn11  Zn    Zn3+2 0.923580 0.717510 0.935040 1.011236
Zn12  Zn    Zn3+2 0.423580 0.782490 0.935040 1.017067
Zn13  Zn    Zn3+2 0.576420 0.217510 0.064960 1.013482
Zn14  Zn    Zn3+2 0.576420 0.782490 0.064960 1.017065
Zn15  Zn    Zn3+2 0.423580 0.217510 0.935040 1.013483
Zn16  Zn    Zn3+2 0.011450 0.217520 0.935010 0.967942

loop_
_geom_bond_atom_site_label_1
_geom_bond_atom_site_label_2
_ccdc_geom_bond_type
C157  O13   A    
C153  O35   A    
C154  O36   A    
C70   C150  S    
C125  H64   S    
O5    Zn16  S    
C126  C135  A    
C56   C79   S    
C124  C133  A    
C68   C81   S    
C109  C151  S    
C46   C79   S    
C90   C134  A    
O37   Zn13  S    
C35   C80   S    
O34   Zn13  S    
C34   H18   S    
C126  H65   S    
C41   H25   S    
C131  C140  A    
C65   O59   S    
C54   C74   S    
C66   O60   D    
C113  C122  A    
O46   Zn6   S    
C67   C94   S    
C91   C100  A    
C155  O37   A    
C84   O66   A    
C88   C97   A    
C59   H42   S    
O4    Zn13  S    
C142  H2    S    
C97   C105  A    
C24   H30   S    
C100  C109  A    
C2    C83   S    
O36   Zn12  S    
C113  C155  S    
C20   O19   A    
C98   F2    S    
C66   O61   S    
C21   O22   A    
C23   O29   A    
C79   H44   S    
O20   Zn7   S    
C14   C144  A    
C11   C20   S    
C61   O49   D    
C127  C136  A    
C155  O10   A    
O44   Zn5   S    
C132  C137  S    
C6    H16   S    
C103  C112  A    
O2    Zn15  S    
C6    C10   A    
C152  O7    A    
C40   H24   S    
C73   O56   A    
C33   H78   S    
C120  H59   S    
C135  C138  S    
C19   O18   A    
C96   C104  A    
C36   C44   A    
C69   O64   D    
C2    C71   S    
C130  C138  A    
C29   H34   S    
C70   C79   S    
O47   Zn7   S    
O27   Zn14  S    
C72   C73   S    
C117  O2    A    
H77   O63   S    
C13   C72   S    
C8    C17   S    
C78   C106  S    
C116  H55   S    
C30   H45   S    
C83   H49   S    
C146  H6    S    
C46   C53   S    
C114  H53   S    
C111  C157  S    
C143  H3    S    
C96   C140  A    
C129  C137  A    
C41   C45   A    
C53   C85   S    
O33   Zn10  S    
O30   Zn13  S    
C76   C85   S    
C1    O40   A    
C78   C87   S    
C14   C142  A    
C103  F7    S    
C123  C132  A    
C115  H54   S    
O9    Zn5   S    
C121  C130  A    
C151  O32   A    
C141  H80   S    
C35   H31   S    
C143  C160  A    
C29   C49   A    
C99   C108  A    
C148  H8    S    
C13   H29   S    
C1    C74   S    
C25   O28   A    
O1    Zn1   S    
C139  O48   A    
C149  O5    A    
C12   C141  A    
C17   O14   A    
C46   H32   S    
O41   Zn2   S    
C29   C38   A    
C32   C41   A    
O43   Zn4   S    
C95   O43   A    
C39   C45   A    
C102  F6    S    
C112  C154  S    
C64   O55   D    
C62   O51   D    
C23   O27   A    
C59   C78   S    
O12   Zn9   S    
O32   Zn9   S    
C128  O3    A    
C89   C133  A    
O29   Zn12  S    
C120  C129  A    
C69   O65   S    
C54   C86   S    
C85   H50   S    
O15   Zn2   S    
C3    C9    A    
C106  O44   A    
C141  C158  A    
C107  C115  A    
C13   C87   S    
C84   O42   A    
C87   H52   S    
C107  C153  S    
C66   C93   S    
C99   F3    S    
C114  C123  A    
C97   F1    S    
C116  C125  A    
C159  H10   S    
C56   C150  S    
C28   H23   S    
C122  C131  A    
O18   Zn5   S    
C122  H61   S    
C28   C48   A    
C7    H17   S    
O11   Zn7   S    
C34   C43   A    
C31   C51   A    
C25   O30   A    
C21   O25   A    
C110  C119  A    
O1    Zn3   S    
O19   Zn6   S    
C13   C59   S    
C58   C80   S    
C55   H39   S    
C64   C91   S    
C12   C143  A    
C1    O45   A    
C89   C98   A    
C17   O16   A    
C18   O15   A    
C75   C139  S    
C6    C147  A    
C81   H47   S    
C123  H62   S    
C28   C37   A    
C4    C145  A    
C20   O21   A    
O68   Zn14  S    
O42   Zn3   S    
C30   C39   A    
C2    H28   S    
C149  O31   A    
C55   C87   S    
O1    Zn10  S    
C65   O58   D    
O16   Zn3   S    
C31   H56   S    
C9    C18   S    
C63   O54   S    
C57   H33   S    
C57   C82   S    
C73   O41   A    
C24   C86   S    
O21   Zn8   S    
O12   Zn11  S    
C27   C49   A    
C119  H58   S    
H73   O54   S    
C54   C57   S    
C119  C127  A    
C125  C134  A    
C130  H69   S    
C23   C45   S    
C40   C47   A    
O17   Zn4   S    
C90   C99   A    
C139  O4    A    
C142  C159  A    
C8    C158  A    
H79   O65   S    
C55   C68   S    
C102  C111  A    
O23   Zn12  S    
C5    C11   A    
O38   Zn14  S    
C147  H7    S    
C58   H41   S    
C131  H70   S    
C62   C89   S    
C31   C40   A    
O6    Zn2   S    
C85   C150  S    
O25   Zn1   S    
C54   H38   S    
C109  C118  A    
C61   O50   S    
C25   C47   S    
C72   C81   S    
C26   C48   A    
C156  O11   A    
O66   Zn1   S    
C30   C50   A    
C92   C136  A    
O24   Zn11  S    
C74   C82   S    
C53   C70   S    
C156  O38   A    
C68   C78   S    
C129  H68   S    
C57   C77   S    
C98   C107  A    
O28   Zn15  S    
C52   H36   S    
C37   C43   A    
C52   C83   S    
C38   C44   A    
C56   H40   S    
C10   C19   S    
C38   H21   S    
O23   Zn7   S    
C50   C51   S    
C100  F4    S    
C27   H12   S    
C101  F5    S    
C64   O57   S    
C3    H13   S    
C92   C101  A    
O67   Zn9   S    
C151  O6    A    
C82   H48   S    
C48   C49   S    
C94   C103  A    
C94   C138  A    
C33   C42   A    
C8    C160  A    
O35   Zn11  S    
C22   O24   A    
C105  C152  S    
C115  C124  A    
C3    C144  A    
C59   C81   S    
C93   C102  A    
O40   Zn16  S    
C18   O17   A    
C2    C58   S    
O14   Zn16  S    
C67   O62   D    
C27   C36   A    
C33   C51   A    
C144  H4    S    
C117  O46   A    
C36   H19   S    
O34   Zn8   S    
C108  C116  A    
C101  C110  A    
C95   O67   A    
C52   C71   S    
C15   C147  A    
C75   C83   S    
H72   O52   S    
C86   H51   S    
C60   H43   S    
C124  H63   S    
C110  C156  S    
O3    Zn12  S    
C112  C121  A    
C91   C135  A    
C35   C52   S    
C4    H14   S    
C5    H15   S    
C22   O26   A    
C32   H67   S    
C65   C92   S    
C56   C76   S    
C62   O52   S    
C69   C96   S    
H76   O61   S    
C46   C76   S    
C106  O68   A    
C157  O39   A    
C7    C11   A    
C35   C75   S    
C121  H60   S    
C158  H9    S    
C77   C117  S    
C134  C140  S    
C37   H20   S    
C9    C159  A    
C15   C16   S    
O23   Zn5   S    
O12   Zn2   S    
C16   C146  A    
C42   H26   S    
C21   C43   S    
C60   C82   S    
C26   C34   A    
C22   C44   S    
C26   H1    S    
C133  C136  S    
C53   H37   S    
C55   C72   S    
H71   O50   S    
O26   Zn9   S    
O45   Zn10  S    
C68   H35   S    
O22   Zn10  S    
O13   Zn8   S    
C71   C80   S    
O56   Zn11  S    
C58   C75   S    
C118  H57   S    
C150  H27   S    
C60   C77   S    
O34   Zn6   S    
C105  C114  A    
C15   C145  A    
C39   H22   S    
C80   H46   S    
H75   O59   S    
C104  C113  A    
C111  C120  A    
C160  H11   S    
C61   C88   S    
C104  F8    S    
O39   Zn15  S    
C24   C60   S    
H74   O57   S    
O34   Zn15  S    
C32   C50   A    
C154  O9    A    
C153  O8    A    
C145  H5    S    
C77   C86   S    
C63   O53   D    
C88   C132  A    
C4    C10   A    
C152  O33   A    
C71   C84   S    
C127  H66   S    
C5    C146  A    
O1    Zn16  S    
O10   Zn6   S    
C7    C148  A    
O12   Zn4   S    
C16   C148  A    
C70   C95   S    
C12   C14   S    
C24   C74   S    
C128  O47   A    
C67   O63   S    
C76   C128  S    
C63   C90   S    
C42   C47   A    
C93   C137  A    
C108  C149  S    
O31   Zn1   S    
O23   Zn14  S    
O48   Zn8   S    
C118  C126  A    
O7    Zn3   S    
C19   O20   A    
O8    Zn4   S    
