data_mof_unit_26317.cif
_audit_creation_date              2012-12-10T18:05:40-0500
_audit_creation_method            fapswitch 2.2
_symmetry_space_group_name_H-M    P1
_symmetry_Int_Tables_number       1
_space_group_crystal_system       triclinic
_cell_length_a                    10.845446
_cell_length_b                    10.820575
_cell_length_c                    9.579531
_cell_angle_alpha                 88.78511
_cell_angle_beta                  89.529715
_cell_angle_gamma                 91.496325
_cell_volume                      1123.51676706

loop_
_atom_site_label
_atom_site_type_symbol
_atom_type_description
_atom_site_fract_x
_atom_site_fract_y
_atom_site_fract_z
_atom_type_partial_charge
C1    C     C_R   0.499576 0.262259 0.500860 0.779358
C2    C     C_R   0.500424 0.737741 0.499140 0.779367
C3    C     C_R   0.871436 0.494399 0.501299 -0.080056
C4    C     C_R   0.128563 0.505594 0.498702 -0.080059
C5    C     C_R   0.936956 0.453040 0.619861 0.003499
C6    C     C_R   0.063044 0.546953 0.380140 0.003495
C7    C     C_R   0.470887 0.065765 0.378251 -0.185768
C8    C     C_R   0.529114 0.934235 0.621748 -0.185765
C9    C     C_R   0.471692 0.937970 0.377284 -0.201518
C10   C     C_R   0.528309 0.062029 0.622715 -0.201520
C11   C     C_R   0.500868 0.871695 0.498823 -0.011062
C12   C     C_R   0.499132 0.128304 0.501176 -0.011060
C13   C     C_R   0.434492 0.412704 0.079152 -0.046614
C14   C     C_R   0.565508 0.587296 0.920848 -0.046594
C15   C     C_R   0.433513 0.411566 0.931228 0.278645
C16   C     C_R   0.566487 0.588434 0.068772 0.278665
C17   C     C_R   0.262507 0.503224 0.499801 0.788237
C18   C     C_R   0.737493 0.496774 0.500199 0.788228
C19   C     C_R   0.237099 0.767006 0.131716 -0.137457
C20   C     C_R   0.762862 0.233052 0.868329 -0.137443
C21   C     C_R   0.181823 0.717202 0.253614 -0.109801
C22   C     C_R   0.818138 0.282830 0.746417 -0.109753
C23   C     C_R   0.123557 0.599787 0.252428 0.136708
C24   C     C_R   0.876443 0.400227 0.747585 0.136699
C25   C     C_R   0.121372 0.533098 0.128282 -0.159892
C26   C     C_R   0.878671 0.466920 0.871728 -0.159924
C27   C     C_R   0.177720 0.582884 0.007201 -0.143654
C28   C     C_R   0.822326 0.417159 0.992823 -0.143648
C29   C     C_R   0.235713 0.699604 0.008886 -0.103740
C30   C     C_R   0.764291 0.300459 0.991155 -0.103740
C31   C     C_R   0.935196 0.540227 0.383028 -0.250485
C32   C     C_R   0.064804 0.459768 0.616973 -0.250489
Cu1   Cu    Cu3+1 0.500000 0.500020 0.640660 0.939898
Cu2   Cu    Cu3+1 0.500000 0.499980 0.359340 0.939902
H1    H     H_    0.279292 0.737903 0.914946 0.131672
H2    H     H_    0.720713 0.262180 0.085105 0.131686
H3    H     H_    0.280379 0.858154 0.131957 0.111991
H4    H     H_    0.719551 0.141918 0.868102 0.111981
H5    H     H_    0.183794 0.770049 0.348379 0.107645
H6    H     H_    0.816135 0.229979 0.651655 0.107632
H7    H     H_    0.077077 0.442314 0.125776 0.130218
H8    H     H_    0.922999 0.557689 0.874222 0.130232
H9    H     H_    0.176812 0.530841 0.912177 0.140659
H10   H     H_    0.823266 0.469206 0.087845 0.140652
H11   H     H_    0.885371 0.574823 0.293455 0.144236
H12   H     H_    0.114629 0.425180 0.706550 0.144242
H13   H     H_    0.447338 0.115324 0.283100 0.140114
H14   H     H_    0.552663 0.884675 0.716899 0.140115
H15   H     H_    0.448120 0.891364 0.282288 0.137010
H16   H     H_    0.551882 0.108635 0.717711 0.136998
H17   H     H_    0.382734 0.343102 0.139601 0.132918
H18   H     H_    0.617266 0.656898 0.860399 0.132918
N1    N     N_R   0.500030 0.500030 0.852070 -0.171345
N2    N     N_R   0.499970 0.499970 0.147930 -0.171343
O1    O     O_R   0.499990 0.319660 0.618740 -0.577407
O2    O     O_R   0.500010 0.680340 0.381260 -0.577403
O3    O     O_R   0.499990 0.319630 0.381170 -0.595864
O4    O     O_R   0.500010 0.680370 0.618830 -0.595863
O5    O     O_R   0.319650 0.500020 0.618780 -0.597516
O6    O     O_R   0.680350 0.499980 0.381220 -0.597513
O7    O     O_R   0.319640 0.500000 0.381210 -0.565449
O8    O     O_R   0.680360 0.500000 0.618790 -0.565451
C33   C     C_3   0.361418 0.306573 0.867905 -0.832166
H19   H     H_    0.312852 0.333879 0.772639 0.263945
H20   H     H_    0.423909 0.229784 0.847274 0.226319
H21   H     H_    0.288495 0.269933 0.940959 0.176689
C34   C     C_3   0.638579 0.693429 0.132095 -0.832166
H22   H     H_    0.576087 0.770217 0.152719 0.226315
H23   H     H_    0.687142 0.666127 0.227364 0.263946
H24   H     H_    0.711502 0.730067 0.059043 0.176694

loop_
_geom_bond_atom_site_label_1
_geom_bond_atom_site_label_2
_ccdc_geom_bond_type
Cu1   O1    S    
Cu2   O3    S    
C3    C31   A    
C8    H14   S    
C14   H18   S    
Cu2   O2    S    
Cu1   O4    S    
C1    O3    A    
C27   C29   A    
C20   H4    S    
C29   H1    S    
C26   C28   A    
C21   H5    S    
C13   C15   A    
C30   H2    S    
C3    C5    A    
C5    C32   A    
C22   H6    S    
C34   H24   S    
C33   H20   S    
Cu1   Cu2   S    
C1    O1    A    
C33   H21   S    
Cu1   O5    S    
C16   C34   S    
C2    O2    A    
C20   C30   A    
Cu2   O6    S    
C9    C11   A    
C10   H16   S    
C4    C32   A    
C1    C12   S    
C10   C12   A    
C17   O5    A    
C8    C11   A    
C2    C11   S    
C15   N1    A    
C22   C24   A    
C28   C30   A    
C19   C21   A    
C20   C22   A    
Cu2   N2    S    
C14   C16   A    
C23   C25   A    
C21   C23   A    
Cu1   N1    S    
C2    O4    A    
C16   N2    A    
C7    C12   A    
C4    C6    A    
C25   C27   A    
C4    C17   S    
C25   H7    S    
C33   H19   S    
C19   C29   A    
C27   H9    S    
C14   N1    A    
C9    H15   S    
C13   H17   S    
C26   H8    S    
C3    C18   S    
C8    C10   A    
C13   N2    A    
C31   H11   S    
C18   O6    A    
C7    C9    A    
C15   C33   S    
C5    C24   S    
C6    C31   A    
C19   H3    S    
C17   O7    A    
C6    C23   S    
C32   H12   S    
C28   H10   S    
Cu2   O7    S    
C18   O8    A    
C34   H22   S    
C24   C26   A    
Cu1   O8    S    
C34   H23   S    
C7    H13   S    
