data_mof_unit_16107.cif
_audit_creation_date              2012-10-26T19:46:31-0400
_audit_creation_method            fapswitch 2.2
_symmetry_space_group_name_H-M    P1
_symmetry_Int_Tables_number       1
_space_group_crystal_system       triclinic
_cell_length_a                    10.771731
_cell_length_b                    9.529321
_cell_length_c                    15.105083
_cell_angle_alpha                 90.021421
_cell_angle_beta                  89.97183
_cell_angle_gamma                 89.977142
_cell_volume                      1550.49530149

loop_
_atom_site_label
_atom_site_type_symbol
_atom_type_description
_atom_site_fract_x
_atom_site_fract_y
_atom_site_fract_z
_atom_type_partial_charge
C1    C     C_R   0.262653 0.500050 0.500413 0.544561
C2    C     C_R   0.935643 0.523405 0.419037 -0.007803
C3    C     C_R   0.933802 0.476164 0.580080 -0.013923
C4    C     C_R   0.066240 0.523567 0.419949 -0.014850
C5    C     C_R   0.566055 0.604477 0.095612 0.224390
C6    C     C_R   0.568746 0.396621 0.904242 0.224747
C7    C     C_R   0.430431 0.602434 0.904216 0.223793
C8    C     C_R   0.432389 0.394910 0.095719 0.224525
C9    C     C_R   0.562380 0.604912 0.187636 -0.081155
C10   C     C_R   0.565590 0.396516 0.812198 -0.078026
C11   C     C_R   0.434422 0.602993 0.812190 -0.079752
C12   C     C_R   0.737357 0.499949 0.499635 0.545774
C13   C     C_R   0.435838 0.394900 0.187764 -0.077084
C14   C     C_R   0.499130 0.499959 0.233698 -0.090172
C15   C     C_R   0.500300 0.499938 0.766232 -0.090592
C16   C     C_R   0.499307 0.499572 0.048612 -0.031738
C17   C     C_R   0.499417 0.499456 0.951283 -0.031667
C18   C     C_R   0.871402 0.499782 0.499291 0.036367
C19   C     C_R   0.128628 0.500228 0.500770 0.035808
C20   C     C_3   0.133830 0.454225 0.667499 -0.376797
C21   C     C_3   0.866225 0.546627 0.332663 -0.376091
C22   C     C_3   0.858064 0.451989 0.663899 -0.378663
C23   C     C_R   0.499334 0.499982 0.330041 0.525210
C24   C     C_3   0.141993 0.546644 0.336004 -0.376383
C25   C     C_R   0.500538 0.500011 0.669935 0.524357
C26   C     C_R   0.423657 0.074378 0.444549 0.026286
C27   C     C_R   0.576355 0.925630 0.555440 0.025131
C28   C     C_R   0.576347 0.074393 0.555449 0.026180
C29   C     C_R   0.423644 0.925615 0.444559 0.024919
C30   C     C_R   0.064402 0.476812 0.581049 -0.008356
Cu1   Cu    Cu3+1 0.500000 0.640660 0.500000 0.936566
Cu2   Cu    Cu3+1 0.500000 0.359340 0.500000 0.940223
H1    H     H_    0.362474 0.130378 0.400099 0.114618
H2    H     H_    0.647617 0.313885 0.008745 0.345686
H3    H     H_    0.350302 0.684353 0.008575 0.344286
H4    H     H_    0.355325 0.309821 0.991258 0.345389
H5    H     H_    0.236020 0.458156 0.661199 0.146118
H6    H     H_    0.107922 0.537357 0.715617 0.139273
H7    H     H_    0.110508 0.349466 0.695007 0.143399
H8    H     H_    0.764051 0.543265 0.339064 0.142794
H9    H     H_    0.889956 0.651331 0.305242 0.142179
H10   H     H_    0.891670 0.463488 0.284431 0.140957
H11   H     H_    0.800002 0.356601 0.655913 0.137331
H12   H     H_    0.637566 0.869639 0.599868 0.119585
H13   H     H_    0.913628 0.436953 0.724650 0.139190
H14   H     H_    0.796453 0.543546 0.675869 0.135953
H15   H     H_    0.200779 0.641540 0.343650 0.144115
H16   H     H_    0.202900 0.454429 0.324237 0.131188
H17   H     H_    0.086408 0.561763 0.275272 0.137055
H18   H     H_    0.637537 0.130403 0.599893 0.110435
H19   H     H_    0.362429 0.869614 0.400135 0.114698
H20   H     H_    0.612488 0.685632 0.223410 0.162465
H21   H     H_    0.617511 0.317292 0.776336 0.152667
H22   H     H_    0.382571 0.682175 0.776306 0.165116
H23   H     H_    0.385708 0.314333 0.223663 0.155150
H24   H     H_    0.643946 0.688682 0.991167 0.344850
N1    N     N_R   0.500000 0.852070 0.500000 -0.227271
N2    N     N_R   0.500000 0.147930 0.500000 -0.225322
O1    O     O_R   0.319640 0.618740 0.499990 -0.501995
O2    O     O_3   0.640473 0.294757 0.944654 -0.666644
O3    O     O_3   0.358309 0.704062 0.944605 -0.664903
O4    O     O_3   0.362822 0.291104 0.055369 -0.665624
O5    O     O_R   0.680360 0.381260 0.500010 -0.500641
O6    O     O_R   0.680360 0.618740 0.500010 -0.501664
O7    O     O_R   0.319640 0.381260 0.499990 -0.501224
O8    O     O_R   0.499990 0.618780 0.371460 -0.506434
O9    O     O_R   0.500010 0.381220 0.628540 -0.504119
O10   O     O_R   0.500010 0.618780 0.628540 -0.500873
O11   O     O_R   0.499990 0.381220 0.371460 -0.498822
O12   O     O_3   0.635725 0.708102 0.055164 -0.664749

loop_
_geom_bond_atom_site_label_1
_geom_bond_atom_site_label_2
_ccdc_geom_bond_type
C14   C23   S    
C6    C10   A    
C3    C30   A    
C1    O7    A    
C9    C14   A    
C5    C9    A    
C8    C13   A    
C27   N1    A    
C28   N2    A    
C2    C18   A    
C20   H6    S    
C23   O11   A    
C26   H1    S    
C2    C4    A    
C22   H11   S    
C25   O9    A    
Cu2   N2    S    
C4    C24   S    
C13   H23   S    
Cu1   N1    S    
C2    C21   S    
C6    C17   A    
C8    C16   A    
C20   C30   S    
C13   C14   A    
H2    O2    S    
C20   H5    S    
C19   C30   A    
C9    H20   S    
C5    O12   S    
C25   O10   A    
C28   H18   S    
C26   C29   A    
Cu2   O9    S    
C21   H9    S    
Cu1   O6    S    
C23   O8    A    
C11   H22   S    
C22   H14   S    
C29   N1    A    
C7    C11   A    
H24   O12   S    
C10   C15   A    
C1    O1    A    
C4    C19   A    
Cu1   O10   S    
C12   O6    A    
H4    O4    S    
C15   C25   S    
C1    C19   S    
C24   H15   S    
C21   H10   S    
C24   H16   S    
C16   C17   S    
C6    O2    S    
C27   C28   A    
C22   H13   S    
C3    C18   A    
H3    O3    S    
C29   H19   S    
C12   C18   S    
C24   H17   S    
C10   H21   S    
C20   H7    S    
C7    O3    S    
C3    C22   S    
C7    C17   A    
C12   O5    A    
Cu1   O8    S    
C11   C15   A    
C27   H12   S    
C26   N2    A    
Cu2   O11   S    
Cu1   Cu2   S    
Cu2   O5    S    
C8    O4    S    
Cu2   O7    S    
C5    C16   A    
Cu1   O1    S    
C21   H8    S    
