data_mof_unit_48887.cif
_audit_creation_date              2012-12-11T18:04:58-0500
_audit_creation_method            fapswitch 2.2
_symmetry_space_group_name_H-M    P1
_symmetry_Int_Tables_number       1
_space_group_crystal_system       triclinic
_cell_length_a                    8.237455
_cell_length_b                    12.759015
_cell_length_c                    22.82804
_cell_angle_alpha                 96.543379
_cell_angle_beta                  89.018187
_cell_angle_gamma                 98.728426
_cell_volume                      2356.03358373

loop_
_atom_site_label
_atom_site_type_symbol
_atom_type_description
_atom_site_fract_x
_atom_site_fract_y
_atom_site_fract_z
_atom_type_partial_charge
Ba1   Ba    Ba6+2 0.856210 0.551220 0.472190 1.687119
Ba2   Ba    Ba6+2 0.333620 0.448870 0.527810 1.688331
C1    C     C_3   0.637018 0.881314 0.240598 -0.341434
C2    C     C_R   0.107041 0.577634 0.940213 -0.012415
C3    C     C_R   0.059928 0.574275 0.880348 0.591071
C4    C     C_3   0.127983 0.773658 0.312435 0.367436
C5    C     C_R   0.975239 0.385164 0.875489 0.604020
C6    C     C_R   0.015960 0.386691 0.935616 -0.077352
C7    C     C_R   0.082849 0.483253 0.968130 -0.057100
C8    C     C_R   0.177016 0.673470 0.972993 -0.074803
C9    C     C_R   0.222563 0.675530 0.031913 -0.072284
C10   C     C_R   0.198173 0.582040 0.060435 0.000236
C11   C     C_R   0.126850 0.485377 0.028582 -0.107096
C12   C     C_3   0.588097 0.795988 0.281832 0.260176
C13   C     C_R   0.991107 0.293107 0.963798 -0.120565
C14   C     C_R   0.028206 0.294669 0.023767 0.422500
C15   C     C_R   0.100350 0.391032 0.056805 -0.092317
C16   C     C_3   0.115605 0.802211 0.250030 -0.291421
C17   C     C_R   0.146390 0.395937 0.117097 0.610485
C18   C     C_R   0.243577 0.583616 0.120077 0.571178
C19   C     C_2   0.795139 0.421227 0.767840 -0.091427
C20   C     C_3   0.761426 0.393181 0.702591 -0.056353
C21   C     C_1   0.007366 0.520349 0.685247 0.033484
C22   C     C_2   0.055382 0.525947 0.741320 -0.078464
C23   C     C_3   0.514415 0.281286 0.346059 0.845240
C24   C     C_2   0.943110 0.475308 0.786638 0.212498
C25   C     C_R   0.421900 0.538388 0.229419 -0.111633
C26   C     C_R   0.461335 0.552894 0.289750 -0.048547
C27   C     C_R   0.189244 0.470429 0.313327 0.104913
C28   C     C_3   0.224646 0.777822 0.597136 0.395846
C29   C     C_R   0.145313 0.458920 0.253082 -0.092829
C30   C     C_R   0.260908 0.495608 0.210337 0.212484
C31   C     C_2   0.867886 0.464152 0.664694 -0.268761
C32   C     C_R   0.757069 0.180707 0.527714 -0.267984
C33   C     C_R   0.434164 0.811372 0.476340 -0.292804
C34   C     C_3   0.585636 0.260420 0.284647 -0.271311
C35   C     C_R   0.403448 0.990339 0.460464 -0.089717
C36   C     C_R   0.343502 0.881926 0.455034 -0.014974
C37   C     C_R   0.577388 0.848785 0.508727 0.055501
C38   C     C_R   0.637319 0.960294 0.517479 -0.083015
C39   C     C_R   0.549331 0.031571 0.491834 -0.063557
C40   C     C_3   0.248149 0.897941 0.612852 0.490176
C41   C     C_R   0.612654 0.141715 0.496630 0.053131
C42   C     C_R   0.848207 0.111931 0.550696 -0.049269
C43   C     C_R   0.786590 0.002645 0.547516 -0.102405
C44   C     C_3   0.994813 0.219232 0.405872 0.400879
C45   C     C_3   0.955525 0.145408 0.685164 0.357884
C46   C     C_3   0.050507 0.110655 0.392356 0.342110
C47   C     C_3   0.714510 0.687960 0.646118 0.321735
C48   C     C_3   0.733021 0.715887 0.712482 -0.346948
C49   C     C_3   0.806356 0.994346 0.374101 0.245849
C50   C     C_3   0.834184 0.177008 0.063076 0.246105
C51   C     C_3   0.989090 0.118394 0.746467 -0.278027
C52   C     C_3   0.486777 0.175788 0.686629 0.403433
C53   C     C_3   0.471289 0.100073 0.733932 -0.354977
C54   C     C_R   0.344769 0.520402 0.330983 -0.228343
F1    F     F_    0.103055 0.928165 0.635017 -0.707028
F2    F     F_    0.350396 0.288040 0.340716 -0.760525
H1    H     H_    0.544225 0.832515 0.324545 -0.024076
H2    H     H_    0.751938 0.933774 0.255535 0.150594
H3    H     H_    0.837246 0.781458 0.722422 0.152231
H4    H     H_    0.756628 0.645328 0.733337 0.065359
H5    H     H_    0.618500 0.741680 0.731467 0.127654
H6    H     H_    0.484932 0.741282 0.259792 0.046022
H7    H     H_    0.537621 0.930735 0.238902 0.086097
H8    H     H_    0.580005 0.358879 0.366453 0.000772
H9    H     H_    0.520262 0.184852 0.261540 0.120453
H10   H     H_    0.572141 0.327083 0.258655 0.065271
H11   H     H_    0.718114 0.254072 0.287746 0.085277
H12   H     H_    0.345864 0.921822 0.646600 -0.012911
H13   H     H_    0.657548 0.842852 0.195486 0.131679
H14   H     H_    0.094708 0.728116 0.218963 0.110997
H15   H     H_    0.917767 0.225602 0.689125 -0.025168
H16   H     H_    0.854525 0.084109 0.665876 -0.003095
H17   H     H_    0.088924 0.178111 0.767801 0.155253
H18   H     H_    0.876003 0.118427 0.773621 0.101825
H19   H     H_    0.026165 0.037864 0.743667 0.145045
H20   H     H_    0.618565 0.189808 0.673991 -0.147923
H21   H     H_    0.416544 0.136541 0.646962 0.081986
H22   H     H_    0.534023 0.140779 0.774846 0.122131
H23   H     H_    0.284217 0.939027 0.573494 -0.039622
H24   H     H_    0.530057 0.029028 0.718665 0.068389
H25   H     H_    0.024069 0.710410 0.319485 0.107188
H26   H     H_    0.339983 0.073798 0.743657 0.141206
H27   H     H_    0.940914 0.217505 0.939485 0.133304
H28   H     H_    0.276630 0.751168 0.055226 0.121235
H29   H     H_    0.514258 0.564683 0.197766 0.101893
H30   H     H_    0.197579 0.747473 0.953084 0.124883
H31   H     H_    0.177827 0.565006 0.754323 0.122841
H32   H     H_    0.708601 0.385050 0.798812 0.104032
H33   H     H_    0.022613 0.421859 0.239667 0.103535
H34   H     H_    0.863930 0.209467 0.418318 -0.138380
H35   H     H_    0.377712 0.530588 0.377200 0.075919
H36   H     H_    0.245231 0.742503 0.317328 -0.109660
H37   H     H_    0.840483 0.452905 0.617873 0.071223
H38   H     H_    0.332634 0.041282 0.440878 0.089901
H39   H     H_    0.859235 0.952116 0.566875 0.165533
H40   H     H_    0.805883 0.264753 0.529843 0.052908
H41   H     H_    0.386760 0.726947 0.471063 0.069578
H42   H     H_    0.010735 0.846378 0.246393 0.154220
H43   H     H_    0.230439 0.852745 0.238017 0.118060
H44   H     H_    0.343699 0.752927 0.583916 -0.151636
H45   H     H_    0.067661 0.262171 0.443860 0.016334
H46   H     H_    0.135806 0.756325 0.560140 0.032857
H47   H     H_    0.696855 0.014153 0.352705 0.040788
H48   H     H_    0.794289 0.016173 0.421861 -0.023084
H49   H     H_    0.807023 0.907278 0.367369 0.120468
H50   H     H_    0.756264 0.160579 0.022748 0.001427
H51   H     H_    0.794159 0.242900 0.093552 0.028525
H52   H     H_    0.815012 0.104116 0.086138 0.080593
H53   H     H_    0.177552 0.122086 0.374848 0.120246
H54   H     H_    0.056620 0.072769 0.433564 -0.025382
H55   H     H_    0.831259 0.666151 0.627714 0.009317
H56   H     H_    0.615057 0.619113 0.637405 0.073987
N1    N     N_R   0.993970 0.478610 0.848353 -0.421896
N2    N     N_R   0.215447 0.491609 0.148284 -0.431314
O1    O     O_2   0.890290 0.440320 0.360790 -0.490240
O2    O     O_2   0.187174 0.117622 0.541906 -0.481492
O3    O     O_3   0.098989 0.144982 0.651237 -0.533848
O4    O     O_3   0.130840 0.441440 0.431840 -0.492163
O5    O     O_3   0.574800 0.630800 0.528960 -0.489225
O6    O     O_2   0.344900 0.234690 0.472540 -0.472466
O7    O     O_3   0.530683 0.195344 0.377777 -0.675901
O8    O     O_2   0.463041 0.476682 0.707062 -0.487913
O9    O     O_3   0.422405 0.269156 0.708387 -0.567743
O10   O     O_2   0.075717 0.656882 0.857112 -0.595699
O11   O     O_2   0.923968 0.299887 0.847143 -0.626239
O12   O     O_3   0.676365 0.776877 0.621593 -0.628440
O13   O     O_2   0.127497 0.314711 0.141603 -0.539463
O14   O     O_2   0.307933 0.667484 0.146972 -0.628141
O15   O     O_3   0.672400 0.637930 0.395560 -0.473382
O16   O     O_2   0.795257 0.556164 0.294059 -0.502379
O17   O     O_3   0.013153 0.269603 0.354358 -0.573195
O18   O     O_3   0.724837 0.745692 0.291252 -0.603853
O19   O     O_2   0.844800 0.765340 0.527490 -0.458305
O20   O     O_3   0.090520 0.693800 0.424220 -0.506533
O21   O     O_2   0.006657 0.883315 0.460042 -0.488074
O22   O     O_3   0.949451 0.046286 0.348710 -0.618507
O23   O     O_3   0.119333 0.864599 0.352435 -0.586059
O24   O     O_3   0.002171 0.199732 0.048745 -0.599231
O25   O     O_2   0.299410 0.559720 0.639240 -0.452354
O26   O     O_3   0.058870 0.558650 0.568170 -0.508369
O27   O     O_3   0.517310 0.362160 0.604450 -0.471228
O28   O     O_3   0.166792 0.730304 0.647091 -0.618802
O29   O     O_3   0.614910 0.369290 0.471050 -0.485150
O30   O     O_3   0.099190 0.306290 0.575790 -0.476574
P1    P     P_3+3 0.057140 0.408270 0.369700 1.061392
P2    P     P_3+3 0.667360 0.749400 0.544670 0.994944
P3    P     P_3+3 0.139651 0.831429 0.423893 0.945890
P4    P     P_3+3 0.132580 0.591820 0.630310 0.999352
P5    P     P_3+3 0.055686 0.168290 0.579538 1.000398
P6    P     P_3+3 0.661011 0.622221 0.317727 0.934879
P7    P     P_3+3 0.529235 0.234839 0.453948 0.955002
P8    P     P_3+3 0.541078 0.378665 0.681190 0.976090

loop_
_geom_bond_atom_site_label_1
_geom_bond_atom_site_label_2
_ccdc_geom_bond_type
Ba2   P4    S    
C47   H55   S    
C19   C24   D    
C17   O13   D    
C48   H5    S    
O8    P8    D    
Ba1   O29   S    
C22   H31   S    
O20   P3    S    
C26   C54   A    
C34   H9    S    
C5    C6    A    
C14   O24   S    
C34   H11   S    
Ba2   O29   S    
C12   H1    S    
C8    H30   S    
C50   H51   S    
C22   C24   S    
O7    P7    S    
C44   H34   S    
C9    H28   S    
C13   C14   A    
C40   H12   S    
C28   O28   S    
Ba1   Ba2   S    
C5    N1    Am   
C4    O23   S    
C47   O12   S    
C7    C11   A    
C24   N1    S    
O28   P4    S    
Ba1   O26   S    
C50   O24   S    
C14   C15   A    
C4    H36   S    
C3    O10   D    
C42   C43   A    
C21   C22   D    
O17   P1    S    
Ba1   O20   S    
C36   P3    S    
C45   C51   S    
O29   P7    S    
C1    H2    S    
C45   O3    S    
C47   H56   S    
O18   P6    S    
C19   C20   S    
C3    N1    Am   
C16   H14   S    
Ba2   O27   S    
C39   C41   A    
O21   P3    D    
O15   P6    S    
C51   H17   S    
C40   H23   S    
C16   H42   S    
C33   H41   S    
C31   H37   S    
C40   F1    S    
O25   P4    D    
C19   H32   S    
Ba2   O6    S    
O3    P5    S    
C54   H35   S    
C1    H7    S    
C52   O9    S    
C44   C46   S    
C4    C16   S    
C42   P5    S    
C23   H8    S    
C33   C36   A    
C32   C42   A    
C45   H15   S    
C37   C38   A    
C18   N2    Am   
Ba2   O4    S    
O12   P2    S    
O27   P8    S    
C12   O18   S    
C21   C31   D    
O23   P3    S    
O30   P5    S    
C35   H38   S    
Ba1   O4    S    
C37   P2    S    
C33   C37   A    
C49   O22   S    
C35   C36   A    
C29   C30   A    
C50   H52   S    
C49   H47   S    
C12   H6    S    
C10   C18   A    
C6    C7    A    
O5    P2    S    
Ba1   O1    S    
C30   N2    S    
C53   H24   S    
C25   H29   S    
C23   O7    S    
Ba2   O26   S    
C1    C12   S    
C28   H44   S    
C38   C39   A    
C46   H54   S    
C21   P4    S    
C26   P6    S    
C6    C13   A    
C29   H33   S    
C51   H19   S    
O16   P6    D    
O6    P7    D    
Ba1   P1    S    
C51   H18   S    
C23   F2    S    
C2    C8    A    
O9    P8    S    
C52   H21   S    
C20   P8    S    
Ba2   O5    S    
C48   H3    S    
C20   C31   S    
C52   C53   S    
C4    H25   S    
C25   C30   A    
C32   C41   A    
C45   H16   S    
C18   O14   D    
C2    C3    A    
Ba1   O15   S    
C27   P1    S    
C9    C10   A    
C34   H10   S    
C1    H13   S    
C27   C54   A    
C46   O22   S    
Ba2   O30   S    
C44   H45   S    
C13   H27   S    
O1    P1    D    
C5    O11   D    
O26   P4    S    
C2    C7    A    
Ba1   O19   S    
C27   C29   A    
C43   H39   S    
C44   O17   S    
C53   H22   S    
C17   N2    Am   
C49   H48   S    
C48   H4    S    
C32   H40   S    
O19   P2    D    
C35   C39   A    
O2    P5    D    
Ba1   O5    S    
C8    C9    A    
C23   C34   S    
C11   C15   A    
C15   C17   A    
C46   H53   S    
C38   C43   A    
C50   H50   S    
O4    P1    S    
C49   H49   S    
C47   C48   S    
C28   H46   S    
C25   C26   A    
Ba2   O25   S    
C28   C40   S    
Ba1   P2    S    
C10   C11   A    
C53   H26   S    
C41   P7    S    
C16   H43   S    
C52   H20   S    
