data_mof_unit_66843.cif
_audit_creation_date              2013-03-05T15:53:40-0500
_audit_creation_method            fapswitch 2.2
_symmetry_space_group_name_H-M    P1
_symmetry_Int_Tables_number       1
_space_group_crystal_system       triclinic
_cell_length_a                    8.551566
_cell_length_b                    13.343673
_cell_length_c                    16.550447
_cell_angle_alpha                 96.092136
_cell_angle_beta                  93.66023
_cell_angle_gamma                 97.820503
_cell_volume                      1854.545247

loop_
_atom_site_label
_atom_site_type_symbol
_atom_site_description
_atom_site_fract_x
_atom_site_fract_y
_atom_site_fract_z
_atom_type_partial_charge
P1    P     P_3+3 0.983580 0.746680 0.563420 0.495533
O1    O     O_2   0.158840 0.763480 0.539220 -0.317513
O2    O     O_3   0.888900 0.629060 0.541050 -0.409799
O3    O     O_3   0.391330 0.697380 0.393380 -0.399059
O4    O     O_2   0.296710 0.875904 0.420927 -0.382023
O5    O     O_3   0.000906 0.796574 0.667438 -0.640836
O6    O     O_3   0.418355 0.846903 0.281452 -0.457471
H1    H     H_    0.235826 0.729322 0.256259 0.126712
C1    C     C_3   0.323448 0.773369 0.141796 -0.238982
H2    H     H_    0.284974 0.848907 0.139082 0.147849
P2    P     P_3+3 0.350740 0.415080 0.315970 0.510124
P3    P     P_3+3 0.925450 0.619768 0.246781 0.586213
O7    O     O_2   0.182780 0.447540 0.303450 -0.307072
O8    O     O_3   0.969510 0.643060 0.352850 -0.350898
O9    O     O_2   0.048425 0.555064 0.213977 -0.292810
O10   O     O_3   0.314203 0.284328 0.297134 -0.509050
O11   O     O_3   0.968724 0.731318 0.201507 -0.546201
C2    C     C_3   0.939146 0.816002 0.252659 0.615948
H3    H     H_    0.998241 0.818459 0.314935 -0.009523
C3    C     C_3   0.011292 0.912006 0.218619 -0.099443
H4    H     H_    0.140196 0.914909 0.227748 0.132962
C4    C     C_3   0.734476 0.265533 0.279551 0.003710
H5    H     H_    0.619698 0.279245 0.303196 0.120225
C5    C     C_3   0.705028 0.201400 0.194298 -0.181022
H6    H     H_    0.820735 0.193548 0.168719 0.138696
Ba1   Ba    Ba6+2 0.162890 0.552530 0.460820 1.656329
C6    C     C_3   0.067961 0.745798 0.727803 0.506819
H7    H     H_    0.153513 0.696930 0.703607 0.041014
C7    C     C_3   0.150279 0.830727 0.794952 0.240424
H8    H     H_    0.075633 0.893085 0.798601 0.106258
C8    C     C_3   0.223801 0.245809 0.356940 0.296105
H9    H     H_    0.129904 0.291932 0.373642 0.077250
H10   H     H_    0.302759 0.240077 0.411774 0.080371
C9    C     C_3   0.145446 0.141653 0.320497 -0.121651
H11   H     H_    0.063437 0.150176 0.267533 0.163285
H12   H     H_    0.077518 0.100831 0.364317 0.040663
P4    P     P_3+3 0.826720 0.253310 0.436510 0.466407
O12   O     O_2   0.651450 0.236450 0.460750 -0.349465
O13   O     O_3   0.921400 0.370930 0.458880 -0.420598
O14   O     O_3   0.418970 0.302610 0.606550 -0.304266
O15   O     O_3   0.818026 0.211858 0.331339 -0.615384
P5    P     P_3+3 0.882221 0.376647 0.756173 0.583321
O16   O     O_3   0.377910 0.555000 0.596240 -0.411999
O17   O     O_3   0.840790 0.356930 0.647080 -0.360868
O18   O     O_2   0.775023 0.453097 0.788023 -0.205008
O19   O     O_3   0.827220 0.273042 0.810478 -0.580103
Ba2   Ba    Ba6+2 0.647290 0.447460 0.539110 1.709096
P6    P     P_3+3 0.437133 0.828496 0.385818 0.578029
C10   C     C_3   0.350216 0.755845 0.233148 0.277690
H13   H     H_    0.424413 0.694616 0.238224 0.132853
O20   O     O_3   0.432390 0.444990 0.403690 -0.423696
C11   C     C_3   0.587260 0.749700 0.647888 0.382602
H14   H     H_    0.687641 0.706143 0.639539 0.108307
H15   H     H_    0.513425 0.736034 0.588954 0.079015
C12   C     C_3   0.659189 0.860125 0.669875 -0.624577
H16   H     H_    0.780629 0.869920 0.653041 0.178936
H17   H     H_    0.664297 0.883450 0.736260 0.294644
P7    P     P_3+3 0.459158 0.588338 0.697544 0.570149
O21   O     O_2   0.627510 0.552390 0.696520 -0.295087
O22   O     O_3   0.497734 0.719742 0.711481 -0.486083
H18   H     H_    0.974190 0.977774 0.254635 0.071411
C13   C     C_3   0.763437 0.183289 0.761440 0.245075
H19   H     H_    0.674809 0.199557 0.714669 0.173767
C14   C     C_3   0.680412 0.111442 0.817595 -0.612919
H20   H     H_    0.596779 0.152124 0.850341 0.217186
H21   H     H_    0.611301 0.043958 0.780965 0.233112
P8    P     P_3+3 0.359841 0.170479 0.603335 0.518547
C15   C     C_3   0.318273 0.205912 0.760155 0.272982
H22   H     H_    0.230601 0.244548 0.727616 0.087904
O23   O     O_2   0.489482 0.127509 0.555828 -0.361789
O24   O     O_3   0.389216 0.139812 0.704435 -0.515659
H23   H     H_    0.167699 0.072367 0.788297 0.236012
C16   C     C_3   0.221020 0.146160 0.820560 -0.758201
H24   H     H_    0.123881 0.189385 0.838237 0.172116
C17   C     C_R   0.069718 0.175086 0.518062 -0.381248
C18   C     C_R   0.735715 0.820009 0.470043 -0.468482
C19   C     C_R   0.700736 0.992150 0.440787 -0.156139
C20   C     C_R   0.640164 0.886685 0.437314 0.341723
C21   C     C_R   0.888902 0.851882 0.508114 0.199424
C22   C     C_R   0.948802 0.962531 0.512780 -0.018501
C23   C     C_R   0.853401 0.033915 0.478664 -0.034410
C24   C     C_R   0.915158 0.144494 0.485080 0.300633
C25   C     C_R   0.161584 0.110346 0.552332 0.277181
C26   C     C_R   0.100018 0.005353 0.551209 -0.247080
H25   H     H_    0.626919 0.041943 0.415305 0.235326
H26   H     H_    0.166856 0.957453 0.583146 0.217827
H27   H     H_    0.122005 0.252147 0.515178 0.165320
H28   H     H_    0.687295 0.740353 0.467197 0.159820
C27   C     C_R   0.610896 0.536912 0.266010 -0.456268
C28   C     C_R   0.466078 0.478055 0.240174 0.181712
C29   C     C_R   0.419760 0.459089 0.156318 -0.107208
C30   C     C_R   0.527034 0.490399 0.098918 0.231145
C31   C     C_R   0.682411 0.532817 0.126913 -0.140535
C32   C     C_R   0.723830 0.557749 0.210334 0.331484
C33   C     C_R   0.393628 0.533557 0.856381 0.257238
C34   C     C_R   0.339885 0.527009 0.773272 0.102369
C35   C     C_R   0.296119 0.482062 0.910620 0.056259
N1    N     N_2   0.484750 0.481744 0.013511 0.011309
N2    N     N_2   0.341700 0.483970 0.995474 0.013430
C36   C     C_R   0.192574 0.471206 0.745579 -0.457333
H29   H     H_    0.768104 0.552526 0.083637 0.221281
C37   C     C_R   0.087781 0.431872 0.798751 0.158066
C38   C     C_R   0.139089 0.437623 0.882573 -0.272227
H30   H     H_    0.303775 0.417526 0.136059 0.217096
H31   H     H_    0.639770 0.561171 0.330279 0.191154
C39   C     C_2   0.627658 0.094821 0.196470 1.238497
O25   O     O_2   0.609123 0.060372 0.261106 -0.546589
O26   O     O_R   0.573753 0.035656 0.123013 -0.712849
H32   H     H_    0.504299 0.971560 0.132633 0.351087
N3    N     N_R   0.609264 0.250470 0.138383 0.221827
O27   O     O_R   0.459815 0.251334 0.148053 -0.378419
O28   O     O_R   0.666734 0.280072 0.072515 -0.342804
N4    N     N_R   0.940401 0.687117 0.764394 0.234531
O29   O     O_R   0.976234 0.616146 0.806610 -0.353184
O30   O     O_R   0.819857 0.731199 0.784641 -0.305385
N5    N     N_R   0.305394 0.873807 0.773456 0.229826
O31   O     O_R   0.431660 0.870970 0.820898 -0.258149
O32   O     O_R   0.312093 0.936690 0.718901 -0.420334
N6    N     N_R   0.162117 0.797464 0.876357 0.284523
O33   O     O_R   0.110657 0.850591 0.936905 -0.271259
O34   O     O_R   0.238253 0.722515 0.890644 -0.316720
N7    N     N_R   0.200285 0.696409 0.098849 0.266523
O35   O     O_R   0.087918 0.722499 0.052519 -0.199649
O36   O     O_R   0.213483 0.600827 0.097719 -0.417904
N8    N     N_R   0.266443 0.083082 0.293432 0.264624
O37   O     O_R   0.296712 0.076221 0.217224 -0.340277
O38   O     O_R   0.358652 0.050668 0.347108 -0.363221
C40   C     C_2   0.468216 0.773337 0.094719 1.146413
O39   O     O_2   0.571503 0.723159 0.112575 -0.606731
O40   O     O_R   0.478927 0.827229 0.026846 -0.676292
H33   H     H_    0.584500 0.827074 0.002439 0.404904
C41   C     C_2   0.580180 0.930266 0.624064 1.088225
O41   O     O_2   0.648560 0.015582 0.621951 -0.632559
O42   O     O_R   0.435300 0.898180 0.580147 -0.749228
H34   H     H_    0.403684 0.952865 0.548049 0.347013
C42   C     C_2   0.888036 0.134861 0.718689 0.956265
O43   O     O_2   0.965454 0.181740 0.672360 -0.667837
O44   O     O_R   0.908384 0.034567 0.727763 -0.835486
H35   H     H_    0.986111 0.007642 0.690705 0.336751
C43   C     C_2   0.789095 0.078841 0.882040 1.236352
O45   O     O_2   0.866363 0.142390 0.933093 -0.573105
O46   O     O_R   0.797071 0.975340 0.884660 -0.714513
H36   H     H_    0.871059 0.962686 0.931591 0.378075
C44   C     C_2   0.439866 0.291318 0.800648 0.853391
O47   O     O_2   0.503613 0.351081 0.758295 -0.564539
O48   O     O_R   0.480796 0.304310 0.884505 -0.780340
H37   H     H_    0.576224 0.358117 0.900560 0.392983
C45   C     C_2   0.301061 0.122595 0.898442 1.256182
O49   O     O_2   0.376063 0.051121 0.898291 -0.570995
O50   O     O_R   0.275476 0.176449 0.972293 -0.667345
H38   H     H_    0.323395 0.147620 0.020732 0.392892
N9    N     N_R   0.537730 0.599233 0.886056 0.258144
O51   O     O_R   0.550375 0.695857 0.878760 -0.249291
O52   O     O_R   0.663974 0.561662 0.908156 -0.294235
C46   C     C_2   0.030329 0.400357 0.942918 1.223857
O53   O     O_2   0.899691 0.427330 0.945692 -0.545613
O54   O     O_R   0.080309 0.337981 0.999194 -0.731531
H39   H     H_    0.998005 0.320293 0.038818 0.379072
N10   N     N_R   0.770277 0.815010 0.258478 0.226289
O55   O     O_R   0.696895 0.883336 0.228667 -0.392467
O56   O     O_R   0.694822 0.750366 0.300253 -0.492627
C47   C     C_2   0.139239 0.458480 0.660201 1.107255
O57   O     O_2   0.170993 0.387059 0.615761 -0.640732
O58   O     O_R   0.040276 0.522572 0.631725 -0.766677
H40   H     H_    0.988059 0.491428 0.577061 0.388168
N11   N     N_R   0.966479 0.916519 0.132173 0.300791
O59   O     O_R   0.025774 0.994913 0.097923 -0.317464
O60   O     O_R   0.862609 0.847342 0.089878 -0.257079
C48   C     C_2   0.837073 0.362972 0.271746 0.976416
O61   O     O_2   0.918133 0.370467 0.213991 -0.572094
O62   O     O_R   0.847644 0.443854 0.332629 -0.717786
H41   H     H_    0.757268 0.436214 0.369183 0.285475

loop_
_geom_bond_atom_site_label_1
_geom_bond_atom_site_label_2
_geom_bond_distance
_ccdc_geom_bond_type
O14   Ba2   2.915995 S    
O62   H41   1.012446 S    
P8    C25   1.879922 S    
O54   H39   1.013764 S    
C6    C7    1.559041 S    
C16   H24   1.110814 S    
C33   C34   1.411985 A    
C18   C21   1.407154 A    
C29   H30   1.082659 S    
C22   C26   1.421265 A    
C40   O39   1.218774 D    
C23   C24   1.488256 A    
C30   N1    1.425084 S    
C19   C20   1.425740 A    
N5    O31   1.301175 A    
O10   C8    1.392525 S    
C7    N6    1.464294 S    
P4    O12   1.569149 D    
O19   C13   1.396406 S    
O58   H40   1.004340 S    
C45   O50   1.395956 S    
P1    O1    1.568816 D    
C9    N8    1.444664 S    
N10   O55   1.296199 A    
P5    O19   1.755266 S    
C22   C23   1.469183 A    
Ba1   O13   2.958185 S    
C4    O15   1.396248 S    
C46   O54   1.397660 S    
C39   O25   1.219434 D    
P6    C20   1.909844 S    
C3    H18   1.102287 S    
O26   H32   1.006153 S    
C2    C3    1.523671 S    
C9    H11   1.112442 S    
C48   O61   1.220746 D    
C13   C42   1.496700 S    
C27   C32   1.397875 A    
O2    Ba1   3.009387 S    
P7    C34   1.853271 S    
N3    O27   1.299545 A    
C13   C14   1.541144 S    
C2    N10   1.451786 S    
C11   O22   1.400914 S    
O16   P7    1.760846 S    
C14   C43   1.507519 S    
C15   H22   1.109269 S    
C13   H19   1.107365 S    
O5    C6    1.400813 S    
C41   O41   1.212059 D    
O14   P8    1.760996 S    
P3    O11   1.742482 S    
C8    H10   1.111713 S    
P4    Ba2   3.525647 S    
O16   Ba2   3.024824 S    
C1    H2    1.106430 S    
C18   H28   1.081913 S    
C9    H12   1.100749 S    
O17   Ba2   2.831118 S    
N8    O37   1.299924 A    
C19   H25   1.075834 S    
N11   O60   1.300536 A    
C48   O62   1.385383 S    
P3    C32   1.842395 S    
N4    O29   1.292673 A    
P5    O17   1.801903 S    
P5    C37   1.873172 S    
C35   N2    1.429920 S    
C11   H15   1.111557 S    
Ba1   O16   2.801251 S    
C1    N7    1.457474 S    
C47   O58   1.378887 S    
N6    O34   1.299135 A    
O4    P6    1.548431 D    
C1    C40   1.504293 S    
O46   H36   1.013066 S    
C16   C45   1.503601 S    
P1    O5    1.768110 S    
C5    N3    1.460672 S    
C5    H6    1.114240 S    
O6    C10   1.413037 S    
C44   O48   1.396116 S    
C31   H29   1.083383 S    
C29   C30   1.417684 A    
C2    H3    1.113836 S    
Ba2   O20   2.800634 S    
P2    Ba1   3.471583 S    
C15   C16   1.556188 S    
O8    Ba1   2.830500 S    
P1    O2    1.657851 S    
P5    O18   1.536532 D    
C14   H21   1.105100 S    
C7    H8    1.114591 S    
P2    O10   1.721222 S    
C25   C26   1.425765 A    
P3    O9    1.538381 D    
C19   C23   1.425237 A    
C12   H16   1.086697 S    
C36   C37   1.386980 A    
O11   C2    1.399873 S    
C8    C9    1.503808 S    
C1    C10   1.561546 S    
O1    Ba1   2.977456 S    
C31   C32   1.396542 A    
C43   O45   1.222197 D    
O12   Ba2   2.978112 S    
C35   C38   1.419726 A    
Ba1   Ba2   4.699434 S    
C6    N4    1.456827 S    
C17   H27   1.071258 S    
C7    N5    1.453511 S    
N9    O52   1.298620 A    
C12   C41   1.471277 S    
C12   H17   1.106130 S    
P1    Ba1   3.525065 S    
P1    C21   1.987813 S    
C10   H13   1.107253 S    
C4    C5    1.557659 S    
O7    Ba1   2.849943 S    
C5    C39   1.489763 S    
N7    O36   1.293891 A    
C27   C28   1.389154 A    
C6    H7    1.110233 S    
C11   H14   1.108003 S    
N9    O51   1.298223 A    
C42   O44   1.395190 S    
O13   Ba2   3.010264 S    
O48   H37   1.012145 S    
O3    P6    1.759633 S    
C38   C46   1.485920 S    
C33   C35   1.429632 A    
O50   H38   1.012437 S    
C8    H9    1.107543 S    
C18   C20   1.412893 A    
H23   C16   1.094405 S    
C40   O40   1.397880 S    
O3    Ba1   2.916616 S    
N6    O33   1.300319 A    
C11   C12   1.514216 S    
C17   C24   1.387556 A    
O42   H34   1.002685 S    
C43   O46   1.397103 S    
C47   O57   1.212478 D    
C3    N11   1.466970 S    
C44   O47   1.213917 D    
P8    O23   1.537738 D    
O6    P6    1.770618 S    
O40   H33   1.012484 S    
P7    O21   1.578727 D    
P4    O13   1.657851 S    
Ba1   O20   3.025694 S    
C14   H20   1.092066 S    
P2    O7    1.563301 D    
P2    C28   1.846290 S    
C17   C25   1.384536 A    
C28   C29   1.405365 A    
N11   O59   1.300346 A    
C39   O26   1.392650 S    
C15   O24   1.428593 S    
C34   C36   1.396436 A    
C26   H26   1.071055 S    
O2    Ba2   2.958787 S    
C30   C31   1.400572 A    
N5    O32   1.294962 A    
C15   C44   1.501839 S    
P8    O24   1.774812 S    
C45   O49   1.219486 D    
P4    O15   1.763282 S    
C37   C38   1.418977 A    
P4    C24   1.948187 S    
N3    O28   1.301137 A    
C4    C48   1.488840 S    
P2    O20   1.557661 S    
O44   H35   1.008633 S    
Ba2   O21   2.850018 S    
C21   C22   1.487689 A    
P3    O8    1.757312 S    
C3    H4    1.097873 S    
C41   O42   1.386076 S    
N1    N2    1.245637 D    
C27   H31   1.081103 S    
C46   O53   1.221538 D    
N8    O38   1.297297 A    
C4    H5    1.110288 S    
C42   O43   1.213037 D    
C36   C47   1.441957 S    
C33   N9    1.437093 S    
N7    O35   1.298516 A    
N10   O56   1.292483 A    
P7    O22   1.727276 S    
H1    C10   1.100342 S    
N4    O30   1.299304 A    
