data_mof_unit_16875.cif
_audit_creation_date              2012-12-11T14:28:21-0500
_audit_creation_method            fapswitch 2.2
_symmetry_space_group_name_H-M    P1
_symmetry_Int_Tables_number       1
_space_group_crystal_system       triclinic
_cell_length_a                    10.941222
_cell_length_b                    19.257237
_cell_length_c                    18.424725
_cell_angle_alpha                 90.695187
_cell_angle_beta                  89.838231
_cell_angle_gamma                 90.233082
_cell_volume                      3881.71446919

loop_
_atom_site_label
_atom_site_type_symbol
_atom_type_description
_atom_site_fract_x
_atom_site_fract_y
_atom_site_fract_z
_atom_type_partial_charge
C1    C     C_R   0.319099 0.969301 0.646056 0.515883
C2    C     C_3   0.119763 0.683427 0.015515 -0.099113
C3    C     C_3   0.972166 0.213165 0.984324 -0.088720
C4    C     C_3   0.707103 0.273285 0.452148 -0.149095
C5    C     C_3   0.571158 0.292072 0.033206 -0.107108
C6    C     C_3   0.581738 0.681412 0.532928 -0.119985
C7    C     C_3   0.471938 0.713256 0.984383 -0.088775
C8    C     C_3   0.211504 0.713814 0.507126 -0.109246
C9    C     C_3   0.164890 0.753251 0.987184 -0.123714
C10   C     C_3   0.211029 0.197295 0.502542 -0.140721
C11   C     C_3   0.104208 0.200396 0.009143 -0.110275
C12   C     C_3   0.711486 0.213794 0.507129 -0.109202
C13   C     C_3   0.213988 0.267175 0.545209 -0.135644
C14   C     C_3   0.664983 0.253115 0.987130 -0.123702
C15   C     C_3   0.711038 0.697302 0.502541 -0.140730
C16   C     C_3   0.603942 0.700267 0.009167 -0.110138
C17   C     C_3   0.147235 0.760931 0.562341 0.055065
C18   C     C_3   0.072562 0.747775 0.925253 0.051472
C19   C     C_3   0.150923 0.235235 0.439377 0.059111
C20   C     C_3   0.083940 0.252408 0.071750 0.064161
C21   C     C_3   0.647249 0.260931 0.562340 0.055064
C22   C     C_3   0.572558 0.247767 0.925242 0.051492
C23   C     C_3   0.650920 0.735236 0.439376 0.059110
C24   C     C_3   0.150036 0.261117 0.962151 -0.122930
C25   C     C_3   0.584020 0.752379 0.071725 0.064187
C26   C     C_3   0.143191 0.820195 0.509201 -0.126442
C27   C     C_3   0.977473 0.788004 0.970326 -0.112003
C28   C     C_3   0.022920 0.219003 0.468242 -0.119642
C29   C     C_3   0.952387 0.264471 0.048700 -0.136365
C30   C     C_3   0.643239 0.320190 0.509192 -0.126433
C31   C     C_3   0.477704 0.288118 0.970367 -0.111885
C32   C     C_3   0.522924 0.718995 0.468245 -0.119646
C33   C     C_3   0.452518 0.764667 0.048706 -0.136444
C34   C     C_3   0.015441 0.794244 0.484380 -0.111357
C35   C     C_3   0.584251 0.188297 0.482705 -0.103387
C36   C     C_3   0.931050 0.717453 0.999490 -0.151075
C37   C     C_3   0.026416 0.288464 0.510567 -0.112792
C38   C     C_3   0.997213 0.325012 0.000746 -0.149106
C39   C     C_3   0.515469 0.294261 0.484378 -0.111336
C40   C     C_3   0.431044 0.217624 0.999539 -0.151090
C41   C     C_3   0.526406 0.788456 0.510569 -0.112796
C42   C     C_3   0.497661 0.825071 0.000677 -0.149024
C43   C     C_3   0.021480 0.734919 0.539272 -0.120795
C44   C     C_3   0.026445 0.678279 0.952904 -0.109725
C45   C     C_3   0.154638 0.304730 0.481015 -0.101659
C46   C     C_3   0.619617 0.183347 0.015475 -0.099069
C47   C     C_3   0.129789 0.313065 0.025060 -0.101074
C48   C     C_3   0.521477 0.234942 0.539277 -0.120799
C49   C     C_3   0.526209 0.178324 0.952903 -0.109737
C50   C     C_3   0.654621 0.804732 0.481013 -0.101664
C51   C     C_3   0.630183 0.812901 0.024949 -0.101116
C52   C     C_2   0.775552 0.043317 0.427481 0.195872
C53   C     C_2   0.773079 0.023917 0.084568 0.181082
C54   C     C_2   0.757513 0.060470 0.591842 0.211805
C55   C     C_2   0.763861 0.052126 0.918824 0.201956
C56   C     C_2   0.275544 0.543300 0.427464 0.195855
C57   C     C_3   0.713984 0.767182 0.545206 -0.135639
C58   C     C_2   0.273099 0.523957 0.084617 0.181099
C59   C     C_2   0.257513 0.560471 0.591822 0.211796
C60   C     C_2   0.263878 0.552144 0.918860 0.201877
C61   C     C_3   0.650056 0.760855 0.962085 -0.123045
C62   C     C_3   0.080679 0.747965 0.428390 0.051041
C63   C     C_3   0.024628 0.722709 0.060558 0.042533
C64   C     C_3   0.086345 0.250742 0.574001 0.056367
C65   C     C_R   0.319564 0.969313 0.854261 0.518662
C66   C     C_3   0.019017 0.273735 0.938429 0.037744
C67   C     C_3   0.580675 0.247963 0.428392 0.051036
C68   C     C_3   0.524709 0.222752 0.060565 0.042491
C69   C     C_3   0.586348 0.750741 0.574002 0.056368
C70   C     C_3   0.519087 0.773698 0.938409 0.037804
C71   C     C_R   0.334970 0.992743 0.421492 -0.039251
C72   C     C_R   0.333081 0.990576 0.079533 -0.038748
C73   C     C_R   0.321372 0.001257 0.573332 -0.039927
C74   C     C_R   0.323767 0.999214 0.928270 -0.046199
C75   C     C_R   0.834965 0.492739 0.421490 -0.039253
C76   C     C_R   0.321837 0.029521 0.352353 0.514031
C77   C     C_R   0.833105 0.490541 0.079560 -0.038782
C78   C     C_R   0.821373 0.501253 0.573329 -0.039938
C79   C     C_R   0.823791 0.499160 0.928297 -0.046195
C80   C     C_R   0.560766 0.001673 0.430551 -0.073880
C81   C     C_R   0.557494 0.993516 0.073876 -0.114058
C82   C     C_R   0.539810 0.028204 0.578523 -0.064048
C83   C     C_R   0.547817 0.015847 0.925993 -0.080134
C84   C     C_R   0.060758 0.501657 0.430543 -0.073879
C85   C     C_R   0.057524 0.493509 0.073913 -0.114057
C86   C     C_R   0.039814 0.528194 0.578515 -0.064043
C87   C     C_R   0.321348 0.028617 0.148315 0.519631
C88   C     C_R   0.047864 0.515781 0.926024 -0.080134
C89   C     C_R   0.664661 0.023946 0.469505 -0.037696
C90   C     C_R   0.664596 0.012413 0.037659 -0.038197
C91   C     C_R   0.654183 0.036286 0.545453 -0.029024
C92   C     C_R   0.659467 0.024978 0.961870 0.012408
C93   C     C_R   0.164656 0.523931 0.469493 -0.037711
C94   C     C_R   0.164619 0.512440 0.037704 -0.038160
C95   C     C_R   0.154183 0.536276 0.545440 -0.029026
C96   C     C_R   0.159498 0.524974 0.961910 0.012369
C97   C     C_R   0.435247 0.009296 0.538644 -0.039374
C98   C     C_R   0.819099 0.469300 0.646056 0.515885
C99   C     C_R   0.438111 0.003868 0.964033 -0.048328
C100  C     C_R   0.443901 0.000347 0.462931 -0.038071
C101  C     C_R   0.442902 0.996483 0.039683 -0.013407
C102  C     C_R   0.935247 0.509288 0.538640 -0.039370
C103  C     C_R   0.938148 0.503800 0.964059 -0.048192
C104  C     C_R   0.943897 0.500338 0.462927 -0.038065
C105  C     C_R   0.942934 0.496436 0.039711 -0.013331
C106  C     C_R   0.212793 0.996768 0.530306 0.000239
C107  C     C_R   0.214213 0.994770 0.970348 0.007791
C108  C     C_R   0.224496 0.979395 0.456613 0.006237
C109  C     C_R   0.819568 0.469302 0.854270 0.518662
C110  C     C_R   0.223268 0.977667 0.043430 0.005488
C111  C     C_R   0.712791 0.496766 0.530305 0.000237
C112  C     C_R   0.714237 0.494711 0.970378 0.007713
C113  C     C_R   0.724490 0.479395 0.456611 0.006240
C114  C     C_R   0.723296 0.477616 0.043462 0.005374
C115  C     C_R   0.092509 0.999836 0.559345 -0.091024
C116  C     C_R   0.094979 0.999522 0.940787 -0.063937
C117  C     C_R   0.122821 0.952953 0.417652 -0.063306
C118  C     C_R   0.119373 0.953278 0.080952 -0.067119
C119  C     C_R   0.592508 0.499832 0.559345 -0.090996
C120  C     C_R   0.821836 0.529520 0.352352 0.514030
C121  C     C_R   0.594997 0.499480 0.940830 -0.063983
C122  C     C_R   0.622815 0.452953 0.417651 -0.063298
C123  C     C_R   0.619398 0.453241 0.080996 -0.067126
C124  C     C_R   0.993421 0.973219 0.520439 -0.155950
C125  C     C_R   0.997170 0.967183 0.975005 -0.090282
C126  C     C_R   0.008187 0.951003 0.449206 -0.112842
C127  C     C_R   0.008657 0.945150 0.045666 -0.081201
C128  C     C_R   0.493419 0.473216 0.520441 -0.155940
C129  C     C_R   0.497170 0.467176 0.975068 -0.090279
C130  C     C_R   0.508183 0.451002 0.449207 -0.112867
C131  C     C_R   0.821353 0.528610 0.148323 0.519638
C132  C     C_R   0.508676 0.445117 0.045721 -0.081178
C133  C     C_R   0.183931 0.770544 0.636661 0.543345
C134  C     C_R   0.128164 0.757146 0.854095 0.536505
C135  C     C_R   0.184802 0.228774 0.363476 0.559702
C136  C     C_R   0.133292 0.242009 0.143762 0.548835
C137  C     C_R   0.683938 0.270545 0.636661 0.543345
C138  C     C_R   0.628151 0.257141 0.854086 0.536522
C139  C     C_R   0.684801 0.728775 0.363476 0.559711
C140  C     C_R   0.633310 0.742003 0.143754 0.548859
C141  C     C_R   0.545331 0.768577 0.646201 0.540066
C142  C     C_3   0.084288 0.688294 0.482697 -0.103397
C143  C     C_R   0.494768 0.788138 0.862557 0.550650
C144  C     C_R   0.542504 0.230614 0.355218 0.542748
C145  C     C_R   0.497027 0.211590 0.137211 0.560072
C146  C     C_R   0.045329 0.268577 0.646200 0.540070
C147  C     C_R   0.994749 0.288147 0.862557 0.550692
C148  C     C_R   0.042510 0.730616 0.355215 0.542756
C149  C     C_R   0.996982 0.711570 0.137216 0.560096
C150  C     C_3   0.207089 0.773311 0.452153 -0.149094
C151  C     C_3   0.070833 0.792084 0.033206 -0.107115
C152  C     C_3   0.081722 0.181414 0.532926 -0.119977
Cr1   Cr    Cr6+3 0.488160 0.884660 0.750000 1.049411
Cr2   Cr    Cr6+3 0.333410 0.272740 0.250000 1.003736
Cr3   Cr    Cr6+3 0.833410 0.227260 0.750000 1.091063
Cr4   Cr    Cr6+3 0.833410 0.772740 0.250000 1.003727
Cr5   Cr    Cr6+3 0.488160 0.115340 0.250000 1.034182
Cr6   Cr    Cr6+3 0.988160 0.384660 0.750000 1.049417
Cr7   Cr    Cr6+3 0.988160 0.615340 0.250000 1.034158
Cr8   Cr    Cr6+3 0.173480 0.883120 0.750000 1.022986
Cr9   Cr    Cr6+3 0.173480 0.116880 0.250000 1.062658
Cr10  Cr    Cr6+3 0.673480 0.383120 0.750000 1.023000
Cr11  Cr    Cr6+3 0.673480 0.616880 0.250000 1.062641
Cr12  Cr    Cr6+3 0.333410 0.727260 0.750000 1.091064
H1    H     H_    0.292318 0.682220 0.519651 0.100978
H2    H     H_    0.913174 0.957437 0.946373 0.113171
H3    H     H_    0.931558 0.930228 0.418881 0.149252
H4    H     H_    0.933119 0.919699 0.072627 0.107024
H5    H     H_    0.405653 0.467186 0.546137 0.121172
H6    H     H_    0.413149 0.457467 0.946450 0.113218
H7    H     H_    0.431553 0.430226 0.418884 0.149231
H8    H     H_    0.433135 0.419675 0.072690 0.107152
H9    H     H_    0.280758 0.790132 0.414667 0.112003
H10   H     H_    0.099793 0.828415 0.075734 0.123586
H11   H     H_    0.047902 0.133065 0.557525 0.113188
H12   H     H_    0.257024 0.773502 0.976437 0.107531
H13   H     H_    0.904727 0.174718 0.964926 0.145756
H14   H     H_    0.780776 0.290089 0.414657 0.112001
H15   H     H_    0.600399 0.328376 0.075694 0.123472
H16   H     H_    0.547933 0.633061 0.557531 0.113195
H17   H     H_    0.404257 0.674912 0.965051 0.145665
H18   H     H_    0.175574 0.869718 0.531010 0.146179
H19   H     H_    0.918282 0.829759 0.949441 0.116083
H20   H     H_    0.947797 0.198904 0.433482 0.129670
H21   H     H_    0.873807 0.265522 0.086960 0.128010
H22   H     H_    0.675667 0.369708 0.530990 0.146135
H23   H     H_    0.286876 0.159484 0.496688 0.108693
H24   H     H_    0.418600 0.329917 0.949496 0.116083
H25   H     H_    0.447803 0.698892 0.433485 0.129674
H26   H     H_    0.373981 0.765914 0.086990 0.127823
H27   H     H_    0.931056 0.823720 0.473598 0.117999
H28   H     H_    0.839655 0.696764 0.011010 0.102464
H29   H     H_    0.950035 0.326066 0.515758 0.110999
H30   H     H_    0.944683 0.372529 0.992532 0.126365
H31   H     H_    0.431094 0.323745 0.473600 0.117995
H32   H     H_    0.339608 0.197073 0.011144 0.102473
H33   H     H_    0.450018 0.826052 0.515762 0.111000
H34   H     H_    0.145575 0.148119 0.014216 0.131925
H35   H     H_    0.445474 0.872684 0.992382 0.126538
H36   H     H_    0.951879 0.716471 0.578433 0.116414
H37   H     H_    0.999722 0.638919 0.912296 0.122665
H38   H     H_    0.184929 0.355522 0.459246 0.136923
H39   H     H_    0.195336 0.354343 0.041921 0.126749
H40   H     H_    0.451874 0.216506 0.578442 0.116414
H41   H     H_    0.499221 0.138975 0.912340 0.122545
H42   H     H_    0.684895 0.855526 0.459242 0.136928
H43   H     H_    0.695976 0.854074 0.041745 0.126708
H44   H     H_    0.047436 0.636874 0.468365 0.143628
H45   H     H_    0.792286 0.182184 0.519643 0.100958
H46   H     H_    0.183450 0.645921 0.038257 0.185054
H47   H     H_    0.287490 0.289101 0.579952 0.125358
H48   H     H_    0.227621 0.260212 0.923277 0.131710
H49   H     H_    0.547351 0.136883 0.468393 0.143592
H50   H     H_    0.683217 0.145802 0.038221 0.185090
H51   H     H_    0.787491 0.789108 0.579947 0.125362
H52   H     H_    0.727555 0.759763 0.923156 0.131644
H53   H     H_    0.570796 0.988159 0.373703 0.184599
H54   H     H_    0.563448 0.979182 0.130440 0.127832
H55   H     H_    0.530570 0.041842 0.635454 0.181054
H56   H     H_    0.757175 0.273219 0.976295 0.107623
H57   H     H_    0.544551 0.028105 0.868948 0.182637
H58   H     H_    0.070782 0.488141 0.373696 0.184590
H59   H     H_    0.063477 0.479185 0.130480 0.127784
H60   H     H_    0.030580 0.541835 0.635445 0.181052
H61   H     H_    0.044616 0.528019 0.868975 0.182644
H62   H     H_    0.132680 0.933098 0.362650 0.130707
H63   H     H_    0.125970 0.935576 0.136443 0.120751
H64   H     H_    0.073863 0.021032 0.612840 0.156253
H65   H     H_    0.077785 0.023410 0.888970 0.151991
H66   H     H_    0.632671 0.433098 0.362649 0.130705
H67   H     H_    0.786891 0.659496 0.496683 0.108696
H68   H     H_    0.626003 0.435547 0.136490 0.120761
H69   H     H_    0.573864 0.521029 0.612841 0.156261
H70   H     H_    0.577796 0.523378 0.889019 0.152032
H71   H     H_    0.849844 0.071996 0.452253 0.098767
H72   H     H_    0.780735 0.995351 0.134801 0.123830
H73   H     H_    0.841815 0.079331 0.568813 0.067049
H74   H     H_    0.846519 0.069272 0.944516 0.150633
H75   H     H_    0.349844 0.571973 0.452235 0.098782
H76   H     H_    0.280720 0.495433 0.134877 0.123856
H77   H     H_    0.341798 0.579348 0.568786 0.067056
H78   H     H_    0.645095 0.647943 0.014288 0.132161
H79   H     H_    0.346504 0.569357 0.944548 0.150735
H80   H     H_    0.905654 0.967189 0.546133 0.121154
O1    O     O_R   0.575450 0.828820 0.667950 -0.503440
O2    O     O_R   0.416860 0.942890 0.825320 -0.515241
O3    O     O_R   0.416860 0.057110 0.325320 -0.515118
O4    O     O_R   0.416860 0.057110 0.174680 -0.521479
O5    O     O_R   0.916860 0.442890 0.674680 -0.495905
O6    O     O_R   0.916860 0.442890 0.825320 -0.515254
O7    O     O_R   0.916860 0.557110 0.325320 -0.515115
O8    O     O_R   0.916860 0.557110 0.174680 -0.521507
O9    O     O_R   0.213790 0.953680 0.668330 -0.531530
O10   O     O_R   0.213790 0.953680 0.831670 -0.519554
O11   O     O_R   0.213790 0.046320 0.331670 -0.512663
O12   O     O_R   0.575450 0.828820 0.832050 -0.506367
O13   O     O_R   0.213790 0.046320 0.168330 -0.505081
O14   O     O_R   0.713790 0.453680 0.668330 -0.531516
O15   O     O_R   0.713790 0.453680 0.831670 -0.519543
O16   O     O_R   0.713790 0.546320 0.331670 -0.512669
O17   O     O_R   0.713790 0.546320 0.168330 -0.505085
O18   O     O_R   0.121360 0.817890 0.672660 -0.504581
O19   O     O_R   0.121360 0.817890 0.827340 -0.504708
O20   O     O_R   0.121360 0.182110 0.327340 -0.490733
O21   O     O_R   0.121360 0.182110 0.172660 -0.476969
O22   O     O_R   0.621360 0.317890 0.672660 -0.504573
O23   O     O_R   0.575450 0.171180 0.332050 -0.488904
O24   O     O_R   0.621360 0.317890 0.827340 -0.504741
O25   O     O_R   0.621360 0.682110 0.327340 -0.490724
O26   O     O_R   0.621360 0.682110 0.172660 -0.476990
O27   O     O_R   0.206850 0.711370 0.665820 -0.475618
O28   O     O_R   0.206850 0.711370 0.834180 -0.480966
O29   O     O_R   0.206850 0.288630 0.334180 -0.524840
O30   O     O_R   0.206850 0.288630 0.165820 -0.540807
O31   O     O_R   0.706850 0.211370 0.665820 -0.475611
O32   O     O_R   0.706850 0.211370 0.834180 -0.480904
O33   O     O_R   0.706850 0.788630 0.334180 -0.524834
O34   O     O_R   0.575450 0.171180 0.167950 -0.500697
O35   O     O_R   0.706850 0.788630 0.165820 -0.540793
O36   O     O_R   0.457710 0.733190 0.672630 -0.516458
O37   O     O_R   0.457710 0.733190 0.827370 -0.499005
O38   O     O_R   0.457710 0.266810 0.327370 -0.527536
O39   O     O_R   0.457710 0.266810 0.172630 -0.516822
O40   O     O_R   0.957710 0.233190 0.672630 -0.516461
O41   O     O_R   0.957710 0.233190 0.827370 -0.499037
O42   O     O_R   0.957710 0.766810 0.327370 -0.527528
O43   O     O_R   0.957710 0.766810 0.172630 -0.516897
O44   O     O_3   0.331690 0.831680 0.750000 -0.311363
O45   O     O_R   0.075450 0.328820 0.667950 -0.503439
O46   O     O_3   0.331690 0.168320 0.250000 -0.305538
O47   O     O_3   0.831690 0.331680 0.750000 -0.311383
O48   O     O_3   0.831690 0.668320 0.250000 -0.305562
O49   O     O_2   0.784228 0.029102 0.362873 -0.516781
O50   O     O_2   0.850439 0.067798 0.071382 -0.546271
O51   O     O_2   0.750185 0.059009 0.657981 -0.462821
O52   O     O_2   0.759100 0.055434 0.852716 -0.485442
O53   O     O_2   0.284207 0.529092 0.362855 -0.516793
O54   O     O_2   0.350505 0.567801 0.071398 -0.546327
O55   O     O_2   0.250203 0.559000 0.657961 -0.462844
O56   O     O_R   0.075450 0.328820 0.832050 -0.506372
O57   O     O_2   0.259145 0.555394 0.852747 -0.485503
O58   O     O_R   0.075450 0.671180 0.332050 -0.488913
O59   O     O_R   0.075450 0.671180 0.167950 -0.500675
O60   O     O_R   0.416860 0.942890 0.674680 -0.495902

loop_
_geom_bond_atom_site_label_1
_geom_bond_atom_site_label_2
_ccdc_geom_bond_type
C6    C32   S    
C21   C137  S    
C110  C118  A    
C139  O25   A    
C59   C95   S    
C64   C152  S    
C85   C105  A    
C133  O27   A    
C72   C101  A    
C9    H12   S    
C76   O11   A    
C5    H15   S    
C113  C122  A    
Cr8   O19   S    
C61   H52   S    
C142  H44   S    
C124  H80   S    
C117  C126  A    
C21   C48   S    
C119  C128  A    
C98   O14   A    
C148  O42   A    
C71   C108  A    
C7    C33   S    
C14   H56   S    
C52   C89   S    
Cr5   O23   S    
C56   C93   S    
C11   C20   S    
C79   C109  S    
Cr11  O26   S    
C25   C140  S    
C54   H73   S    
Cr4   O35   S    
Cr10  O47   S    
C120  O16   A    
C39   H31   S    
C137  O31   A    
C82   C91   A    
C37   H29   S    
Cr8   O9    S    
C109  O15   A    
Cr2   O29   S    
C8    C150  S    
C17   C43   S    
C55   C92   S    
C18   C44   S    
C90   C92   A    
C130  H7    S    
Cr1   O2    S    
Cr11  O17   S    
C111  C113  A    
C94   C96   A    
C22   C49   S    
C81   C90   A    
C26   H18   S    
C99   C101  A    
C17   C133  S    
C118  H63   S    
C107  C110  A    
C36   C44   S    
C144  O23   A    
C37   C45   S    
C41   C69   S    
C21   C30   S    
C16   C25   S    
C9    C151  S    
C60   H79   S    
C62   C150  S    
C64   C146  S    
C50   C57   S    
C139  O33   A    
Cr3   O32   S    
C98   O5    A    
C8    C17   S    
C106  C115  A    
Cr7   O7    S    
C13   C45   S    
Cr1   O60   S    
C12   C21   S    
C84   C93   A    
Cr5   O4    S    
C27   H19   S    
C20   C47   S    
C3    C11   S    
C86   C95   A    
C83   H57   S    
C115  H64   S    
Cr10  O14   S    
C121  H70   S    
C125  C127  A    
C43   C142  S    
C132  H8    S    
C69   C141  S    
C16   H78   S    
C6    C69   S    
C65   O2    A    
C134  O19   A    
C123  C132  A    
Cr6   O5    S    
C87   O13   A    
C112  C114  A    
C81   C101  A    
C70   C143  S    
C33   C42   S    
C12   H45   S    
C51   H43   S    
C134  O28   A    
C40   C49   S    
C42   C70   S    
C111  C119  A    
C77   C131  S    
C3    C29   S    
Cr7   O48   S    
C74   C107  A    
C119  H69   S    
C148  O58   A    
C82   H55   S    
Cr9   O21   S    
C149  O59   A    
C29   C38   S    
C141  O1    A    
C32   C41   S    
C78   C111  A    
C75   C113  A    
C89   C91   A    
Cr11  O48   S    
C128  H5    S    
C93   C95   A    
C151  H10   S    
C62   C148  S    
Cr8   O18   S    
C79   C103  A    
C62   C142  S    
C58   O54   D    
C117  H62   S    
C143  O37   A    
C7    H17   S    
C129  H6    S    
C41   H33   S    
C80   H53   S    
C45   H38   S    
C65   C74   S    
C135  O29   A    
Cr7   O58   S    
C46   C68   S    
C137  O22   A    
C35   C67   S    
C6    C15   S    
C103  C105  A    
C20   C136  S    
C12   C35   S    
C19   C28   S    
C53   H72   S    
Cr6   O56   S    
C114  C123  A    
C50   H42   S    
Cr12  O27   S    
C116  C125  A    
C84   C104  A    
Cr3   O41   S    
C16   C61   S    
C86   C102  A    
C53   O50   D    
C72   C87   S    
C146  O40   A    
C2    C63   S    
C124  C126  A    
C6    H16   S    
C36   H28   S    
C108  C117  A    
C75   C120  S    
C4    H14   S    
C19   C45   S    
C56   O53   D    
C48   H40   S    
C14   C22   S    
C28   H20   S    
C11   H34   S    
C112  C121  A    
C84   H58   S    
C106  C108  A    
C28   C37   S    
Cr10  O24   S    
C29   H21   S    
C30   C39   S    
C18   C134  S    
C107  C116  A    
C8    H1    S    
C147  O41   A    
C9    C18   S    
C150  H9    S    
C118  C127  A    
C2    C9    S    
Cr4   O43   S    
C25   C33   S    
C131  O17   A    
C145  O39   A    
C61   C70   S    
C88   C96   A    
C78   C102  A    
C149  O43   A    
C13   H47   S    
C97   C100  A    
C7    C70   S    
C14   C46   S    
C46   C49   S    
C79   C112  A    
Cr11  O25   S    
C42   H35   S    
C71   C76   S    
C146  O45   A    
C67   C144  S    
C19   C135  S    
C34   C62   S    
C31   C40   S    
Cr4   O48   S    
Cr8   O10   S    
C80   C89   A    
Cr2   O30   S    
C10   C152  S    
C152  H11   S    
C57   H51   S    
C127  H4    S    
Cr1   O1    S    
C1    O60   A    
C43   H36   S    
C52   O49   D    
C4    C12   S    
C24   C66   S    
C129  C132  A    
C15   H67   S    
C83   C99   A    
Cr2   O39   S    
Cr6   O47   S    
C5    C68   S    
C35   C48   S    
Cr5   O46   S    
C1    O9    A    
C109  O6    A    
Cr12  O44   S    
C26   C150  S    
Cr3   O31   S    
C23   C50   S    
Cr10  O22   S    
C38   H30   S    
C33   H26   S    
C83   C92   A    
C10   C19   S    
C65   O10   A    
C47   H39   S    
Cr7   O59   S    
C35   H49   S    
C63   C151  S    
C5    C14   S    
C59   O55   D    
C60   C96   S    
C7    C16   S    
C49   H41   S    
Cr10  O15   S    
C126  H3    S    
C144  O38   A    
C75   C104  A    
C82   C97   A    
C76   O3    A    
C77   C114  A    
C41   C50   S    
C37   C64   S    
C27   C151  S    
C115  C124  A    
C136  O30   A    
Cr6   O6    S    
C141  O36   A    
C121  C129  A    
C128  C130  A    
C74   C99   A    
C27   C36   S    
C71   C100  A    
C22   C138  S    
C1    C73   S    
C23   C32   S    
C77   C105  A    
C54   C91   S    
C13   C64   S    
C138  O24   A    
C140  O26   A    
Cr12  O37   S    
C125  H2    S    
C55   H74   S    
C58   C94   S    
C40   C68   S    
C53   C90   S    
C8    C142  S    
Cr6   O45   S    
C68   C145  S    
C52   H71   S    
C39   C48   S    
C116  H65   S    
C56   H75   S    
C145  O34   A    
C51   C61   S    
C120  O7    A    
Cr4   O42   S    
C24   H48   S    
C87   O4    A    
C73   C97   A    
C60   O57   D    
C17   C26   S    
C30   H22   S    
C23   C139  S    
C34   H27   S    
Cr7   O8    S    
C11   C24   S    
Cr3   O40   S    
C63   C149  S    
Cr5   O34   S    
C26   C34   S    
C38   C66   S    
C46   H50   S    
C31   H24   S    
C78   C98   S    
C36   C63   S    
C54   O51   D    
C15   C23   S    
Cr12  O28   S    
C80   C100  A    
C15   C57   S    
C140  O35   A    
C86   H60   S    
C58   H76   S    
C20   C29   S    
C133  O18   A    
C122  H66   S    
C72   C110  A    
C2    H46   S    
C22   C31   S    
C123  H68   S    
C2    C44   S    
Cr11  O16   S    
Cr2   O46   S    
C138  O32   A    
C136  O21   A    
Cr8   O44   S    
C25   C51   S    
Cr5   O3    S    
C85   C94   A    
C88   H61   S    
Cr1   O44   S    
C10   H23   S    
C66   C147  S    
C102  C104  A    
C38   C47   S    
C55   O52   D    
Cr1   O12   S    
C28   C152  S    
C143  O12   A    
C44   H37   S    
Cr9   O11   S    
C88   C103  A    
C131  O8    A    
C40   H32   S    
Cr9   O13   S    
Cr3   O47   S    
C24   C47   S    
C39   C67   S    
C18   C27   S    
C10   C13   S    
C4    C67   S    
C42   C51   S    
C59   H77   S    
Cr9   O46   S    
C3    H13   S    
Cr4   O33   S    
Cr9   O20   S    
C73   C106  A    
C85   H59   S    
C81   H54   S    
C32   H25   S    
Cr2   O38   S    
C3    C66   S    
C135  O20   A    
C147  O56   A    
Cr12  O36   S    
C57   C69   S    
C34   C43   S    
C122  C130  A    
C4    C30   S    
C5    C31   S    
