data_mof_unit_25888.cif
_audit_creation_date              2012-12-11T14:21:03-0500
_audit_creation_method            fapswitch 2.2
_symmetry_space_group_name_H-M    P1
_symmetry_Int_Tables_number       1
_space_group_crystal_system       triclinic
_cell_length_a                    11.656574
_cell_length_b                    11.51805
_cell_length_c                    19.516164
_cell_angle_alpha                 90.395388
_cell_angle_beta                  89.891795
_cell_angle_gamma                 60.065477
_cell_volume                      2270.61016618

loop_
_atom_site_label
_atom_site_type_symbol
_atom_type_description
_atom_site_fract_x
_atom_site_fract_y
_atom_site_fract_z
_atom_type_partial_charge
C1    C     C_R   0.639962 0.117512 0.599173 0.551269
C2    C     C_1   0.640217 0.704138 0.667921 0.009701
C3    C     C_1   0.126976 0.198347 0.859418 0.012726
C4    C     C_1   0.171486 0.170083 0.727686 -0.027460
C5    C     C_1   0.150348 0.181871 0.798992 -0.025848
C6    C     C_1   0.195144 0.160905 0.667279 0.006623
C7    C     C_1   0.679455 0.190399 0.860905 0.015429
C8    C     C_1   0.658181 0.167340 0.729048 -0.026665
C9    C     C_1   0.666086 0.180315 0.800434 -0.026321
C10   C     C_1   0.652200 0.150167 0.668578 0.008642
C11   C     C_R   0.666440 0.666185 0.193472 0.026504
C12   C     C_R   0.611726 0.746564 0.598560 0.544567
C13   C     C_R   0.539175 0.730383 0.222041 -0.108290
C14   C     C_R   0.527493 0.708699 0.291372 -0.056543
C15   C     C_R   0.763940 0.622240 0.306341 -0.146624
C16   C     C_R   0.778156 0.606609 0.236042 -0.140301
C17   C     C_R   0.425240 0.793492 0.180723 -0.152813
C18   C     C_R   0.306668 0.807082 0.203734 0.365367
C19   C     C_R   0.297582 0.768649 0.269948 0.511082
C20   C     C_R   0.407231 0.716200 0.313071 0.414236
C21   C     C_R   0.638539 0.677615 0.334687 0.030821
C22   C     C_R   0.162085 0.183428 0.187773 0.025746
C23   C     C_R   0.240794 0.145401 0.598066 0.555321
C24   C     C_R   0.252350 0.225428 0.206555 -0.018434
C25   C     C_R   0.288577 0.218365 0.276283 -0.044931
C26   C     C_R   0.186606 0.083139 0.299397 -0.133794
C27   C     C_R   0.127126 0.115937 0.236277 0.162604
C28   C     C_R   0.294529 0.288940 0.159183 -0.128250
C29   C     C_R   0.336364 0.375599 0.182287 -0.050870
C30   C     C_R   0.347006 0.390129 0.252114 0.423910
C31   C     C_R   0.335421 0.304476 0.298099 -0.044929
C32   C     C_R   0.264366 0.135567 0.321586 -0.041961
C33   C     C_R   0.666354 0.189143 0.192643 0.021143
C34   C     C_R   0.646604 0.109966 0.401844 0.528147
C35   C     C_R   0.708621 0.057337 0.213566 0.034019
C36   C     C_R   0.738340 0.028229 0.283410 -0.014470
C37   C     C_R   0.628857 0.266062 0.310949 -0.114690
C38   C     C_R   0.633372 0.291071 0.241779 -0.102208
C39   C     C_R   0.746243 0.950392 0.166058 0.145971
C40   C     C_R   0.845331 0.822330 0.183563 -0.031488
C41   C     C_R   0.897511 0.798145 0.249290 0.188206
C42   C     C_R   0.840217 0.897166 0.299766 -0.019970
C43   C     C_R   0.676168 0.135264 0.332327 -0.007239
C44   C     C_R   0.082000 0.230846 0.928717 0.541215
C45   C     C_R   0.615337 0.736364 0.403130 0.541476
C46   C     C_R   0.684193 0.604101 0.929613 0.558489
C47   C     C_R   0.708989 0.206382 0.930204 0.566712
C48   C     C_R   0.084017 0.234505 0.125024 0.556092
C49   C     C_R   0.683171 0.612686 0.124884 0.558653
C50   C     C_R   0.706560 0.211129 0.125929 0.595409
C51   C     C_R   0.303879 0.115261 0.393862 0.530536
C52   C     C_1   0.670733 0.646526 0.860238 0.016808
C53   C     C_1   0.654085 0.683838 0.728404 -0.027228
C54   C     C_1   0.663390 0.666845 0.799728 -0.026010
Cr1   Cr    Cr6+3 0.404720 0.198220 0.499960 1.063021
Cr2   Cr    Cr6+3 0.698290 0.897110 0.500380 1.048807
Cr3   Cr    Cr6+3 0.396970 0.904720 0.499610 1.100073
Cr4   Cr    Cr6+3 0.926180 0.151990 0.028120 1.141085
Cr5   Cr    Cr6+3 0.921330 0.451820 0.027470 1.054425
Cr6   Cr    Cr6+3 0.626260 0.446870 0.028710 1.055079
H1    H     H_    0.849747 0.588819 0.338784 0.172365
H2    H     H_    0.355677 0.435026 0.146311 0.155375
H3    H     H_    0.354992 0.316009 0.350480 0.196937
H4    H     H_    0.590310 0.348055 0.347689 0.198775
H5    H     H_    0.609410 0.390996 0.226498 0.177114
H6    H     H_    0.883114 0.742207 0.145847 0.166698
H7    H     H_    0.888021 0.871979 0.348895 0.209135
H8    H     H_    0.431008 0.820890 0.128346 0.183997
H9    H     H_    0.876634 0.546307 0.214827 0.179659
H10   H     H_    0.158333 0.029001 0.334385 0.197432
H11   H     H_    0.285930 0.280175 0.104442 0.156176
O1    O     O_R   0.267740 0.231960 0.575440 -0.495062
O2    O     O_R   0.685970 0.784660 0.430010 -0.511593
O3    O     O_R   0.502530 0.767000 0.423990 -0.451128
O4    O     O_R   0.288330 0.026350 0.429250 -0.488762
O5    O     O_3   0.499990 0.000020 0.499980 -0.296923
O6    O     O_R   0.821500 0.119340 0.952830 -0.484096
O7    O     O_R   0.037130 0.162530 0.957360 -0.496650
O8    O     O_R   0.056440 0.344740 0.951340 -0.507049
O9    O     O_R   0.797900 0.560360 0.957470 -0.485192
O10   O     O_R   0.596130 0.579390 0.952730 -0.500750
O11   O     O_R   0.639060 0.321160 0.958670 -0.497415
O12   O     O_R   0.527280 0.186640 0.570530 -0.489175
O13   O     O_R   0.821240 0.124200 0.104370 -0.419964
O14   O     O_R   0.036890 0.167040 0.097840 -0.432219
O15   O     O_R   0.056180 0.349610 0.102880 -0.528711
O16   O     O_R   0.797660 0.564870 0.097950 -0.504713
O17   O     O_R   0.595880 0.584250 0.104270 -0.507908
O18   O     O_R   0.638830 0.325670 0.099150 -0.519695
O19   O     O_3   0.824590 0.350230 0.028100 -0.285176
O20   O     O_R   0.728090 0.003450 0.576380 -0.494837
O21   O     O_R   0.682970 0.789190 0.570490 -0.492455
O22   O     O_R   0.499290 0.771880 0.575530 -0.492419
O23   O     O_R   0.285330 0.030870 0.569730 -0.486760
O24   O     O_R   0.270980 0.227080 0.423890 -0.503007
O25   O     O_R   0.530280 0.182120 0.430050 -0.523703
O26   O     O_R   0.731330 0.998570 0.424830 -0.520988
F1    F     F_    0.370399 0.486938 0.275656 -0.598145
Br1   Br    Br    0.663910 0.972870 0.078064 -0.538807
Br2   Br    Br    0.045994 0.628950 0.271155 -0.413803
F2    F     F_    0.204171 0.847573 0.159726 -0.563108
F3    F     F_    0.182029 0.782320 0.292957 -0.513839
F4    F     F_    0.399990 0.655509 0.371084 -0.541865
Br3   Br    Br    0.982324 0.085065 0.228463 -0.400319

loop_
_geom_bond_atom_site_label_1
_geom_bond_atom_site_label_2
_ccdc_geom_bond_type
C25   C31   A    
C22   C48   S    
C26   C32   A    
Cr2   O5    S    
C41   C42   A    
C49   O16   A    
C36   C42   A    
C35   C36   A    
C2    C12   S    
Cr6   O17   S    
C50   O13   A    
C20   F4    S    
C53   C54   S    
C26   C27   A    
C29   C30   A    
C14   C21   A    
C28   C29   A    
C34   O25   A    
C30   C31   A    
C19   F3    S    
C15   C16   A    
C46   C52   S    
C27   Br3   S    
C34   O26   A    
C14   C20   A    
C45   O2    A    
C18   C19   A    
Cr6   O10   S    
C47   O11   A    
Cr4   O6    S    
Cr6   O11   S    
Cr2   O20   S    
C19   C20   A    
C8    C9    S    
Cr1   O1    S    
C25   C32   A    
C1    O20   A    
C40   H6    S    
C13   C14   A    
C49   O17   A    
Cr2   O26   S    
C52   C54   T    
C21   C45   S    
C3    C44   S    
C1    C10   S    
C31   H3    S    
C24   C25   A    
Cr1   O24   S    
Cr5   O8    S    
C39   C40   A    
C4    C5    S    
C33   C50   S    
Cr6   O18   S    
C45   O3    A    
Cr5   O19   S    
C7    C47   S    
Cr3   O3    S    
C37   C43   A    
C35   C39   A    
C32   C51   S    
C37   C38   A    
C11   C49   S    
Cr4   O13   S    
C46   O10   A    
C11   C16   A    
C50   O18   A    
C39   Br1   S    
C38   H5    S    
C15   C21   A    
C17   C18   A    
C15   H1    S    
C41   Br2   S    
Cr4   O19   S    
Cr1   O5    S    
C4    C6    T    
C40   C41   A    
Cr3   O23   S    
C42   H7    S    
C26   H10   S    
C22   C24   A    
C12   O22   A    
C28   H11   S    
C47   O6    A    
Cr1   O12   S    
Cr4   O14   S    
C37   H4    S    
Cr3   O5    S    
C7    C9    T    
C29   H2    S    
C17   H8    S    
Cr2   O2    S    
C23   O1    A    
C12   O21   A    
C44   O8    A    
C16   H9    S    
C24   C28   A    
C51   O4    A    
Cr1   O25   S    
C3    C5    T    
C2    C53   T    
Cr5   O9    S    
Cr6   O19   S    
C1    O12   A    
C30   F1    S    
C33   C38   A    
C23   O23   A    
C13   C17   A    
C22   C27   A    
Cr3   O4    S    
C44   O7    A    
Cr5   O15   S    
C46   O9    A    
C11   C13   A    
C6    C23   S    
C33   C35   A    
C48   O15   A    
Cr5   O16   S    
Cr4   O7    S    
Cr2   O21   S    
C8    C10   T    
C48   O14   A    
C36   C43   A    
Cr3   O22   S    
C34   C43   S    
C18   F2    S    
C51   O24   A    
