data_mof_unit_19142.cif
_audit_creation_date              2013-03-05T15:43:38-0500
_audit_creation_method            fapswitch 2.2
_symmetry_space_group_name_H-M    P1
_symmetry_Int_Tables_number       1
_space_group_crystal_system       triclinic
_cell_length_a                    15.88972
_cell_length_b                    10.898945
_cell_length_c                    9.759473
_cell_angle_alpha                 89.663083
_cell_angle_beta                  89.750295
_cell_angle_gamma                 89.678816
_cell_volume                      1690.08550659

loop_
_atom_site_label
_atom_site_type_symbol
_atom_site_description
_atom_site_fract_x
_atom_site_fract_y
_atom_site_fract_z
_atom_type_partial_charge
O1    O     O_R   0.500010 0.321960 0.617040 -0.576349
O2    O     O_R   0.499990 0.321920 0.382900 -0.574800
C1    C     C_R   0.497799 0.265400 0.500822 0.874465
O3    O     O_R   0.379450 0.500030 0.617120 -0.603922
O4    O     O_R   0.379420 0.499980 0.382980 -0.543989
C2    C     C_R   0.340407 0.500254 0.500253 0.856164
Cu1   Cu    Cu3+1 0.500020 0.500020 0.638630 0.949336
Cu2   Cu    Cu3+1 0.499980 0.499980 0.361370 0.991663
O5    O     O_R   0.500010 0.678080 0.617100 -0.603851
O6    O     O_R   0.499990 0.678040 0.382960 -0.530038
O7    O     O_R   0.620580 0.500020 0.617020 -0.578831
O8    O     O_R   0.620550 0.499970 0.382880 -0.588663
C3    C     C_R   0.497788 0.734524 0.499435 0.912542
C4    C     C_R   0.659555 0.499913 0.499722 0.817431
C5    C     C_3   0.048330 0.428707 0.623052 -0.354124
C6    C     C_3   0.049328 0.445245 0.359287 0.179937
C7    C     C_3   0.952256 0.425425 0.370517 -0.194403
H1    H     H_    0.926507 0.336569 0.630341 0.180381
H2    H     H_    0.070779 0.332103 0.622671 0.228710
H3    H     H_    0.061763 0.513975 0.276932 0.116087
H4    H     H_    0.942808 0.326771 0.396773 0.205278
C8    C     C_1   0.749099 0.499621 0.499270 -0.150089
C9    C     C_3   0.083079 0.500245 0.496599 0.096145
C10   C     C_3   0.950758 0.432157 0.625772 -0.407212
C11   C     C_3   0.916784 0.499693 0.496333 0.126549
C12   C     C_3   0.951817 0.634482 0.495642 0.221979
C13   C     C_3   0.049464 0.633533 0.507000 -0.481991
C14   C     C_1   0.824564 0.499453 0.498504 -0.018520
C15   C     C_1   0.175290 0.500716 0.498875 0.017217
C16   C     C_1   0.250789 0.500627 0.500232 -0.091535
H5    H     H_    0.070503 0.674834 0.604974 0.238658
H6    H     H_    0.076748 0.691133 0.423464 0.173112
H7    H     H_    0.072407 0.470223 0.719085 0.193888
H8    H     H_    0.928002 0.476412 0.720919 0.221569
H9    H     H_    0.936759 0.678122 0.396303 0.096149
C17   C     C_2   0.455332 0.934945 0.404031 0.371237
C18   C     C_2   0.498315 0.867210 0.497201 -0.445239
H10   H     H_    0.541208 0.909228 0.568978 0.134796
C19   C     C_2   0.470281 0.067987 0.395168 -0.193230
C20   C     C_2   0.488477 0.133426 0.506450 -0.370890
H11   H     H_    0.461459 0.113693 0.297017 0.207404
H12   H     H_    0.490188 0.091090 0.607376 0.162071
C21   C     C_2   0.557042 0.452055 0.925730 -0.006384
N1    N     N_2   0.499090 0.498660 0.846910 -0.181745
H13   H     H_    0.605826 0.395906 0.879234 0.134510
C22   C     C_2   0.564156 0.477129 0.076866 -0.111932
N2    N     N_2   0.499070 0.498630 0.153040 -0.281663
H14   H     H_    0.626196 0.475232 0.122509 0.159147
H15   H     H_    0.443535 0.464215 0.116387 0.226750
N3    N     N_R   0.393959 0.881835 0.313518 0.146621
O9    O     O_R   0.372591 0.939933 0.202060 -0.367897
O10   O     O_R   0.346929 0.791531 0.355330 -0.360980
C23   C     C_3   0.450367 0.606922 0.890583 -0.076255
C24   C     C_3   0.506346 0.718689 0.922185 -0.370906
C25   C     C_3   0.457935 0.839181 0.904723 -0.774935
H16   H     H_    0.441063 0.854020 0.795541 0.248695
H17   H     H_    0.399314 0.837440 0.966961 0.298663
H18   H     H_    0.497575 0.916881 0.938630 0.251915
H19   H     H_    0.529125 0.713614 0.029362 0.232933
H20   H     H_    0.562350 0.720016 0.853617 0.240499
H21   H     H_    0.407341 0.632633 0.806490 0.216116
H22   H     H_    0.404969 0.588636 0.973575 0.128166
N4    N     N_R   0.093022 0.331166 0.321014 0.130214
O11   O     O_R   0.087788 0.232949 0.396957 -0.349577
O12   O     O_R   0.136756 0.327117 0.208099 -0.337466
C26   C     C_3   0.905686 0.436631 0.230836 -0.426858
C27   C     C_3   0.892298 0.566682 0.173468 -0.366597
C28   C     C_3   0.855916 0.562603 0.029123 -0.744382
H23   H     H_    0.900290 0.514885 0.959052 0.258308
H24   H     H_    0.794647 0.513947 0.029580 0.229175
H25   H     H_    0.845636 0.657530 0.990552 0.276055
H26   H     H_    0.846599 0.617143 0.238811 0.229458
H27   H     H_    0.952766 0.617063 0.169183 0.227593
H28   H     H_    0.941529 0.381712 0.154308 0.240925
H29   H     H_    0.843004 0.392407 0.241054 0.208753
N5    N     N_R   0.913169 0.711216 0.602473 0.144632
O13   O     O_R   0.861754 0.799264 0.567733 -0.354496
O14   O     O_R   0.933206 0.697973 0.730877 -0.382150

loop_
_geom_bond_atom_site_label_1
_geom_bond_atom_site_label_2
_geom_bond_distance
_ccdc_geom_bond_type
C25   H16   1.110599 S    
N4    O12   1.301074 A    
Cu1   Cu2   2.705916 S    
N2    H15   1.027316 S    
C24   H20   1.111205 S    
C23   C24   1.545684 S    
C11   C14   1.465418 S    
Cu1   O7    1.926325 S    
C12   C13   1.555991 S    
C15   C16   1.199787 T    
H1    C10   1.113392 S    
C9    C15   1.465509 S    
C17   C18   1.352831 D    
N5    O14   1.301325 A    
O4    C2    1.299255 A    
O7    C4    1.299173 A    
C26   H28   1.112735 S    
C27   H26   1.109971 S    
O5    C3    1.300072 A    
C22   N2    1.292200 D    
C23   H21   1.104325 S    
N1    C23   1.471762 S    
C6    C7    1.561988 S    
N3    O10   1.301732 A    
C27   H27   1.109838 S    
C6    N4    1.470035 S    
C9    C13   1.548709 S    
C3    C18   1.446252 S    
Cu2   O8    1.928199 S    
C20   H12   1.085630 S    
C26   C27   1.534961 S    
C8    C14   1.199103 T    
O3    Cu1   1.928198 S    
C24   H19   1.109303 S    
C22   H14   1.083586 S    
C13   H5    1.112732 S    
C27   C28   1.526054 S    
N5    O13   1.301185 A    
C19   H11   1.086351 S    
C19   C20   1.336386 D    
C28   H23   1.109585 S    
C11   C12   1.573875 S    
C10   H8    1.107273 S    
O1    C1    1.294799 A    
C5    H2    1.109797 S    
C21   N1    1.301554 D    
C18   H10   1.084615 S    
C23   H22   1.100340 S    
C12   N5    1.470549 S    
C6    H3    1.113274 S    
N3    O9    1.300850 A    
C7    C26   1.557774 S    
Cu1   N1    2.032660 S    
C10   C11   1.555508 S    
C21   H13   1.084508 S    
Cu2   O6    1.953302 S    
C5    C10   1.550751 S    
C2    C16   1.423987 S    
O8    C4    1.300232 A    
C1    C20   1.447512 S    
C6    C9    1.569104 S    
C25   H17   1.109974 S    
O3    C2    1.300723 A    
C17   N3    1.444378 S    
Cu1   O5    1.950778 S    
C24   C25   1.527263 S    
C13   H6    1.113855 S    
O1    Cu1   1.953304 S    
C17   C19   1.472631 S    
O2    Cu2   1.950780 S    
O6    C3    1.296157 A    
O4    Cu2   1.926327 S    
C7    C11   1.575170 S    
C4    C8    1.422804 S    
O2    C1    1.302578 A    
Cu2   N2    2.033447 S    
C28   H25   1.110333 S    
C26   H29   1.112766 S    
C5    C9    1.556729 S    
C21   C22   1.506531 S    
C7    H4    1.114686 S    
N4    O11   1.301253 A    
C12   H9    1.103958 S    
C28   H24   1.111190 S    
C25   H18   1.111082 S    
C5    H7    1.113354 S    
