data_mof_unit_31531.cif
_audit_creation_date              2012-12-10T17:02:56-0500
_audit_creation_method            fapswitch 2.2
_symmetry_space_group_name_H-M    P1
_symmetry_Int_Tables_number       1
_space_group_crystal_system       triclinic
_cell_length_a                    9.798447
_cell_length_b                    10.990961
_cell_length_c                    13.426519
_cell_angle_alpha                 94.553653
_cell_angle_beta                  81.499848
_cell_angle_gamma                 110.958431
_cell_volume                      1334.91266131

loop_
_atom_site_label
_atom_site_type_symbol
_atom_type_description
_atom_site_fract_x
_atom_site_fract_y
_atom_site_fract_z
_atom_type_partial_charge
C1    C     C_R   0.557644 0.745694 0.503718 0.861503
C2    C     C_R   0.437229 0.507292 0.972843 0.078867
C3    C     C_R   0.478511 0.544984 0.870930 0.090937
C4    C     C_R   0.547394 0.544518 0.038874 0.071921
C5    C     C_R   0.691842 0.629998 0.005563 0.166557
C6    C     C_R   0.724825 0.678725 0.908871 -0.247671
C7    C     C_R   0.619734 0.637766 0.842755 -0.202782
C8    C     C_R   0.518895 0.498143 0.136883 -0.253993
C9    C     C_R   0.768089 0.624462 0.168591 -0.206518
C10   C     C_R   0.376385 0.489976 0.800359 -0.108330
C11   C     C_2   0.591660 0.885479 0.499512 -0.468932
C12   C     C_R   0.423602 0.494398 0.690816 0.783783
C13   C     C_2   0.509269 0.934488 0.454696 0.493816
C14   C     C_2   0.420587 0.116306 0.472208 -0.332473
C15   C     C_2   0.531433 0.072485 0.471851 -0.258293
C16   C     C_2   0.922607 0.489458 0.491404 -0.071907
C17   C     C_2   0.076950 0.509737 0.509189 -0.046641
C18   C     C_R   0.445341 0.254529 0.489364 0.855862
C19   C     C_R   0.578194 0.514560 0.309713 0.774299
C20   C     C_R   0.801243 0.667884 0.070155 -0.203999
C21   C     C_R   0.625759 0.541417 0.202671 -0.052837
C22   C     C_R   0.229220 0.417620 0.834836 -0.187998
C23   C     C_R   0.184671 0.393366 0.936521 -0.146587
C24   C     C_R   0.287164 0.434997 0.004753 -0.192389
Cu1   Cu    Cu3+1 0.362000 0.479240 0.482530 0.939707
Cu2   Cu    Cu3+1 0.638000 0.520760 0.517470 0.935321
H1    H     H_    0.851571 0.659886 0.219008 0.156605
H2    H     H_    0.312078 0.050666 0.457410 0.188396
H3    H     H_    0.683777 0.950025 0.536481 0.120671
H4    H     H_    0.125136 0.578045 0.568230 0.165785
H5    H     H_    0.873900 0.420157 0.433046 0.153662
H6    H     H_    0.106767 0.384539 0.400101 0.184628
H7    H     H_    0.894375 0.617687 0.598388 0.193327
H8    H     H_    0.832897 0.748265 0.883845 0.142607
H9    H     H_    0.911450 0.733751 0.045247 0.136551
H10   H     H_    0.413322 0.428669 0.164810 0.145271
H11   H     H_    0.148766 0.376620 0.782692 0.156520
H12   H     H_    0.244464 0.411709 0.082257 0.124532
H13   H     H_    0.070492 0.338191 0.962323 0.141519
H14   H     H_    0.650008 0.682645 0.770180 0.165590
H15   H     H_    0.638990 0.138014 0.488856 0.153612
N1    N     N_2   0.845330 0.551960 0.543750 -0.282016
N2    N     N_2   0.154690 0.448120 0.456210 -0.291606
O1    O     O_R   0.426290 0.668220 0.490680 -0.533361
O2    O     O_R   0.659360 0.703290 0.520190 -0.583536
O3    O     O_R   0.326580 0.473880 0.629020 -0.578897
O4    O     O_R   0.559660 0.508940 0.658530 -0.570830
O5    O     O_R   0.340640 0.296710 0.479810 -0.573574
O6    O     O_R   0.573710 0.331780 0.509320 -0.567514
O7    O     O_R   0.440340 0.491060 0.341470 -0.588582
O8    O     O_R   0.673420 0.526120 0.370980 -0.579153
O9    O     O_3   0.392685 0.855978 0.404402 -0.590382
C25   C     C_3   0.446921 0.818484 0.307547 0.119878
H16   H     H_    0.368028 0.721304 0.287619 0.177722
H17   H     H_    0.555963 0.806553 0.304399 0.110246
C26   C     C_3   0.455311 0.915257 0.228925 -0.397159
H18   H     H_    0.345427 0.924155 0.231012 0.227397
H19   H     H_    0.535710 0.012643 0.246674 0.217740
C27   C     C_3   0.503217 0.870691 0.123201 -0.895156
H20   H     H_    0.614005 0.863140 0.119106 0.261948
H21   H     H_    0.508509 0.942491 0.067736 0.256427
H22   H     H_    0.423056 0.774324 0.102978 0.259904

loop_
_geom_bond_atom_site_label_1
_geom_bond_atom_site_label_2
_ccdc_geom_bond_type
C24   H12   S    
C23   C24   A    
C17   N2    D    
C6    C7    A    
C22   H11   S    
C16   N1    D    
C13   O9    S    
C14   C18   S    
C9    C20   A    
C2    C4    A    
Cu1   O5    S    
C26   C27   S    
C4    C8    A    
C9    C21   A    
Cu1   N2    S    
C13   C15   S    
C2    C3    A    
C27   H20   S    
C3    C10   A    
C25   H16   S    
O9    C25   S    
C11   H3    S    
C17   H4    S    
C11   C13   D    
C19   O7    A    
C1    O2    A    
C10   C12   S    
Cu2   O4    S    
C12   O4    A    
C23   H13   S    
H7    N1    S    
Cu1   O1    S    
C19   C21   S    
H6    N2    S    
C26   H19   S    
C8    C21   A    
C3    C7    A    
C25   H17   S    
Cu2   N1    S    
C2    C24   A    
C5    C6    A    
C25   C26   S    
C27   H21   S    
C6    H8    S    
C15   H15   S    
C19   O8    A    
C26   H18   S    
C9    H1    S    
C12   O3    A    
C8    H10   S    
Cu2   O6    S    
C5    C20   A    
Cu1   O7    S    
C16   C17   S    
C27   H22   S    
C1    O1    A    
Cu2   O2    S    
C14   H2    S    
Cu1   Cu2   S    
Cu2   O8    S    
C7    H14   S    
Cu1   O3    S    
C20   H9    S    
C22   C23   A    
C10   C22   A    
C14   C15   D    
C18   O6    A    
C18   O5    A    
C4    C5    A    
C16   H5    S    
C1    C11   S    
