data_mof_unit_65891.cif
_audit_creation_date              2012-10-26T19:54:11-0400
_audit_creation_method            fapswitch 2.2
_symmetry_space_group_name_H-M    P1
_symmetry_Int_Tables_number       1
_space_group_crystal_system       triclinic
_cell_length_a                    15.906964
_cell_length_b                    16.013137
_cell_length_c                    14.769046
_cell_angle_alpha                 89.946831
_cell_angle_beta                  90.018692
_cell_angle_gamma                 89.994042
_cell_volume                      3761.97537253

loop_
_atom_site_label
_atom_site_type_symbol
_atom_type_description
_atom_site_fract_x
_atom_site_fract_y
_atom_site_fract_z
_atom_type_partial_charge
C1    C     C_R   0.500018 0.340898 0.500034 0.548315
C2    C     C_1   0.500048 0.748087 0.499692 -0.027566
C3    C     C_R   0.557604 0.549008 0.952074 -0.105768
C4    C     C_R   0.442396 0.450992 0.047926 -0.105768
C5    C     C_R   0.499982 0.500010 0.902864 0.002891
C6    C     C_R   0.500018 0.499990 0.097136 0.002891
C7    C     C_R   0.442378 0.451001 0.952142 -0.102586
C8    C     C_R   0.557622 0.548998 0.047858 -0.102586
C9    C     C_1   0.499970 0.500016 0.802715 0.132513
C10   C     C_1   0.500030 0.499984 0.197285 0.132513
C11   C     C_R   0.339487 0.499990 0.499984 0.548343
C12   C     C_R   0.499982 0.659102 0.499966 0.548315
C13   C     C_R   0.660512 0.500010 0.500016 0.548342
C14   C     C_3   0.972087 0.428844 0.536431 0.006822
C15   C     C_3   0.027913 0.571156 0.463569 0.006822
C16   C     C_3   0.027937 0.435404 0.451407 0.006865
C17   C     C_3   0.972063 0.564596 0.548593 0.006865
C18   C     C_1   0.250076 0.499998 0.499998 -0.007025
C19   C     C_1   0.749924 0.500002 0.500002 -0.007025
C20   C     C_3   0.028020 0.493381 0.585922 0.116538
C21   C     C_3   0.971980 0.506619 0.414078 0.116538
C22   C     C_3   0.083322 0.499987 0.500295 0.036574
C23   C     C_R   0.500231 0.912615 0.497756 0.041967
C24   C     C_3   0.916678 0.500013 0.499705 0.036574
C25   C     C_1   0.174774 0.499999 0.500098 -0.021893
C26   C     C_1   0.825225 0.500001 0.499902 -0.021893
C27   C     C_R   0.492994 0.954605 0.580430 -0.101802
C28   C     C_R   0.507006 0.045395 0.419570 -0.101802
C29   C     C_3   0.060585 0.361804 0.396712 -0.379900
C30   C     C_3   0.939415 0.638195 0.603288 -0.379900
C31   C     C_3   0.939480 0.347870 0.577281 -0.380346
C32   C     C_3   0.060519 0.652130 0.422719 -0.380346
C33   C     C_3   0.484657 0.083232 0.675145 -0.395411
C34   C     C_R   0.499769 0.087385 0.502244 0.041967
C35   C     C_3   0.515343 0.916768 0.324855 -0.395411
C36   C     C_R   0.507339 0.958063 0.416188 0.013716
C37   C     C_R   0.492661 0.041937 0.583812 0.013716
C38   C     C_1   0.500134 0.823040 0.498908 -0.058677
C39   C     C_1   0.499866 0.176960 0.501092 -0.058677
C40   C     C_1   0.499952 0.251913 0.500308 -0.027566
Cu1   Cu    Cu3+1 0.500020 0.500000 0.589220 1.004773
Cu2   Cu    Cu3+1 0.499980 0.500000 0.410780 1.004773
H1    H     H_    0.487565 0.919110 0.642769 0.116901
H2    H     H_    0.993175 0.674470 0.630560 0.155157
H3    H     H_    0.900709 0.679158 0.559239 0.133219
H4    H     H_    0.900340 0.615056 0.660259 0.157556
H5    H     H_    0.993264 0.307932 0.597699 0.154096
H6    H     H_    0.900424 0.361953 0.637609 0.157563
H7    H     H_    0.900771 0.314205 0.526560 0.133983
H8    H     H_    0.006735 0.692068 0.402301 0.154096
H9    H     H_    0.099229 0.685795 0.473440 0.133983
H10   H     H_    0.099576 0.638047 0.362391 0.157563
H11   H     H_    0.484972 0.152360 0.671313 0.148066
H12   H     H_    0.512435 0.080890 0.357231 0.116901
H13   H     H_    0.424817 0.063604 0.707487 0.133990
H14   H     H_    0.537841 0.063620 0.719000 0.132787
H15   H     H_    0.515028 0.847640 0.328687 0.148066
H16   H     H_    0.462159 0.936380 0.281000 0.132787
H17   H     H_    0.575183 0.936396 0.292513 0.133990
H18   H     H_    0.602821 0.587438 0.083503 0.122364
H19   H     H_    0.397179 0.412562 0.916497 0.122364
H20   H     H_    0.602791 0.587454 0.916376 0.116459
H21   H     H_    0.397209 0.412545 0.083624 0.116459
H22   H     H_    0.006825 0.325530 0.369439 0.155157
H23   H     H_    0.099660 0.384944 0.339741 0.157556
H24   H     H_    0.099291 0.320842 0.440761 0.133219
I1    I     I_    0.926491 0.517083 0.278268 -0.393691
I2    I     I_    0.073509 0.482917 0.721732 -0.393691
N1    N     N_1   0.500030 0.499980 0.276710 -0.188716
N2    N     N_1   0.499970 0.500020 0.723290 -0.188716
O1    O     O_R   0.500040 0.380310 0.575320 -0.492160
O2    O     O_R   0.499960 0.619690 0.424680 -0.492160
O3    O     O_R   0.500000 0.380310 0.424640 -0.489911
O4    O     O_R   0.500000 0.619690 0.575360 -0.489911
O5    O     O_R   0.379100 0.499990 0.575330 -0.480175
O6    O     O_R   0.620900 0.500010 0.424670 -0.480175
O7    O     O_R   0.379060 0.499990 0.424640 -0.495832
O8    O     O_R   0.620940 0.500010 0.575360 -0.495832

loop_
_geom_bond_atom_site_label_1
_geom_bond_atom_site_label_2
_ccdc_geom_bond_type
C33   H13   S    
C11   C18   S    
C16   C21   S    
C12   O4    A    
C34   C37   A    
Cu1   Cu2   S    
C30   H3    S    
C35   C36   S    
C14   C31   S    
C2    C12   S    
C15   C32   S    
C4    H21   S    
C1    O1    A    
C35   H16   S    
C24   C26   S    
C17   C20   S    
C35   H17   S    
C14   C24   S    
C19   C26   T    
C7    H19   S    
C11   O7    A    
C1    C40   S    
Cu1   O4    S    
C15   C22   S    
C32   H10   S    
C22   C25   S    
C23   C27   A    
Cu1   O1    S    
C33   H14   S    
C12   O2    A    
C29   H22   S    
C28   C34   A    
C31   H5    S    
C21   I1    S    
C17   C30   S    
C30   H2    S    
C18   C25   T    
C31   H7    S    
C4    C7    A    
C20   I2    S    
C33   H11   S    
C17   C24   S    
C13   C19   S    
C34   C39   S    
C14   C20   S    
C9    N2    T    
C4    C6    A    
C3    C8    A    
C39   C40   T    
C5    C7    A    
C28   H12   S    
C6    C8    A    
C16   C29   S    
Cu2   N1    S    
C33   C37   S    
C32   H9    S    
C5    C9    S    
Cu1   O5    S    
C2    C38   T    
C13   O6    A    
Cu2   O2    S    
C32   H8    S    
C29   H23   S    
C20   C22   S    
C31   H6    S    
C14   C16   S    
Cu1   O8    S    
C3    H20   S    
C15   C17   S    
C13   O8    A    
Cu2   O3    S    
C16   C22   S    
C30   H4    S    
C3    C5    A    
C6    C10   S    
C23   C38   S    
Cu2   O6    S    
C35   H15   S    
C1    O3    A    
C11   O5    A    
C8    H18   S    
C27   C37   A    
C29   H24   S    
C10   N1    T    
C27   H1    S    
C15   C21   S    
C28   C36   A    
Cu2   O7    S    
C23   C36   A    
C21   C24   S    
Cu1   N2    S    
