data_mof_unit_46615.cif
_audit_creation_date              2012-12-10T18:43:40-0500
_audit_creation_method            fapswitch 2.2
_symmetry_space_group_name_H-M    P1
_symmetry_Int_Tables_number       1
_space_group_crystal_system       triclinic
_cell_length_a                    10.482866
_cell_length_b                    10.666447
_cell_length_c                    9.92159
_cell_angle_alpha                 91.091437
_cell_angle_beta                  102.500907
_cell_angle_gamma                 91.044381
_cell_volume                      1082.60095524

loop_
_atom_site_label
_atom_site_type_symbol
_atom_type_description
_atom_site_fract_x
_atom_site_fract_y
_atom_site_fract_z
_atom_type_partial_charge
C1    C     C_R   0.499721 0.260127 0.499065 0.916005
C2    C     C_R   0.501361 0.739750 0.501359 0.849342
C3    C     C_R   0.257554 0.494135 0.443998 0.976947
C4    C     C_R   0.742162 0.492389 0.555480 0.961500
C5    C     C_R   0.581372 0.578508 0.093936 -0.091933
C6    C     C_R   0.416942 0.423464 0.905787 -0.107120
C7    C     C_R   0.586572 0.575489 0.952127 0.198040
C8    C     C_R   0.420190 0.418023 0.049141 0.197002
C9    C     C_2   0.117356 0.473449 0.417989 -0.464465
C10   C     C_2   0.880736 0.466083 0.579320 -0.472062
C11   C     C_2   0.065625 0.392701 0.495041 0.382661
C12   C     C_2   0.926740 0.393825 0.488120 0.393919
C13   C     C_R   0.567842 0.063540 0.413612 -0.187357
C14   C     C_R   0.438485 0.936147 0.591243 -0.193166
C15   C     C_R   0.568593 0.934971 0.414831 -0.179640
C16   C     C_R   0.436064 0.064609 0.588227 -0.147906
C17   C     C_R   0.503546 0.872205 0.503370 -0.012456
C18   C     C_R   0.500109 0.127507 0.498862 -0.027685
H1    H     H_    0.645827 0.641042 0.166284 0.144690
H2    H     H_    0.350955 0.362789 0.833333 0.203243
H3    H     H_    0.947102 0.511648 0.666618 0.128060
H4    H     H_    0.055317 0.532238 0.344542 0.134621
H5    H     H_    0.621446 0.112603 0.348405 0.196454
H6    H     H_    0.387555 0.886899 0.659225 0.157950
H7    H     H_    0.620791 0.884733 0.348334 0.151098
H8    H     H_    0.383462 0.114632 0.654157 0.193489
N1    N     N_R   0.499970 0.499970 0.857200 -0.116530
N2    N     N_R   0.500030 0.500030 0.142800 -0.104623
O1    O     O_R   0.499990 0.316750 0.614620 -0.605462
O2    O     O_R   0.500010 0.683250 0.385380 -0.622106
O3    O     O_R   0.499990 0.316780 0.385290 -0.622570
O4    O     O_R   0.500010 0.683220 0.614710 -0.646889
O5    O     O_R   0.317810 0.500000 0.571850 -0.568485
O6    O     O_R   0.682190 0.500000 0.428150 -0.561757
O7    O     O_R   0.317810 0.500030 0.342520 -0.634687
O8    O     O_R   0.682190 0.499970 0.657480 -0.632150
Zn1   Zn    Zn3+2 0.500000 0.499980 0.653120 0.953245
Zn2   Zn    Zn3+2 0.500000 0.500020 0.346880 0.960278
Cl1   Cl    Cl    0.827722 0.302326 0.353361 -0.632699
Cl2   Cl    Cl    0.157012 0.281609 0.602943 -0.675164
C19   C     C_3   0.692935 0.655085 0.912823 -0.403708
C20   C     C_3   0.824993 0.588815 0.938021 -0.316132
C21   C     C_3   0.897306 0.593509 0.089055 -0.856587
H9    H     H_    0.905609 0.691277 0.131092 0.254568
H10   H     H_    0.846549 0.533271 0.151864 0.288543
H11   H     H_    0.997275 0.557494 0.096608 0.251842
H12   H     H_    0.811318 0.489142 0.902286 0.254327
H13   H     H_    0.888098 0.635973 0.876595 0.205369
H14   H     H_    0.666828 0.680663 0.804323 0.231489
H15   H     H_    0.703644 0.746403 0.970680 0.171686
C22   C     C_3   0.337151 0.315412 0.092355 -0.390902
C23   C     C_3   0.403136 0.187250 0.099184 -0.329210
C24   C     C_3   0.391260 0.122501 0.958201 -0.850045
H16   H     H_    0.456502 0.169584 0.899540 0.264721
H17   H     H_    0.288708 0.122374 0.898110 0.283487
H18   H     H_    0.422288 0.023771 0.972708 0.244464
H19   H     H_    0.508285 0.198637 0.148921 0.253678
H20   H     H_    0.356632 0.124743 0.164038 0.224283
H21   H     H_    0.316153 0.335985 0.193504 0.235213
H22   H     H_    0.239646 0.309702 0.020480 0.191285

loop_
_geom_bond_atom_site_label_1
_geom_bond_atom_site_label_2
_ccdc_geom_bond_type
C21   H9    S    
C4    O8    A    
C15   C17   A    
C13   C15   A    
C5    H1    S    
N2    Zn2   S    
C5    N2    A    
C6    H2    S    
C19   C20   S    
C24   H17   S    
C6    N1    A    
C14   C17   A    
O3    Zn2   S    
C3    O7    A    
C2    O2    A    
C12   Cl1   S    
C1    O1    A    
C20   H13   S    
C24   H16   S    
C2    C17   S    
C21   H10   S    
C8    C22   S    
O2    Zn2   S    
C1    C18   S    
C10   C12   D    
C13   C18   A    
N1    Zn1   S    
C3    C9    S    
C16   C18   A    
O8    Zn1   S    
C14   C16   A    
C20   H12   S    
C9    C11   D    
C10   H3    S    
C16   H8    S    
C11   Cl2   S    
C23   H20   S    
C21   H11   S    
C4    O6    A    
C9    H4    S    
C15   H7    S    
C22   H21   S    
C23   H19   S    
C3    O5    A    
O1    Zn1   S    
C22   C23   S    
C19   H15   S    
C1    O3    A    
O7    Zn2   S    
C7    N1    A    
C23   C24   S    
C13   H5    S    
C8    N2    A    
C2    O4    A    
C20   C21   S    
C24   H18   S    
C14   H6    S    
C5    C7    A    
C7    C19   S    
C6    C8    A    
C22   H22   S    
O6    Zn2   S    
C4    C10   S    
O4    Zn1   S    
O5    Zn1   S    
C11   C12   S    
C19   H14   S    
