data_mof_unit_59063.cif
_audit_creation_date              2012-12-11T14:42:03-0500
_audit_creation_method            fapswitch 2.2
_symmetry_space_group_name_H-M    P1
_symmetry_Int_Tables_number       1
_space_group_crystal_system       triclinic
_cell_length_a                    19.209351
_cell_length_b                    11.088153
_cell_length_c                    18.65477
_cell_angle_alpha                 89.445851
_cell_angle_beta                  90.211533
_cell_angle_gamma                 89.762291
_cell_volume                      3973.14784317

loop_
_atom_site_label
_atom_site_type_symbol
_atom_type_description
_atom_site_fract_x
_atom_site_fract_y
_atom_site_fract_z
_atom_type_partial_charge
C1    C     C_R   0.728535 0.951672 0.851304 0.547625
C2    C     C_R   0.272033 0.951773 0.148158 0.530392
C3    C     C_R   0.228532 0.451686 0.851313 0.548792
C4    C     C_R   0.772022 0.451707 0.148199 0.529709
C5    C     C_R   0.682493 0.412218 0.052106 0.225815
C6    C     C_R   0.314294 0.429476 0.953989 0.352771
C7    C     C_R   0.182624 0.912761 0.051823 0.226402
C8    C     C_R   0.814312 0.929417 0.953955 0.352432
C9    C     C_R   0.746653 0.386271 0.084710 -0.015705
C10   C     C_R   0.251176 0.398597 0.919368 -0.038754
C11   C     C_R   0.246696 0.886527 0.084579 -0.015509
C12   C     C_R   0.751212 0.898481 0.919321 -0.038343
C13   C     C_R   0.790468 0.303459 0.051566 -0.175621
C14   C     C_R   0.198407 0.344442 0.958748 -0.145103
C15   C     C_R   0.290472 0.803574 0.051509 -0.175764
C16   C     C_R   0.698490 0.844111 0.958665 -0.144988
C17   C     C_R   0.780733 0.274887 0.979440 0.247475
C18   C     C_R   0.196692 0.354479 0.032052 0.272525
C19   C     C_R   0.280770 0.774942 0.979390 0.247410
C20   C     C_R   0.696769 0.853997 0.031979 0.272614
C21   C     C_R   0.727195 0.331370 0.939658 -0.017772
C22   C     C_R   0.256331 0.393004 0.068975 -0.030775
C23   C     C_R   0.227256 0.831424 0.939568 -0.018087
C24   C     C_R   0.756357 0.892760 0.068922 -0.030685
C25   C     C_R   0.534988 0.274870 0.521709 0.287621
C26   C     C_R   0.540358 0.260453 0.448373 0.287823
C27   C     C_R   0.049919 0.779956 0.517262 0.277701
C28   C     C_R   0.046583 0.770579 0.443119 0.284214
C29   C     C_R   0.509285 0.158404 0.419276 -0.030405
C30   C     C_R   0.518871 0.173837 0.566023 -0.021014
C31   C     C_R   0.018196 0.664296 0.414931 -0.030088
C32   C     C_R   0.048868 0.674240 0.559908 -0.025702
C33   C     C_R   0.495272 0.056377 0.461855 -0.189369
C34   C     C_R   0.501831 0.063488 0.535304 -0.194763
C35   C     C_R   0.018836 0.557757 0.455721 -0.195234
C36   C     C_R   0.037615 0.562011 0.527497 -0.194810
C37   C     C_R   0.776264 0.271890 0.520937 -0.104391
C38   C     C_R   0.219857 0.280220 0.480488 -0.100305
C39   C     C_R   0.275867 0.771819 0.520609 -0.109324
C40   C     C_R   0.719989 0.779553 0.480323 -0.097582
C41   C     C_R   0.783843 0.297330 0.448416 0.265856
C42   C     C_R   0.216802 0.297722 0.554158 0.272652
C43   C     C_R   0.282846 0.796480 0.447900 0.264740
C44   C     C_R   0.716381 0.797752 0.553880 0.276233
C45   C     C_R   0.527634 0.174722 0.848436 0.562871
C46   C     C_R   0.465315 0.179327 0.147153 0.576292
C47   C     C_R   0.027621 0.674720 0.848424 0.571258
C48   C     C_R   0.965293 0.679342 0.147136 0.575447
C49   C     C_R   0.749587 0.399767 0.419121 0.000385
C50   C     C_R   0.254843 0.393815 0.583960 0.017990
C51   C     C_R   0.249279 0.899652 0.418811 0.001890
C52   C     C_R   0.754706 0.893478 0.583916 0.019884
C53   C     C_R   0.700829 0.461938 0.459955 -0.141718
C54   C     C_R   0.308539 0.446293 0.544094 -0.203396
C55   C     C_R   0.201884 0.963744 0.460134 -0.144104
C56   C     C_R   0.808787 0.945310 0.544264 -0.202993
C57   C     C_R   0.693270 0.435013 0.531752 -0.093645
C58   C     C_R   0.317041 0.417106 0.472144 -0.159933
C59   C     C_R   0.195729 0.938741 0.532261 -0.100387
C60   C     C_R   0.817426 0.915959 0.472334 -0.161845
C61   C     C_R   0.732080 0.341746 0.563122 -0.031790
C62   C     C_R   0.269567 0.339658 0.438628 -0.032597
C63   C     C_R   0.233092 0.843555 0.563211 -0.038353
C64   C     C_R   0.769835 0.838883 0.438640 -0.032190
C65   C     C_R   0.724324 0.313188 0.860657 0.594724
C66   C     C_R   0.262827 0.360257 0.145226 0.566297
C67   C     C_R   0.224328 0.813149 0.860629 0.596466
C68   C     C_R   0.762839 0.860187 0.145201 0.566108
C69   C     C_R   0.728965 0.952458 0.648953 0.528177
C70   C     C_R   0.271883 0.952964 0.351403 0.519102
C71   C     C_R   0.228950 0.452640 0.648917 0.519493
C72   C     C_R   0.772081 0.453369 0.351679 0.518261
C73   C     C_R   0.534440 0.178036 0.641863 0.549232
C74   C     C_R   0.471011 0.174414 0.353826 0.541054
C75   C     C_R   0.061949 0.680995 0.636959 0.569239
C76   C     C_R   0.972852 0.675304 0.352876 0.540462
C77   C     C_R   0.726132 0.313743 0.639078 0.563388
C78   C     C_R   0.273761 0.314226 0.361477 0.553617
C79   C     C_R   0.226458 0.814606 0.638965 0.544647
C80   C     C_R   0.773871 0.813900 0.361431 0.554466
C81   C     C_2   0.484702 0.147526 0.911277 0.258354
C82   C     C_2   0.478329 0.177177 0.070649 0.238125
C83   C     C_2   0.984653 0.647513 0.911243 0.257155
C84   C     C_2   0.978328 0.677234 0.070624 0.238430
C85   C     C_2   0.498347 0.073891 0.038769 0.255842
C86   C     C_2   0.509690 0.064819 0.960459 0.254528
C87   C     C_2   0.998302 0.573928 0.038742 0.256202
C88   C     C_2   0.009617 0.564795 0.960430 0.252945
C89   C     C_R   0.676257 0.397067 0.977228 -0.184906
C90   C     C_R   0.315244 0.428453 0.029345 -0.080799
C91   C     C_R   0.176385 0.897353 0.977014 -0.184857
C92   C     C_R   0.815249 0.928363 0.029310 -0.080693
Cr1   Cr    Cr6+3 0.769270 0.163730 0.750710 1.006763
Cr2   Cr    Cr6+3 0.230730 0.163730 0.249290 1.014986
Cr3   Cr    Cr6+3 0.269270 0.663730 0.750710 0.998775
Cr4   Cr    Cr6+3 0.730730 0.663730 0.249290 1.019643
Cr5   Cr    Cr6+3 0.612620 0.009790 0.748780 1.008412
Cr6   Cr    Cr6+3 0.387380 0.009790 0.251220 1.016142
Cr7   Cr    Cr6+3 0.112620 0.509790 0.748780 1.003808
Cr8   Cr    Cr6+3 0.887380 0.509790 0.251220 1.017870
Cr9   Cr    Cr6+3 0.614160 0.322500 0.747710 0.994259
Cr10  Cr    Cr6+3 0.385840 0.322500 0.252290 1.002403
Cr11  Cr    Cr6+3 0.114160 0.822500 0.747710 0.991132
Cr12  Cr    Cr6+3 0.885840 0.822500 0.252290 1.000853
H1    H     H_    0.669533 0.532899 0.436504 0.162362
H2    H     H_    0.341724 0.513661 0.567626 0.118185
H3    H     H_    0.170853 0.035076 0.436842 0.163324
H4    H     H_    0.842290 0.012171 0.567935 0.118762
H5    H     H_    0.658243 0.489546 0.562804 0.214070
H6    H     H_    0.357905 0.460757 0.441912 0.165602
H7    H     H_    0.161876 0.994759 0.563638 0.219211
H8    H     H_    0.858583 0.959119 0.442275 0.163786
H9    H     H_    0.631387 0.433413 0.949065 0.124848
H10   H     H_    0.362429 0.454638 0.056885 0.165675
H11   H     H_    0.131526 0.933679 0.948821 0.125169
H12   H     H_    0.862407 0.954659 0.056863 0.165766
H13   H     H_    0.834107 0.264606 0.080601 0.121345
H14   H     H_    0.153139 0.308178 0.932622 0.161475
H15   H     H_    0.334057 0.764643 0.080597 0.121509
H16   H     H_    0.653243 0.807819 0.932512 0.161187
H17   H     H_    0.473714 0.974931 0.439250 0.178485
H18   H     H_    0.490955 0.984642 0.568095 0.161361
H19   H     H_    0.000343 0.473589 0.433803 0.172745
H20   H     H_    0.037692 0.478948 0.558515 0.180355
H21   H     H_    0.805939 0.199052 0.544640 0.138454
H22   H     H_    0.182728 0.221263 0.455948 0.137842
H23   H     H_    0.304745 0.697984 0.544104 0.138113
H24   H     H_    0.683142 0.720040 0.455715 0.137650
O1    O     O_R   0.784320 0.290430 0.830510 -0.471944
O2    O     O_R   0.215680 0.290430 0.169490 -0.463782
O3    O     O_R   0.284320 0.790430 0.830510 -0.471560
O4    O     O_R   0.715680 0.790430 0.169490 -0.463357
O5    O     O_R   0.554640 0.080370 0.673500 -0.509226
O6    O     O_R   0.445360 0.080370 0.326500 -0.509618
O7    O     O_R   0.054640 0.580370 0.673500 -0.512529
O8    O     O_R   0.945360 0.580370 0.326500 -0.504214
O9    O     O_R   0.543920 0.282180 0.666790 -0.482531
O10   O     O_R   0.456080 0.282180 0.333210 -0.489716
O11   O     O_R   0.043920 0.782180 0.666790 -0.480946
O12   O     O_R   0.956080 0.782180 0.333210 -0.490474
O13   O     O_R   0.679040 0.374160 0.674430 -0.504555
O14   O     O_R   0.320960 0.374160 0.325570 -0.520255
O15   O     O_R   0.179040 0.874160 0.674430 -0.511913
O16   O     O_R   0.820960 0.874160 0.325570 -0.519837
O17   O     O_3   0.665350 0.165340 0.749070 -0.289835
O18   O     O_3   0.334650 0.165340 0.250930 -0.276838
O19   O     O_3   0.165350 0.665340 0.749070 -0.306467
O20   O     O_3   0.834650 0.665340 0.250930 -0.277241
O21   O     O_R   0.762640 0.040960 0.825200 -0.472453
O22   O     O_R   0.237360 0.040960 0.174800 -0.483808
O23   O     O_R   0.262640 0.540960 0.825200 -0.470399
O24   O     O_R   0.737360 0.540960 0.174800 -0.482959
O25   O     O_R   0.667400 0.923970 0.829950 -0.532621
O26   O     O_R   0.332600 0.923970 0.170050 -0.557905
O27   O     O_R   0.167400 0.423970 0.829950 -0.531623
O28   O     O_R   0.832600 0.423970 0.170050 -0.558648
O29   O     O_R   0.553960 0.081340 0.821780 -0.488887
O30   O     O_R   0.446040 0.081340 0.178220 -0.493957
O31   O     O_R   0.053960 0.581340 0.821780 -0.484191
O32   O     O_R   0.946040 0.581340 0.178220 -0.494493
O33   O     O_R   0.543180 0.283240 0.826740 -0.557177
O34   O     O_R   0.456820 0.283240 0.173260 -0.537475
O35   O     O_R   0.043180 0.783240 0.826740 -0.554196
O36   O     O_R   0.956820 0.783240 0.173260 -0.539242
O37   O     O_R   0.678360 0.375140 0.822710 -0.524569
O38   O     O_R   0.321640 0.375140 0.177290 -0.514034
O39   O     O_R   0.178360 0.875140 0.822710 -0.524084
O40   O     O_R   0.821640 0.875140 0.177290 -0.514079
O41   O     O_R   0.785050 0.289380 0.670560 -0.520598
O42   O     O_R   0.214950 0.289380 0.329440 -0.512130
O43   O     O_R   0.285050 0.789380 0.670560 -0.518904
O44   O     O_R   0.714950 0.789380 0.329440 -0.511381
O45   O     O_R   0.763320 0.039990 0.676930 -0.547720
O46   O     O_R   0.236680 0.039990 0.323070 -0.549294
O47   O     O_R   0.263320 0.539990 0.676930 -0.548604
O48   O     O_R   0.736680 0.539990 0.323070 -0.545796
O49   O     O_R   0.668130 0.922920 0.670000 -0.467941
O50   O     O_R   0.331870 0.922920 0.330000 -0.463441
O51   O     O_R   0.168130 0.422920 0.670000 -0.478826
O52   O     O_R   0.831870 0.422920 0.330000 -0.460613
O53   O     O_3   0.524567 0.981215 0.081573 -0.509390
C93   C     C_3   0.475217 0.887569 0.086906 -0.040416
H25   H     H_    0.492068 0.810249 0.054751 0.104300
H26   H     H_    0.421535 0.914481 0.070714 0.089105
H27   H     H_    0.473384 0.855474 0.143366 0.155150
O54   O     O_3   0.558596 0.979243 0.940310 -0.516765
C94   C     C_3   0.524470 0.883389 0.904783 -0.082246
H28   H     H_    0.555204 0.853635 0.858342 0.161391
H29   H     H_    0.472384 0.906585 0.882091 0.065710
H30   H     H_    0.521935 0.804422 0.940811 0.080205
O55   O     O_3   0.024459 0.481216 0.081554 -0.509116
C95   C     C_3   0.975077 0.387616 0.086821 -0.040560
H31   H     H_    0.991896 0.310364 0.054593 0.104091
H32   H     H_    0.921402 0.414636 0.070661 0.089313
H33   H     H_    0.973245 0.355390 0.143258 0.154715
O56   O     O_3   0.058509 0.479187 0.940294 -0.517557
C96   C     C_3   0.024392 0.383393 0.904697 -0.081954
H34   H     H_    0.055136 0.353743 0.858236 0.162431
H35   H     H_    0.972300 0.406612 0.882026 0.067297
H36   H     H_    0.021871 0.304348 0.940668 0.079733
O57   O     O_3   0.830108 0.228451 0.409370 -0.557265
C97   C     C_3   0.792442 0.159517 0.359369 -0.097538
H37   H     H_    0.765245 0.216778 0.318807 0.101860
H38   H     H_    0.754322 0.099407 0.386569 0.120717
H39   H     H_    0.829895 0.102715 0.329731 0.171026
O58   O     O_3   0.170728 0.228976 0.594143 -0.564534
C98   C     C_3   0.207899 0.165686 0.648509 -0.102299
H40   H     H_    0.230051 0.225957 0.689736 0.117078
H41   H     H_    0.250521 0.109737 0.625756 0.111239
H42   H     H_    0.171117 0.105388 0.676915 0.165724
O59   O     O_3   0.327812 0.725889 0.408354 -0.559977
C99   C     C_3   0.288804 0.659098 0.358395 -0.097068
H43   H     H_    0.262058 0.717832 0.318281 0.101611
H44   H     H_    0.250180 0.600075 0.385706 0.122216
H45   H     H_    0.325261 0.601412 0.328106 0.171855
O60   O     O_3   0.669541 0.729946 0.593436 -0.564449
C100  C     C_3   0.706060 0.664520 0.647301 -0.102908
H46   H     H_    0.729151 0.723556 0.688654 0.117092
H47   H     H_    0.747839 0.607258 0.624081 0.114863
H48   H     H_    0.668591 0.605281 0.675537 0.163309
O61   O     O_3   0.450359 0.272830 0.031890 -0.565465
C101  C     C_3   0.501576 0.360123 0.019376 -0.092484
H49   H     H_    0.553510 0.318875 0.011340 0.119844
H50   H     H_    0.500711 0.427013 0.063055 0.163534
H51   H     H_    0.489196 0.409711 0.969301 0.177492
O62   O     O_3   0.418223 0.196620 0.914293 -0.575375
C102  C     C_3   0.367659 0.104612 0.918010 -0.130064
H52   H     H_    0.369332 0.056441 0.970485 0.110207
H53   H     H_    0.373211 0.040102 0.873057 0.112260
H54   H     H_    0.315352 0.146630 0.913057 0.133211
O63   O     O_3   0.950352 0.772894 0.031871 -0.565545
C103  C     C_3   0.001610 0.860023 0.019087 -0.092443
H55   H     H_    0.053548 0.818719 0.011114 0.119087
H56   H     H_    0.000752 0.927285 0.062558 0.163544
H57   H     H_    0.989228 0.909242 0.968892 0.177565
O64   O     O_3   0.918189 0.696677 0.914253 -0.574989
C104  C     C_3   0.867592 0.604732 0.918094 -0.128599
H58   H     H_    0.869251 0.556758 0.970632 0.109538
H59   H     H_    0.873116 0.540044 0.873229 0.114509
H60   H     H_    0.815300 0.646785 0.913089 0.133036
O65   O     O_3   0.627036 0.456175 0.091333 -0.630858
C105  C     C_3   0.611744 0.377394 0.149419 -0.121758
H61   H     H_    0.652632 0.375764 0.191309 0.117365
H62   H     H_    0.602522 0.283804 0.130873 0.118272
H63   H     H_    0.564182 0.410903 0.176129 0.154210
O66   O     O_3   0.373101 0.474425 0.919506 -0.550364
C106  C     C_3   0.386802 0.425489 0.851250 -0.045294
H64   H     H_    0.382360 0.496895 0.809489 0.126209
H65   H     H_    0.354778 0.346106 0.836625 0.121206
H66   H     H_    0.441806 0.398475 0.850040 0.171624
O67   O     O_3   0.127144 0.956967 0.090850 -0.630309
C107  C     C_3   0.111554 0.878159 0.148771 -0.125596
H67   H     H_    0.152404 0.876120 0.190683 0.115354
H68   H     H_    0.102200 0.784663 0.130143 0.119398
H69   H     H_    0.063975 0.911977 0.175305 0.150005
O68   O     O_3   0.873109 0.974441 0.919485 -0.551221
C108  C     C_3   0.886814 0.925591 0.851204 -0.043103
H70   H     H_    0.882359 0.997046 0.809475 0.126964
H71   H     H_    0.854803 0.846207 0.836549 0.122939
H72   H     H_    0.941820 0.898599 0.849965 0.172297
O69   O     O_3   0.822504 0.190322 0.946793 -0.502987
C109  C     C_3   0.893130 0.220514 0.954369 -0.074464
H73   H     H_    0.915830 0.170761 0.000855 0.103791
H74   H     H_    0.901159 0.319088 0.960023 0.060182
H75   H     H_    0.921025 0.191674 0.905458 0.154809
O70   O     O_3   0.135285 0.330289 0.067772 -0.487606
C110  C     C_3   0.120730 0.206368 0.063056 -0.044446
H76   H     H_    0.169159 0.151675 0.067278 0.179731
H77   H     H_    0.093273 0.185236 0.012368 0.073902
H78   H     H_    0.086319 0.180730 0.108290 0.162579
O71   O     O_3   0.322553 0.690345 0.946785 -0.502844
C111  C     C_3   0.393179 0.720489 0.954426 -0.074662
H79   H     H_    0.415827 0.670758 0.000945 0.103757
H80   H     H_    0.401225 0.819058 0.960070 0.060306
H81   H     H_    0.421116 0.691600 0.905551 0.154492
O72   O     O_3   0.635365 0.829638 0.067673 -0.487786
C112  C     C_3   0.620845 0.705710 0.062856 -0.044866
H82   H     H_    0.669272 0.651008 0.067072 0.179120
H83   H     H_    0.593411 0.684671 0.012138 0.073281
H84   H     H_    0.586403 0.679977 0.108045 0.163262
O73   O     O_3   0.550732 0.386029 0.549884 -0.543318
C113  C     C_3   0.489667 0.456312 0.551636 -0.087916
H85   H     H_    0.502061 0.544011 0.576675 0.145027
H86   H     H_    0.449102 0.412004 0.585008 0.107836
H87   H     H_    0.469992 0.475544 0.496590 0.149979
O74   O     O_3   0.562741 0.357014 0.406280 -0.533884
C114  C     C_3   0.607814 0.316454 0.351450 -0.109967
H88   H     H_    0.579963 0.274685 0.306109 0.118554
H89   H     H_    0.647752 0.252265 0.372386 0.087614
H90   H     H_    0.633899 0.395756 0.327703 0.140099
O75   O     O_3   0.055542 0.892292 0.547932 -0.552455
C115  C     C_3   0.989755 0.948806 0.547349 -0.077887
H91   H     H_    0.993126 0.032685 0.579074 0.140313
H92   H     H_    0.949624 0.890487 0.572821 0.116676
H93   H     H_    0.973986 0.974903 0.491992 0.160720
O76   O     O_3   0.058894 0.872742 0.401340 -0.539260
C116  C     C_3   0.102696 0.843894 0.342960 -0.108160
H94   H     H_    0.074031 0.803341 0.297780 0.122929
H95   H     H_    0.145839 0.781952 0.358711 0.079365
H96   H     H_    0.124710 0.928668 0.321510 0.147727

loop_
_geom_bond_atom_site_label_1
_geom_bond_atom_site_label_2
_ccdc_geom_bond_type
Cr2   O18   S    
C55   C59   A    
C88   O56   S    
O75   C115  S    
Cr3   O47   S    
C32   C75   S    
C113  H85   S    
C107  H68   S    
C36   H20   S    
O71   C111  S    
C40   H24   S    
C29   C33   A    
C96   H35   S    
C9    C13   A    
C93   H25   S    
C11   C15   A    
C57   H5    S    
C12   C16   A    
C111  H79   S    
C98   H42   S    
C59   H7    S    
C114  H89   S    
C8    C92   A    
C47   C83   S    
C43   O59   S    
C81   C86   D    
C112  H83   S    
C83   C88   D    
C58   H6    S    
C69   O45   A    
C41   C49   A    
C89   H9    S    
C105  H63   S    
C97   H37   S    
O55   C95   S    
C95   H33   S    
C18   O70   S    
Cr9   O9    S    
O58   C98   S    
C19   O71   S    
C8    O68   S    
C17   C21   A    
Cr12  O12   S    
C93   H27   S    
C19   C23   A    
C20   O72   S    
C13   H13   S    
C102  H52   S    
C16   C20   A    
C103  H56   S    
C45   O29   A    
C92   H12   S    
O76   C116  S    
C80   O44   A    
C25   O73   S    
C106  H66   S    
C67   O39   A    
Cr7   O19   S    
C44   O60   S    
Cr5   O17   S    
C6    O66   S    
C45   C81   S    
O56   C96   S    
Cr11  O15   S    
Cr12  O36   S    
C109  H74   S    
C57   C61   A    
C48   O36   A    
Cr2   O22   S    
C82   C85   D    
C59   C63   A    
C60   C64   A    
C115  H92   S    
C25   C26   A    
Cr2   O42   S    
C31   C76   S    
C73   O9    A    
C111  H81   S    
C49   C53   A    
C74   O6    A    
Cr1   O45   S    
C51   C55   A    
C90   H10   S    
C77   O13   A    
C99   H43   S    
O54   C94   S    
C5    C89   A    
C107  H67   S    
C38   C62   A    
C2    O22   A    
Cr6   O26   S    
Cr11  O39   S    
Cr7   O31   S    
Cr5   O5    S    
Cr11  O19   S    
C47   O31   A    
C85   C86   S    
C48   O32   A    
Cr9   O17   S    
Cr2   O2    S    
C32   C36   A    
C16   H16   S    
O69   C109  S    
C110  H78   S    
C46   O30   A    
C78   O42   A    
O64   C104  S    
C108  H70   S    
C23   C67   S    
C56   H4    S    
C45   O33   A    
C46   C82   S    
C79   O15   A    
C61   C77   S    
C80   O16   A    
Cr6   O50   S    
C44   C52   A    
C34   H18   S    
C104  H58   S    
C116  H95   S    
C1    C12   S    
C2    C11   S    
C24   C92   A    
C38   H22   S    
C4    O24   A    
C81   O62   S    
C30   C34   A    
Cr3   O19   S    
C10   C14   A    
C29   C74   S    
C101  H51   S    
C100  H46   S    
C6    C90   A    
C7    O67   S    
C95   H32   S    
C5    C9    A    
O61   C101  S    
C105  H62   S    
C99   H45   S    
C8    C12   A    
C101  H50   S    
C70   O46   A    
C42   C50   A    
C107  H69   S    
C68   O40   A    
C102  H53   S    
C72   O52   A    
Cr8   O52   S    
O66   C106  S    
C85   O53   S    
C18   C22   A    
C62   C78   S    
C110  H76   S    
C109  H73   S    
C113  H86   S    
C13   C17   A    
C108  H72   S    
C35   H19   S    
C75   O11   A    
C15   H15   S    
C37   C41   A    
C96   H34   S    
C93   H26   S    
C53   H1    S    
C40   C44   A    
O72   C112  S    
C113  H87   S    
C111  H80   S    
O62   C102  S    
C104  H60   S    
C98   H41   S    
C28   O76   S    
Cr10  O14   S    
C27   O75   S    
C4    C9    S    
Cr8   O8    S    
C58   C62   A    
C87   C88   S    
Cr12  O20   S    
Cr1   O21   S    
C35   C36   A    
C109  H75   S    
O67   C107  S    
C21   C89   A    
O53   C93   S    
C100  H48   S    
C15   C19   A    
C74   O10   A    
Cr1   O41   S    
C50   C54   A    
C97   H38   S    
C78   O14   A    
C75   O7    A    
C91   H11   S    
C65   O37   A    
C116  H94   S    
C79   O43   A    
C68   O4    A    
C94   H30   S    
C52   C69   S    
C69   O49   A    
Cr6   O30   S    
C97   H39   S    
Cr7   O27   S    
C1    O21   A    
Cr5   O25   S    
C47   O35   A    
Cr8   O28   S    
Cr3   O3    S    
C64   C80   S    
Cr1   O1    S    
C106  H65   S    
Cr4   O20   S    
C54   H2    S    
C98   H40   S    
C53   C57   A    
C56   C60   A    
C96   H36   S    
C50   C71   S    
Cr7   O51   S    
Cr5   O49   S    
O59   C99   S    
Cr10  O34   S    
C7    C91   A    
C3    O27   A    
C105  H61   S    
C22   C90   A    
C114  H90   S    
Cr7   O7    S    
Cr9   O37   S    
C4    O28   A    
C99   H44   S    
C86   O54   S    
C31   C35   A    
Cr3   O23   S    
C41   O57   S    
C87   O55   S    
C25   C30   A    
Cr4   O48   S    
C21   C65   S    
C27   C32   A    
Cr11  O35   S    
C28   C31   A    
C6    C10   A    
C65   O1    A    
C26   O74   S    
C94   H28   S    
C110  H77   S    
C43   C51   A    
C2    O26   A    
C103  H55   S    
C71   O47   A    
C42   O58   S    
C72   O48   A    
C17   O69   S    
C24   C68   S    
C83   O64   S    
Cr3   O43   S    
Cr4   O24   S    
O57   C97   S    
C14   C18   A    
C84   C87   D    
C76   O8    A    
C82   O61   S    
C63   C79   S    
C7    C11   A    
C115  H91   S    
O65   C105  S    
O74   C114  S    
Cr10  O10   S    
C71   O51   A    
C84   O63   S    
C22   C66   S    
Cr9   O13   S    
C114  H88   S    
C14   H14   S    
C49   C72   S    
Cr12  O16   S    
Cr1   O17   S    
C51   C70   S    
Cr4   O4    S    
C33   H17   S    
C37   H21   S    
C76   O12   A    
C39   H23   S    
C66   O38   A    
C20   C24   A    
O60   C100  S    
C30   C73   S    
C70   O50   A    
C39   C43   A    
Cr6   O18   S    
O73   C113  S    
C103  H57   S    
C48   C84   S    
C55   H3    S    
C108  H71   S    
Cr5   O29   S    
C1    O25   A    
C60   H8    S    
Cr11  O11   S    
Cr12  O40   S    
Cr8   O32   S    
O68   C108  S    
C33   C34   A    
Cr2   O46   S    
C77   O41   A    
C73   O5    A    
C104  H59   S    
Cr4   O44   S    
C116  H96   S    
C23   C91   A    
C112  H84   S    
O63   C103  S    
C54   C58   A    
C115  H93   S    
C67   O3    A    
C37   C61   A    
C106  H64   S    
C100  H47   S    
C39   C63   A    
Cr6   O6    S    
C3    O23   A    
C40   C64   A    
C95   H31   S    
Cr9   O33   S    
C3    C10   S    
Cr10  O18   S    
Cr8   O20   S    
C101  H49   S    
C94   H29   S    
O70   C110  S    
C38   C42   A    
C102  H54   S    
C26   C29   A    
Cr10  O38   S    
C46   O34   A    
C27   C28   A    
C5    O65   S    
C112  H82   S    
C52   C56   A    
C66   O2    A    
