data_mof_unit_68075.cif
_audit_creation_date              2012-12-11T15:08:39-0500
_audit_creation_method            fapswitch 2.2
_symmetry_space_group_name_H-M    P1
_symmetry_Int_Tables_number       1
_space_group_crystal_system       triclinic
_cell_length_a                    26.707312
_cell_length_b                    7.175735
_cell_length_c                    11.899838
_cell_angle_alpha                 90.136411
_cell_angle_beta                  103.288249
_cell_angle_gamma                 89.783878
_cell_volume                      2219.4620512

loop_
_atom_site_label
_atom_site_type_symbol
_atom_type_description
_atom_site_fract_x
_atom_site_fract_y
_atom_site_fract_z
_atom_type_partial_charge
O1    O     O_R   0.437360 0.505910 0.042120 -0.515256
O2    O     O_R   0.562640 0.005910 0.957880 -0.524340
O3    O     O_R   0.542480 0.176660 0.157100 -0.540414
O4    O     O_R   0.457520 0.676660 0.842900 -0.536756
C1    C     C_R   0.555971 0.344461 0.198727 0.717283
C2    C     C_R   0.443626 0.844584 0.801215 0.737480
O5    O     O_R   0.436520 0.176250 0.054800 -0.541699
O6    O     O_R   0.563480 0.676250 0.945200 -0.526493
O7    O     O_R   0.455920 0.005040 0.854840 -0.529484
O8    O     O_R   0.544080 0.505040 0.145160 -0.522788
C3    C     C_R   0.418236 0.345640 0.067205 0.733650
C4    C     C_R   0.582121 0.845100 0.934390 0.776560
O9    O     O_3   0.506490 0.338900 0.934520 -0.369963
O10   O     O_3   0.493510 0.838900 0.065480 -0.363799
V1    V     V_3+5 0.498800 0.064400 0.012150 1.599164
V2    V     V_3+5 0.501200 0.564400 0.987850 1.631279
C5    C     C_R   0.678049 0.866930 0.739518 -0.103292
C6    C     C_R   0.322535 0.361188 0.263301 -0.061849
C7    C     C_R   0.630139 0.856348 0.892037 -0.029053
C8    C     C_R   0.370162 0.355901 0.109875 -0.043518
C9    C     C_R   0.863126 0.840839 0.208492 -0.048276
C10   C     C_R   0.139455 0.346024 0.795038 -0.043027
C11   C     C_R   0.815289 0.804488 0.236869 -0.060294
C12   C     C_R   0.186850 0.300452 0.766437 -0.069926
C13   C     C_R   0.771259 0.770218 0.147107 -0.060707
C14   C     C_R   0.229857 0.254572 0.855936 -0.054320
C15   C     C_R   0.770977 0.827255 0.032157 0.135459
C16   C     C_R   0.229712 0.302641 0.971997 0.125838
C17   C     C_R   0.818923 0.861768 0.004098 0.097869
C18   C     C_R   0.181650 0.332236 0.000591 0.054489
C19   C     C_R   0.724408 0.847500 0.944026 0.137158
C20   C     C_R   0.276201 0.324123 0.059749 0.149450
C21   C     C_R   0.726053 0.860129 0.825027 0.066533
C22   C     C_R   0.274712 0.334910 0.178900 0.020706
C23   C     C_R   0.775837 0.871662 0.798962 -0.036661
C24   C     C_R   0.225071 0.328924 0.206336 -0.029795
C25   C     C_R   0.820040 0.886999 0.888021 -0.199438
C26   C     C_R   0.180208 0.336908 0.117449 -0.117706
C27   C     C_R   0.676320 0.861508 0.973572 -0.140970
C28   C     C_R   0.323806 0.348235 0.029012 -0.120705
C29   C     C_R   0.630329 0.871198 0.774078 0.032869
C30   C     C_R   0.369985 0.373784 0.227699 -0.021272
C31   C     C_R   0.865381 0.860156 0.091400 -0.111904
C32   C     C_R   0.135852 0.352253 0.912113 -0.110937
H1    H     H_    0.673569 0.881906 0.061689 0.089531
H2    H     H_    0.325959 0.367854 0.940431 0.092377
H3    H     H_    0.856567 0.905857 0.864473 0.101680
H4    H     H_    0.143388 0.344247 0.140882 0.148605
C33   C     C_R   0.093596 0.858263 0.313569 -0.068312
C34   C     C_R   0.902172 0.355686 0.692221 -0.097041
C35   C     C_R   0.411123 0.853559 0.682361 -0.073659
C36   C     C_R   0.586155 0.351847 0.319003 -0.028457
C37   C     C_R   0.110184 0.819285 0.521295 0.075632
C38   C     C_R   0.882509 0.340899 0.481835 0.101405
C39   C     C_R   0.077480 0.794967 0.411055 -0.021468
C40   C     C_R   0.918053 0.358848 0.588694 -0.034004
C41   C     C_R   0.144762 0.914897 0.327980 -0.147512
C42   C     C_R   0.850727 0.317270 0.688904 -0.214627
C43   C     C_R   0.182645 0.862831 0.427062 0.154380
C44   C     C_R   0.811722 0.321268 0.585986 0.125893
C45   C     C_R   0.164663 0.830729 0.530342 0.057138
C46   C     C_R   0.828593 0.321154 0.478886 0.049350
C47   C     C_R   0.237181 0.855264 0.429238 -0.028016
C48   C     C_R   0.756794 0.321491 0.584085 0.010730
C49   C     C_R   0.271856 0.823806 0.537515 0.033381
C50   C     C_R   0.722645 0.296769 0.474541 0.023872
C51   C     C_R   0.252391 0.755470 0.630745 -0.017307
C52   C     C_R   0.742164 0.228758 0.381726 -0.040769
C53   C     C_R   0.201277 0.792347 0.634851 -0.124466
C54   C     C_R   0.791863 0.278748 0.375073 -0.122907
C55   C     C_R   0.258931 0.860139 0.328907 0.068570
C56   C     C_R   0.733336 0.349619 0.681631 0.128737
C57   C     C_R   0.313548 0.868999 0.341241 0.072586
C58   C     C_R   0.678243 0.351146 0.665622 0.099917
C59   C     C_R   0.347575 0.872332 0.453689 -0.004782
C60   C     C_R   0.645419 0.349213 0.551864 0.025767
C61   C     C_R   0.325673 0.853951 0.551370 0.107387
C62   C     C_R   0.669263 0.336425 0.457110 0.111258
C63   C     C_R   0.402967 0.881294 0.475330 0.021652
C64   C     C_R   0.589764 0.353987 0.524564 0.003817
C65   C     C_R   0.432962 0.850290 0.587357 -0.137176
C66   C     C_R   0.562011 0.336578 0.409772 -0.154717
C67   C     C_R   0.358153 0.870796 0.663711 -0.106091
C68   C     C_R   0.639205 0.365228 0.343456 -0.092297
H5    H     H_    0.342535 0.889187 0.739030 0.110522
H6    H     H_    0.657000 0.386413 0.271456 0.106717
H7    H     H_    0.474195 0.839455 0.601550 0.193058
H8    H     H_    0.520615 0.323385 0.390641 0.123564
H9    H     H_    0.154152 0.997574 0.260779 0.136632
H10   H     H_    0.844072 0.259113 0.766136 0.137240
O11   O     O_R   0.955980 0.206520 0.854760 -0.524857
O12   O     O_R   0.044020 0.706520 0.145240 -0.501722
O13   O     O_R   0.063490 0.536770 0.945200 -0.531838
O14   O     O_R   0.936510 0.036770 0.054800 -0.536331
C69   C     C_R   0.084033 0.367645 0.941349 0.659937
C70   C     C_R   0.916451 0.868998 0.060080 0.652796
O15   O     O_R   0.957530 0.536190 0.842880 -0.546396
O16   O     O_R   0.042470 0.036190 0.157120 -0.542295
O17   O     O_R   0.937350 0.707210 0.042130 -0.524307
O18   O     O_R   0.062650 0.207210 0.957870 -0.528100
C71   C     C_R   0.940216 0.367699 0.805622 0.723142
C72   C     C_R   0.057886 0.867974 0.197274 0.731044
O19   O     O_3   0.993540 0.373870 0.065440 -0.350878
O20   O     O_3   0.006460 0.873870 0.934560 -0.368068
V3    V     V_3+5 0.001200 0.648440 0.987860 1.578633
V4    V     V_3+5 0.998800 0.148440 0.012140 1.574973
C73   C     C_2   0.581640 0.920075 0.689106 0.337686
H11   H     H_    0.576745 0.894532 0.597620 0.149101
O21   O     O_2   0.546542 0.998227 0.720204 -0.569318
C74   C     C_2   0.418323 0.428706 0.311512 0.317111
H12   H     H_    0.425970 0.386185 0.401013 0.100647
O22   O     O_2   0.449730 0.529177 0.281955 -0.506633
I1    I     I_    0.342023 0.850370 0.184602 -0.320078
I2    I     I_    0.647303 0.346419 0.819115 -0.285384
I3    I     I_    0.071587 0.845065 0.661620 -0.360185
I4    I     I_    0.918157 0.314951 0.335429 -0.342337
C75   C     C_2   0.027825 0.698296 0.399936 0.395619
H13   H     H_    0.005728 0.715204 0.464388 0.126154
O23   O     O_2   0.012356 0.588303 0.321628 -0.496408
C76   C     C_2   0.972833 0.335775 0.593631 0.424082
H14   H     H_    0.992805 0.434697 0.551454 0.104321
O24   O     O_2   0.994936 0.197247 0.639613 -0.494616
C77   C     C_2   0.283208 0.620027 0.714277 0.331765
H15   H     H_    0.282985 0.622405 0.804971 0.135522
O25   O     O_2   0.310013 0.503417 0.681116 -0.521975
C78   C     C_2   0.711409 0.094563 0.297393 0.333569
H16   H     H_    0.713668 0.090859 0.208161 0.116658
O26   O     O_2   0.682282 0.985407 0.328346 -0.517740
I5    I     I_    0.213579 0.806607 0.155064 -0.369886
I6    I     I_    0.775383 0.401118 0.858241 -0.353901
C79   C     C_2   0.432226 0.947235 0.391640 0.454254
H17   H     H_    0.416543 0.054710 0.330553 0.043874
O27   O     O_2   0.475523 0.889199 0.394009 -0.507541
C80   C     C_2   0.556118 0.387741 0.604716 0.452714
H18   H     H_    0.525544 0.290501 0.607844 0.084542
O28   O     O_2   0.557484 0.535373 0.655897 -0.522176
C81   C     C_2   0.786609 0.855314 0.682883 0.390518
H19   H     H_    0.813914 0.948123 0.657508 0.040211
O29   O     O_2   0.769281 0.726695 0.619097 -0.477613
C82   C     C_2   0.216805 0.315479 0.325258 0.352388
H20   H     H_    0.242058 0.232028 0.389960 0.114211
O30   O     O_2   0.180606 0.394855 0.351660 -0.512335
C83   C     C_2   0.676430 0.884568 0.614733 0.468027
H21   H     H_    0.697865 0.992650 0.584387 0.045756
O31   O     O_2   0.652342 0.773894 0.544983 -0.487082
C84   C     C_2   0.323516 0.397489 0.386596 0.319628
H22   H     H_    0.299541 0.505760 0.409907 0.100167
O32   O     O_2   0.349620 0.302153 0.462988 -0.527645
C85   C     C_2   0.911864 0.847729 0.299428 0.414052
H23   H     H_    0.946169 0.907734 0.280506 0.059064
O33   O     O_2   0.914857 0.784866 0.395908 -0.542901
C86   C     C_2   0.092487 0.380027 0.703655 0.430663
H24   H     H_    0.060836 0.455633 0.724879 0.050676
O34   O     O_2   0.087685 0.321124 0.605403 -0.512587
C87   C     C_2   0.729352 0.650112 0.170613 0.326010
H25   H     H_    0.713371 0.672355 0.245173 0.146835
O35   O     O_2   0.711684 0.524102 0.104280 -0.502150
C88   C     C_2   0.271407 0.133720 0.830670 0.320927
H26   H     H_    0.287904 0.159410 0.757329 0.141270
O36   O     O_2   0.288526 0.004545 0.894867 -0.513497
C89   C     C_2   0.811497 0.810969 0.359968 0.432847
H27   H     H_    0.833260 0.913993 0.417810 0.104450
O37   O     O_2   0.785121 0.702096 0.399151 -0.519956
C90   C     C_2   0.191681 0.314390 0.644056 0.446733
H28   H     H_    0.171398 0.423618 0.589048 0.133363
O38   O     O_2   0.217601 0.206101 0.602321 -0.551187
C91   C     C_2   0.189165 0.812792 0.749808 0.418253
H29   H     H_    0.171161 0.939322 0.769872 0.115334
O39   O     O_2   0.199888 0.694036 0.824414 -0.532359
C92   C     C_2   0.801549 0.312805 0.259217 0.443128
H30   H     H_    0.818831 0.442294 0.243050 0.114133
O40   O     O_2   0.791505 0.199188 0.181194 -0.533440

loop_
_geom_bond_atom_site_label_1
_geom_bond_atom_site_label_2
_ccdc_geom_bond_type
C50   C52   A    
C47   C49   A    
C78   H16   S    
C35   C67   A    
C15   C17   A    
C57   C59   A    
O1    C3    A    
O2    C4    A    
C2    O7    A    
O20   V4    S    
C89   H27   S    
C41   H9    S    
C57   I1    S    
C77   H15   S    
C91   O39   D    
C79   O27   D    
O5    C3    A    
C81   O29   D    
C18   C26   A    
C58   C60   A    
C90   H28   S    
C23   C25   A    
C60   C62   A    
C85   O33   D    
C8    C28   A    
C77   O25   D    
C87   O35   D    
C92   H30   S    
C61   C67   A    
C42   C44   A    
C83   H21   S    
C58   I2    S    
C70   O17   A    
C64   C80   S    
C46   C54   A    
C44   C46   A    
C36   C68   A    
C74   H12   S    
O20   V3    S    
C6    C30   A    
O13   V3    S    
C9    C31   A    
C37   C45   A    
C10   C32   A    
C49   C51   A    
C38   I4    S    
C73   H11   S    
C19   C21   A    
C1    C36   S    
C9    C85   S    
C2    C35   S    
C25   H3    S    
C35   C65   A    
C26   H4    S    
O12   C72   A    
C27   H1    S    
O15   V3    S    
O5    V1    S    
O13   C69   A    
C17   C31   A    
C88   O36   D    
C40   C76   S    
O11   V4    S    
C18   C32   A    
C12   C90   S    
C5    C21   A    
O11   C71   A    
O17   V3    S    
C13   C87   S    
C89   O37   D    
C76   O24   D    
C37   I3    S    
C84   O32   D    
C37   C39   A    
C50   C62   A    
C10   C86   S    
C3    C8    S    
C43   C45   A    
C5    C29   A    
C49   C61   A    
C15   C19   A    
C34   C42   A    
C16   C20   A    
C82   H20   S    
C56   C58   A    
C91   H29   S    
C63   C65   A    
C75   O23   D    
C69   O18   A    
C80   O28   D    
C38   C46   A    
O3    C1    A    
C33   C39   A    
C34   C40   A    
C51   C53   A    
C20   C22   A    
O4    V2    S    
O14   C70   A    
C53   C91   S    
C55   I5    S    
C59   C61   A    
O6    C4    A    
C63   C79   S    
C31   C70   S    
O19   V3    S    
O1    V2    S    
C36   C66   A    
O2    V1    S    
C42   H10   S    
C65   H7    S    
C7    C27   A    
C64   C66   A    
C67   H5    S    
C86   O34   D    
C9    C11   A    
C88   H26   S    
C10   C12   A    
C43   C47   A    
O4    C2    A    
C28   H2    S    
C79   H17   S    
C52   C78   S    
C33   C72   S    
C20   C28   A    
O3    V1    S    
C76   H14   S    
C55   C57   A    
C84   H22   S    
C39   C75   S    
C45   C53   A    
C83   O31   D    
O14   V4    S    
C78   O26   D    
C29   C73   S    
O18   V4    S    
C60   C64   A    
C12   C14   A    
C6    C84   S    
C51   C77   S    
C33   C41   A    
C8    C30   A    
C38   C40   A    
C56   I6    S    
C80   H18   S    
C82   O30   D    
C13   C15   A    
C81   H19   S    
C14   C16   A    
O16   V4    S    
C44   C48   A    
C5    C83   S    
C90   O38   D    
O7    V1    S    
C1    O8    A    
C32   C69   S    
O16   C72   A    
C75   H13   S    
C23   C81   S    
C24   C26   A    
C73   O21   D    
C92   O40   D    
C6    C22   A    
C66   H8    S    
C4    C7    S    
C16   C18   A    
C21   C23   A    
C19   C27   A    
C14   C88   S    
O19   V4    S    
C22   C24   A    
C48   C56   A    
C30   C74   S    
C74   O22   D    
C41   C43   A    
C62   C68   A    
O12   V3    S    
C11   C13   A    
C86   H24   S    
C34   C71   S    
O6    V2    S    
C54   C92   S    
O9    V2    S    
C17   C25   A    
C87   H25   S    
C52   C54   A    
O10   V1    S    
C68   H6    S    
O8    V2    S    
C24   C82   S    
C85   H23   S    
C59   C63   A    
C47   C55   A    
O15   C71   A    
C7    C29   A    
C48   C50   A    
C11   C89   S    
