data_mof_unit_42623.cif
_audit_creation_date              2013-03-05T15:44:59-0500
_audit_creation_method            fapswitch 2.2
_symmetry_space_group_name_H-M    P1
_symmetry_Int_Tables_number       1
_space_group_crystal_system       triclinic
_cell_length_a                    17.420176
_cell_length_b                    24.53738
_cell_length_c                    14.981045
_cell_angle_alpha                 89.813098
_cell_angle_beta                  125.803201
_cell_angle_gamma                 90.615898
_cell_volume                      5193.16651336

loop_
_atom_site_label
_atom_site_type_symbol
_atom_site_description
_atom_site_fract_x
_atom_site_fract_y
_atom_site_fract_z
_atom_type_partial_charge
C1    C     C_R   0.310447 0.376733 0.907670 -0.133226
C2    C     C_R   0.657303 0.352044 0.090663 -0.127415
C3    C     C_R   0.811173 0.875692 0.905907 -0.122729
C4    C     C_R   0.149919 0.849400 0.090097 -0.166457
H1    H     H_    0.251899 0.374220 0.821907 0.104780
H2    H     H_    0.703106 0.338210 0.174862 0.096794
H3    H     H_    0.753053 0.871840 0.819951 0.104144
H4    H     H_    0.189619 0.835040 0.174119 0.105561
N1    N     N_R   0.395440 0.396300 0.944370 -0.051914
N2    N     N_R   0.604560 0.396300 0.055630 -0.044358
N3    N     N_R   0.895440 0.896300 0.944370 -0.043861
N4    N     N_R   0.104560 0.896300 0.055630 -0.045750
C5    C     C_R   0.402980 0.623033 0.091931 -0.090758
C6    C     C_R   0.556196 0.650108 0.908135 -0.156443
C7    C     C_R   0.912440 0.135945 0.089308 -0.053980
C8    C     C_R   0.057171 0.150501 0.908837 -0.099981
H5    H     H_    0.430635 0.628160 0.177416 0.100754
H6    H     H_    0.509211 0.663485 0.823618 0.100539
H7    H     H_    0.946895 0.152268 0.171264 0.109454
H8    H     H_    0.009042 0.163465 0.824333 0.104084
N5    N     N_R   0.449890 0.602500 0.055780 -0.045354
N6    N     N_R   0.550110 0.602500 0.944220 -0.044863
N7    N     N_R   0.949890 0.102500 0.055780 -0.045823
N8    N     N_R   0.050110 0.102500 0.944220 -0.051710
C9    C     C_R   0.547897 0.454200 0.303100 -0.071379
C10   C     C_R   0.517097 0.454130 0.748602 -0.074389
C11   C     C_R   0.000141 0.953832 0.269679 -0.091505
C12   C     C_R   0.950872 0.953748 0.697355 -0.129295
H9    H     H_    0.565577 0.412572 0.330973 0.088191
H10   H     H_    0.524490 0.412158 0.734636 0.116532
H11   H     H_    0.005102 0.912567 0.296558 0.091054
H12   H     H_    0.933569 0.911742 0.671035 0.102033
N9    N     N_R   0.525090 0.470990 0.205640 -0.042874
N10   N     N_R   0.474910 0.470990 0.794360 -0.051001
N11   N     N_R   0.025090 0.970990 0.205640 -0.046517
N12   N     N_R   0.974910 0.970990 0.794360 -0.043257
C13   C     C_R   0.247245 0.544317 0.695271 -0.091096
C14   C     C_R   0.768678 0.545814 0.256836 -0.119253
C15   C     C_R   0.747013 0.044308 0.695364 -0.150335
C16   C     C_R   0.268560 0.045636 0.254458 -0.137769
H13   H     H_    0.237968 0.585689 0.665615 0.092777
H14   H     H_    0.790951 0.588065 0.270295 0.110924
H15   H     H_    0.737790 0.085636 0.665536 0.104282
H16   H     H_    0.290999 0.087841 0.267289 0.109185
N13   N     N_R   0.320240 0.527820 0.794510 -0.043966
N14   N     N_R   0.679760 0.527820 0.205490 -0.049346
N15   N     N_R   0.820240 0.027820 0.794510 -0.045880
N16   N     N_R   0.179760 0.027820 0.205490 -0.046689
C17   C     C_R   0.547849 0.544937 0.302517 -0.123310
C18   C     C_R   0.519014 0.545539 0.750798 -0.123264
C19   C     C_R   0.995984 0.044902 0.265288 -0.135233
C20   C     C_R   0.951656 0.044791 0.697422 -0.124471
H17   H     H_    0.566087 0.586753 0.329973 0.098139
H18   H     H_    0.529447 0.587891 0.740856 0.094000
H19   H     H_    0.994473 0.086623 0.285496 0.091910
H20   H     H_    0.935596 0.086671 0.670754 0.088930
N17   N     N_R   0.524580 0.527810 0.205160 -0.041028
N18   N     N_R   0.475420 0.527810 0.794840 -0.046962
N19   N     N_R   0.024580 0.027810 0.205160 -0.043658
N20   N     N_R   0.975420 0.027810 0.794840 -0.043139
C21   C     C_R   0.247942 0.453659 0.695756 -0.116291
C22   C     C_R   0.768329 0.454205 0.256336 -0.096778
C23   C     C_R   0.747708 0.953653 0.695842 -0.125167
C24   C     C_R   0.267858 0.954017 0.253148 -0.114348
H21   H     H_    0.240408 0.412294 0.666842 0.090335
H22   H     H_    0.790671 0.412350 0.271865 0.094345
H23   H     H_    0.740231 0.912327 0.666790 0.097005
H24   H     H_    0.289310 0.911963 0.265764 0.092170
N21   N     N_R   0.320750 0.470990 0.794990 -0.043508
N22   N     N_R   0.679250 0.470990 0.205010 -0.051814
N23   N     N_R   0.820750 0.970990 0.794990 -0.045219
N24   N     N_R   0.179250 0.970990 0.205010 -0.048951
C25   C     C_R   0.311480 0.625896 0.907342 -0.070528
C26   C     C_R   0.650255 0.651048 0.091163 -0.093916
C27   C     C_R   0.817373 0.131691 0.903984 -0.058593
C28   C     C_R   0.150021 0.151150 0.091658 -0.109888
H25   H     H_    0.255191 0.634630 0.822461 0.123693
H26   H     H_    0.692952 0.665188 0.175524 0.135080
H27   H     H_    0.764030 0.141088 0.818387 0.111654
H28   H     H_    0.191962 0.164274 0.176469 0.146107
N25   N     N_R   0.393580 0.602500 0.942610 -0.055789
N26   N     N_R   0.606420 0.602500 0.057390 -0.051423
N27   N     N_R   0.893580 0.102500 0.942610 -0.045817
N28   N     N_R   0.106420 0.102500 0.057390 -0.053607
C29   C     C_R   0.402633 0.373888 0.091534 -0.098685
C30   C     C_R   0.563620 0.351848 0.906357 -0.068438
C31   C     C_R   0.904278 0.869282 0.089136 -0.074801
C32   C     C_R   0.061300 0.850203 0.906544 -0.078359
H29   H     H_    0.431079 0.365858 0.176352 0.150360
H30   H     H_    0.523316 0.337884 0.821909 0.103589
H31   H     H_    0.933141 0.854169 0.170419 0.117776
H32   H     H_    0.021999 0.837999 0.821152 0.144733
N29   N     N_R   0.451750 0.396300 0.057540 -0.058285
N30   N     N_R   0.548250 0.396300 0.942460 -0.046491
N31   N     N_R   0.951750 0.896300 0.057540 -0.052919
N32   N     N_R   0.048250 0.896300 0.942460 -0.052841
C33   C     C_R   0.311877 0.362237 0.998148 0.147670
C34   C     C_R   0.633995 0.325458 0.997895 0.131981
C35   C     C_R   0.814293 0.858739 0.995226 0.149941
C36   C     C_R   0.124342 0.819908 0.998420 0.147431
C37   C     C_R   0.316126 0.638926 0.000665 0.156309
C38   C     C_R   0.618766 0.681329 0.998012 0.155984
C39   C     C_R   0.828528 0.152525 0.995462 0.088233
C40   C     C_R   0.118723 0.182720 0.999539 0.140150
C41   C     C_R   0.563348 0.499719 0.366193 0.056826
C42   C     C_R   0.547650 0.500068 0.722547 0.059479
C43   C     C_R   0.973658 0.999116 0.300071 0.056811
C44   C     C_R   0.933470 0.999127 0.633622 0.051901
C45   C     C_R   0.202037 0.498739 0.631403 0.136337
C46   C     C_R   0.825172 0.500483 0.287077 0.134489
C47   C     C_R   0.701603 0.998725 0.631515 0.137889
C48   C     C_R   0.324804 0.000244 0.282979 0.130680
Ni1   Ni    Ni4+2 0.435420 0.434250 0.870220 0.223327
Ni2   Ni    Ni4+2 0.564580 0.434250 0.129780 0.220243
Ni3   Ni    Ni4+2 0.935420 0.934250 0.870220 0.229339
Ni4   Ni    Ni4+2 0.064580 0.934250 0.129780 0.218467
Ni5   Ni    Ni4+2 0.563400 0.564580 0.128670 0.249722
Ni6   Ni    Ni4+2 0.436600 0.564580 0.871330 0.227389
Ni7   Ni    Ni4+2 0.063400 0.064580 0.128670 0.247368
Ni8   Ni    Ni4+2 0.936600 0.064580 0.871330 0.230963
C49   C     C_2   0.978434 0.458639 0.364589 -0.079765
C50   C     C_2   0.077824 0.455069 0.459429 -0.073379
C51   C     C_2   0.478464 0.958029 0.362932 -0.092813
C52   C     C_2   0.577605 0.954985 0.459083 -0.081158
C53   C     C_2   0.927313 0.502637 0.350167 -0.174311
C54   C     C_2   0.128900 0.499749 0.513525 -0.179288
C55   C     C_2   0.426986 0.002523 0.344209 -0.187851
C56   C     C_2   0.628261 0.999753 0.513566 -0.193014
H33   H     H_    0.943636 0.421148 0.320022 0.136026
H34   H     H_    0.101628 0.414977 0.495644 0.122424
H35   H     H_    0.443839 0.919915 0.321480 0.124743
H36   H     H_    0.601563 0.914977 0.495681 0.122945
H37   H     H_    0.959681 0.540297 0.394992 0.142155
H38   H     H_    0.108516 0.539564 0.475111 0.136724
H39   H     H_    0.459138 0.040963 0.385291 0.134530
H40   H     H_    0.608172 0.039590 0.475373 0.133944
C57   C     C_R   0.158978 0.680076 0.926511 0.246293
C58   C     C_R   0.677743 0.775926 0.068389 0.247810
C59   C     C_R   0.777884 0.245638 0.943408 0.268145
C60   C     C_R   0.187507 0.275618 0.085268 0.252761
C61   C     C_R   0.729842 0.289118 0.945617 0.363133
C62   C     C_R   0.235150 0.321858 0.083429 0.356219
C63   C     C_R   0.110915 0.725925 0.925470 0.356543
C64   C     C_R   0.726564 0.821073 0.066146 0.355098
C65   C     C_R   0.683056 0.281854 0.995594 -0.066297
C66   C     C_R   0.237609 0.330172 0.991937 -0.038073
C67   C     C_R   0.163522 0.767999 0.002547 -0.052295
C68   C     C_R   0.745397 0.822462 0.986819 -0.050860
C69   C     C_R   0.684875 0.233641 0.045543 -0.214526
C70   C     C_R   0.176420 0.300167 0.895497 -0.200004
C71   C     C_R   0.259647 0.762553 0.085290 -0.204572
C72   C     C_R   0.706065 0.784021 0.902440 -0.198160
H41   H     H_    0.648741 0.229568 0.084536 0.145918
H42   H     H_    0.171901 0.306582 0.821244 0.136735
H43   H     H_    0.300875 0.794650 0.144944 0.146154
H44   H     H_    0.719540 0.784310 0.840437 0.155549
C73   C     C_R   0.306100 0.717793 0.087766 -0.165156
C74   C     C_R   0.658013 0.740602 0.903578 -0.185644
C75   C     C_R   0.733499 0.190644 0.044672 -0.181907
C76   C     C_R   0.129737 0.255396 0.896695 -0.161526
H45   H     H_    0.382101 0.717307 0.148811 0.160647
H46   H     H_    0.636187 0.709198 0.842128 0.144100
H47   H     H_    0.736039 0.152595 0.083340 0.149198
H48   H     H_    0.092657 0.230272 0.823463 0.131983
C77   C     C_R   0.257689 0.677635 0.006524 -0.094730
C78   C     C_R   0.648852 0.734448 0.989546 -0.083437
C79   C     C_R   0.778323 0.196882 0.993121 -0.101179
C80   C     C_R   0.142439 0.239480 0.994116 -0.037617
C81   C     C_R   0.599934 0.549771 0.622421 -0.137797
C82   C     C_R   0.602314 0.549663 0.531733 -0.130142
C83   C     C_R   0.895274 0.047666 0.468487 -0.158665
C84   C     C_R   0.909741 0.047695 0.387256 -0.161232
H49   H     H_    0.596967 0.588679 0.653792 0.114094
H50   H     H_    0.601019 0.588538 0.496871 0.119303
H51   H     H_    0.889528 0.086482 0.497915 0.112107
H52   H     H_    0.912515 0.086510 0.354921 0.111716
C85   C     C_R   0.594824 0.500151 0.480521 0.111783
C86   C     C_R   0.589228 0.500398 0.661495 0.119713
C87   C     C_R   0.930732 0.998603 0.358681 0.127599
C88   C     C_R   0.901892 0.998530 0.520168 0.113638
C89   C     C_R   0.603932 0.450981 0.533685 -0.125941
C90   C     C_R   0.601757 0.451135 0.624558 -0.082331
C91   C     C_R   0.916178 0.949024 0.393360 -0.063507
C92   C     C_R   0.900100 0.948984 0.472938 -0.136654
H53   H     H_    0.603976 0.412025 0.500318 0.129805
H54   H     H_    0.600557 0.412293 0.657919 0.157644
H55   H     H_    0.925180 0.910152 0.367227 0.154065
H56   H     H_    0.898165 0.910054 0.505448 0.131788
N33   N     N_R   0.108698 0.636555 0.848281 0.252991
O1    O     O_R   0.127436 0.586020 0.880042 -0.364063
O2    O     O_R   0.047401 0.647127 0.744226 -0.338933
N34   N     N_R   0.656700 0.772460 0.147803 0.249360
O3    O     O_R   0.721693 0.783195 0.251121 -0.346633
O4    O     O_R   0.572875 0.757078 0.117445 -0.406623
N35   N     N_R   0.828551 0.251457 0.895046 0.255361
O5    O     O_R   0.784810 0.267475 0.793587 -0.358899
O6    O     O_R   0.918653 0.241399 0.952528 -0.348734
N36   N     N_R   0.183996 0.266187 0.177444 0.248270
O7    O     O_R   0.260984 0.268053 0.277429 -0.362590
O8    O     O_R   0.103599 0.255391 0.161658 -0.342836
Cl1   Cl    Cl    0.736730 0.353477 0.896156 -0.598699
Cl2   Cl    Cl    0.284054 0.370830 0.190221 -0.574790
Cl3   Cl    Cl    0.986010 0.728249 0.835426 -0.600413
Cl4   Cl    Cl    0.758056 0.876873 0.155766 -0.639122

loop_
_geom_bond_atom_site_label_1
_geom_bond_atom_site_label_2
_geom_bond_distance
_ccdc_geom_bond_type
N13   Ni6   1.866792 S    
C28   C40   1.386947 A    
C63   Cl3   1.767866 S    
C83   C84   1.379583 A    
C32   N32   1.331601 A    
C39   C79   1.391077 S    
N35   O6    1.300623 A    
N1    N29   1.375068 A    
C33   C66   1.462633 S    
C6    H6    1.082301 S    
C3    N3    1.318659 A    
C4    H4    1.081983 S    
C24   N24   1.336253 A    
C21   C45   1.379318 A    
C10   C42   1.390490 A    
C57   C77   1.409758 A    
C9    C41   1.384247 A    
C51   C52   1.467852 S    
C16   C48   1.383341 A    
C89   C90   1.383896 A    
N22   Ni2   1.845818 S    
N10   Ni1   1.863380 S    
C7    H7    1.078870 S    
C84   H52   1.080502 S    
C35   C68   1.431617 S    
N21   Ni1   1.863120 S    
N9    Ni2   1.874091 S    
C18   H18   1.077842 S    
C27   H27   1.081452 S    
N7    N27   1.375068 A    
C13   H13   1.081979 S    
C1    H1    1.077399 S    
N6    N26   1.375068 A    
C15   N15   1.336943 A    
C60   C62   1.408258 A    
C14   H14   1.080366 S    
C3    H3    1.079610 S    
C62   C66   1.410245 A    
C24   H24   1.079154 S    
N7    Ni7   1.864067 S    
C17   H17   1.079708 S    
C6    C38   1.363653 A    
N2    N30   1.375069 A    
C36   C67   1.435554 S    
C21   N21   1.336413 A    
C60   C80   1.416320 A    
C1    C33   1.386328 A    
N18   Ni6   1.873755 S    
C17   N17   1.332964 A    
C52   H36   1.084480 S    
N11   N19   1.394306 A    
C90   H54   1.080399 S    
C73   H45   1.083045 S    
N33   O2    1.301264 A    
C60   N36   1.435475 S    
C48   C55   1.449441 S    
C69   H41   1.084402 S    
C30   N30   1.316609 A    
C64   Cl4   1.764164 S    
C20   H20   1.080126 S    
C29   N29   1.338555 A    
C8    C40   1.380298 A    
C81   H49   1.080464 S    
C32   H32   1.080875 S    
C31   N31   1.338499 A    
N19   Ni7   1.863126 S    
C28   H28   1.078571 S    
N32   Ni3   1.856235 S    
N36   O7    1.301205 A    
C71   H43   1.084526 S    
C14   C46   1.381871 A    
C20   N20   1.329572 A    
N9    N17   1.394306 A    
C87   C91   1.399085 A    
N2    Ni2   1.874040 S    
C64   C68   1.405968 A    
C52   C56   1.339361 D    
C51   H35   1.085142 S    
C7    N7    1.322490 A    
C25   C37   1.390457 A    
C57   C63   1.404200 A    
C38   C78   1.432366 S    
C66   C70   1.397807 A    
C27   C39   1.366768 A    
C22   N22   1.335855 A    
C28   N28   1.339324 A    
C2    H2    1.080942 S    
C26   N26   1.338100 A    
C19   C43   1.381620 A    
C30   C34   1.359083 A    
C54   H38   1.084627 S    
C25   N25   1.336316 A    
N30   Ni1   1.856235 S    
C59   N35   1.438459 S    
N16   Ni7   1.884139 S    
C31   C35   1.384496 A    
C19   N19   1.329440 A    
C9    H9    1.079851 S    
C23   H23   1.080904 S    
N8    Ni8   1.846320 S    
C18   C42   1.391010 A    
N14   N22   1.394407 A    
C31   H31   1.076029 S    
C22   H22   1.077715 S    
C82   C85   1.402540 A    
N13   N21   1.394551 A    
C18   N18   1.333633 A    
C81   C82   1.383287 A    
C72   H44   1.083046 S    
C12   H12   1.079644 S    
C1    N1    1.326259 A    
C30   H30   1.081334 S    
C73   C77   1.397339 A    
C89   H53   1.080351 S    
C15   H15   1.081856 S    
C11   N11   1.329601 A    
C11   H11   1.073934 S    
N25   Ni6   1.877623 S    
C92   H56   1.079956 S    
N14   Ni5   1.884139 S    
N34   O4    1.301480 A    
N27   Ni8   1.877623 S    
C50   C54   1.338473 D    
C67   C71   1.390528 A    
C91   C92   1.374915 A    
C49   C53   1.341368 D    
C21   H21   1.080992 S    
C40   C80   1.463952 S    
C51   C55   1.341459 D    
C22   C46   1.388430 A    
C11   C43   1.383778 A    
N31   Ni4   1.838496 S    
C8    H8    1.080757 S    
N23   Ni3   1.863120 S    
N11   Ni4   1.874091 S    
C86   C90   1.402252 A    
C37   C77   1.439441 S    
C69   C75   1.364910 A    
N15   N23   1.394551 A    
C49   C50   1.465727 S    
C32   C36   1.376753 A    
C71   C73   1.358735 A    
C70   C76   1.366099 A    
C72   C74   1.354055 A    
C57   N33   1.438090 S    
C84   C87   1.401429 A    
C41   C85   1.461325 S    
N15   Ni8   1.866792 S    
N5    N25   1.375068 A    
C10   H10   1.075559 S    
C4    C36   1.375531 A    
C26   H26   1.080882 S    
C75   H47   1.084692 S    
C83   C88   1.399583 A    
C4    N4    1.324234 A    
N16   N24   1.394407 A    
C13   N13   1.336539 A    
C62   Cl2   1.767816 S    
C76   H48   1.080566 S    
C81   C86   1.401220 A    
C61   Cl1   1.774736 S    
C44   C88   1.448357 S    
N3    Ni3   1.862966 S    
C74   C78   1.394847 A    
C59   C79   1.404859 A    
N17   Ni5   1.863126 S    
C82   H50   1.080104 S    
C53   H37   1.082900 S    
C16   N16   1.334927 A    
N6    Ni6   1.846320 S    
C29   H29   1.078299 S    
C10   N10   1.333781 A    
C13   C45   1.375805 A    
C58   N34   1.437338 S    
C68   C72   1.391981 A    
C49   H33   1.085348 S    
N12   N20   1.394162 A    
C17   C41   1.382795 A    
C34   C65   1.389524 S    
C61   C65   1.402335 A    
C50   H34   1.084497 S    
N24   Ni4   1.845818 S    
C43   C87   1.448530 S    
C5    H5    1.079762 S    
C26   C38   1.380850 A    
C58   C78   1.409099 A    
N1    Ni1   1.862966 S    
N34   O3    1.301100 A    
C6    N6    1.314669 A    
C56   H40   1.083875 S    
N8    N28   1.375068 A    
C63   C67   1.410079 A    
C58   C64   1.401618 A    
C5    N5    1.320363 A    
C59   C61   1.375343 A    
C27   N27   1.314991 A    
C83   H51   1.080692 S    
C2    C34   1.364486 A    
C12   C44   1.380224 A    
N28   Ni7   1.866150 S    
C85   C89   1.401860 A    
C15   C47   1.376352 A    
C75   C79   1.389894 A    
N20   Ni8   1.873755 S    
C19   H19   1.073452 S    
N29   Ni2   1.838496 S    
C76   C80   1.397085 A    
C23   C47   1.379662 A    
N33   O1    1.301414 A    
C55   H39   1.082261 S    
C14   N14   1.333948 A    
N5    Ni5   1.864068 S    
C29   C33   1.394111 A    
C74   H46   1.083809 S    
C46   C53   1.446627 S    
N35   O5    1.301088 A    
C3    C35   1.370500 A    
C45   C54   1.452710 S    
C16   H16   1.080231 S    
N3    N31   1.375068 A    
C12   N12   1.324547 A    
C8    N8    1.323808 A    
C70   H42   1.079363 S    
C47   C56   1.454059 S    
N10   N18   1.394162 A    
C25   H25   1.080880 S    
N4    N32   1.375069 A    
C20   C44   1.383635 A    
N36   O8    1.300950 A    
N26   Ni5   1.866151 S    
C7    C39   1.372369 A    
N12   Ni3   1.863380 S    
C5    C37   1.378239 A    
C23   N23   1.336950 A    
C42   C86   1.461542 S    
C65   C69   1.388428 A    
C91   H55   1.079405 S    
C88   C92   1.399480 A    
C9    N9    1.334249 A    
C24   C48   1.389551 A    
N4    Ni4   1.874040 S    
C2    N2    1.323787 A    
