data_mof_unit_56687.cif
_audit_creation_date              2013-03-05T15:40:03-0500
_audit_creation_method            fapswitch 2.2
_symmetry_space_group_name_H-M    P1
_symmetry_Int_Tables_number       1
_space_group_crystal_system       triclinic
_cell_length_a                    7.550068
_cell_length_b                    8.68349
_cell_length_c                    10.990768
_cell_angle_alpha                 87.976024
_cell_angle_beta                  71.327179
_cell_angle_gamma                 103.000866
_cell_volume                      660.625262267

loop_
_atom_site_label
_atom_site_type_symbol
_atom_site_description
_atom_site_fract_x
_atom_site_fract_y
_atom_site_fract_z
_atom_type_partial_charge
O1    O     O_R   0.622710 0.286400 0.490790 -0.570809
O2    O     O_R   0.377290 0.713600 0.509210 -0.570819
O3    O     O_R   0.303660 0.256330 0.514730 -0.551919
O4    O     O_R   0.696340 0.743670 0.485270 -0.551909
C1    C     C_R   0.451525 0.199688 0.505695 0.859194
C2    C     C_R   0.548475 0.800312 0.494304 0.859193
O5    O     O_R   0.600900 0.509520 0.671740 -0.589468
O6    O     O_R   0.399100 0.490480 0.328260 -0.589459
O7    O     O_R   0.281840 0.479450 0.695690 -0.513884
O8    O     O_R   0.718160 0.520550 0.304310 -0.513891
C3    C     C_R   0.420149 0.487725 0.743339 0.744852
C4    C     C_R   0.579851 0.512275 0.256661 0.744853
Cu1   Cu    Cu3+1 0.688910 0.517800 0.485820 1.152453
Cu2   Cu    Cu3+1 0.311090 0.482200 0.514180 1.152451
H1    H     H_    0.361569 0.393478 0.128384 0.206365
H2    H     H_    0.638441 0.606514 0.871612 0.206371
C5    C     C_2   0.369755 0.463013 0.883562 0.197662
C6    C     C_2   0.630246 0.536990 0.116439 0.197674
C7    C     C_2   0.507338 0.523519 0.933686 -0.146359
C8    C     C_2   0.492668 0.476479 0.066313 -0.146351
C9    C     C_2   0.423812 0.030942 0.514409 -0.269096
C10   C     C_2   0.576189 0.969058 0.485589 -0.269087
H3    H     H_    0.276771 0.957346 0.547049 0.220510
H4    H     H_    0.723230 0.042653 0.452949 0.220512
N1    N     N_2   0.027170 0.455360 0.535550 0.019716
N2    N     N_2   0.972830 0.544640 0.464450 0.019718
N3    N     N_R   0.816600 0.636309 0.039330 0.152322
O9    O     O_R   0.899862 0.755445 0.086820 -0.270958
O10   O     O_R   0.915585 0.594464 0.930944 -0.276002
N4    N     N_R   0.183395 0.363708 0.960674 0.152323
O11   O     O_R   0.100114 0.244577 0.913187 -0.270948
O12   O     O_R   0.084425 0.405559 0.069062 -0.276003
N5    N     N_R   0.884475 0.343744 0.629847 0.262447
O13   O     O_R   0.859490 0.194944 0.610104 -0.344933
O14   O     O_R   0.839278 0.375462 0.749017 -0.282114
N6    N     N_R   0.115523 0.656269 0.370162 0.262448
O15   O     O_R   0.140463 0.805068 0.389906 -0.344929
O16   O     O_R   0.160763 0.624551 0.250991 -0.282125

loop_
_geom_bond_atom_site_label_1
_geom_bond_atom_site_label_2
_geom_bond_distance
_ccdc_geom_bond_type
O5    C3    1.305010 A    
O7    Cu2   1.934234 S    
N3    O10   1.300887 A    
C7    C8    1.462236 S    
O6    C4    1.305010 A    
N6    O16   1.299771 A    
N5    O13   1.299437 A    
C9    C10   1.330222 D    
N4    O12   1.300889 A    
C5    N4    1.442399 S    
O7    C3    1.299593 A    
O2    C2    1.296950 A    
O3    Cu2   1.949226 S    
O8    C4    1.299591 A    
H2    C7    1.084664 S    
O1    C1    1.296950 A    
N2    N6    1.385087 S    
N6    O15   1.299441 A    
N5    O14   1.299759 A    
C6    C8    1.341592 D    
C9    H3    1.085887 S    
Cu2   N1    2.038021 S    
N4    O11   1.301349 A    
O2    Cu2   1.952746 S    
C10   H4    1.085888 S    
Cu1   N2    2.038021 S    
O1    Cu1   1.952746 S    
C2    C10   1.428066 S    
O3    C1    1.295235 A    
O5    Cu1   1.928961 S    
C1    C9    1.428066 S    
O4    C2    1.295235 A    
C4    C6    1.459588 S    
O4    Cu1   1.949225 S    
C3    C5    1.459591 S    
O6    Cu2   1.928960 S    
C5    C7    1.341594 D    
N1    N2    1.298312 D    
Cu1   Cu2   2.712369 S    
C6    N3    1.442398 S    
N1    N5    1.385084 S    
H1    C8    1.084666 S    
N3    O9    1.301341 A    
O8    Cu1   1.934234 S    
