data_mof_unit_33010.cif
_audit_creation_date              2012-12-10T17:33:09-0500
_audit_creation_method            fapswitch 2.2
_symmetry_space_group_name_H-M    P1
_symmetry_Int_Tables_number       1
_space_group_crystal_system       triclinic
_cell_length_a                    12.063925
_cell_length_b                    12.90839
_cell_length_c                    13.597725
_cell_angle_alpha                 91.919336
_cell_angle_beta                  80.349138
_cell_angle_gamma                 92.961519
_cell_volume                      2084.09814737

loop_
_atom_site_label
_atom_site_type_symbol
_atom_type_description
_atom_site_fract_x
_atom_site_fract_y
_atom_site_fract_z
_atom_type_partial_charge
C1    C     C_R   0.521559 0.700203 0.493825 0.905848
C2    C     C_R   0.147696 0.455724 0.458849 0.321225
C3    C     C_R   0.971082 0.532189 0.538165 -0.153400
C4    C     C_R   0.028200 0.463134 0.465092 -0.186988
C5    C     C_R   0.480861 0.501314 0.686645 0.901363
C6    C     C_R   0.519196 0.498484 0.313371 0.849939
C7    C     C_1   0.532523 0.492225 0.209147 -0.213006
C8    C     C_1   0.466745 0.500181 0.790914 -0.184174
C9    C     C_2   0.545523 0.481215 0.017025 -0.159556
C10   C     C_2   0.451116 0.496382 0.983187 -0.165027
C11   C     C_1   0.455945 0.498616 0.879139 0.002443
C12   C     C_R   0.478275 0.300432 0.502245 0.915933
C13   C     C_1   0.542176 0.486224 0.120992 -0.007320
C14   C     C_R   0.465469 0.190102 0.505109 -0.218976
C15   C     C_R   0.532160 0.811268 0.479566 -0.268498
C16   C     C_R   0.630962 0.964990 0.406504 -0.203872
C17   C     C_R   0.375711 0.037294 0.583322 -0.243516
C18   C     C_R   0.626364 0.857239 0.417270 0.139216
C19   C     C_R   0.379745 0.143691 0.574672 0.121995
C20   C     C_R   0.441499 0.871457 0.523221 0.426213
C21   C     C_R   0.546811 0.131280 0.444338 0.424531
C22   C     C_3   0.589075 0.210048 0.291988 0.085914
C23   C     C_R   0.454961 0.977975 0.522676 -0.034989
C24   C     C_3   0.598693 0.124523 0.210712 -0.384075
C25   C     C_3   0.564520 0.162316 0.115408 -0.938552
C26   C     C_3   0.270994 0.817598 0.481004 0.130679
C27   C     C_3   0.183824 0.901280 0.490350 -0.403501
C28   C     C_3   0.094995 0.874609 0.424546 -0.979129
C29   C     C_3   0.185450 0.185313 0.631721 -0.751770
C30   C     C_3   0.811220 0.839433 0.304858 -0.831526
C31   C     C_3   0.250204 0.378517 0.302140 -0.635340
C32   C     C_3   0.816066 0.725565 0.566888 -0.705444
C33   C     C_3   0.982587 0.348621 0.234926 0.057322
C34   C     C_R   0.545677 0.025123 0.458375 -0.042993
C35   C     C_3   0.926021 0.248106 0.200602 -0.335541
C36   C     C_3   0.886976 0.260902 0.100783 -0.978348
C37   C     C_3   0.029286 0.724819 0.724515 0.049337
C38   C     C_3   0.077346 0.706418 0.819508 -0.326288
C39   C     C_3   0.145500 0.801872 0.849066 -0.958613
C40   C     C_R   0.963542 0.403929 0.401771 0.422160
C41   C     C_R   0.033252 0.586688 0.606058 0.422411
C42   C     C_R   0.845859 0.410546 0.417170 -0.149815
C43   C     C_R   0.151387 0.578934 0.592091 -0.200886
C44   C     C_R   0.852407 0.542641 0.541375 0.319261
H1    H     H_    0.372320 0.510064 0.032722 0.150919
H2    H     H_    0.543047 0.056432 0.237537 0.218065
H3    H     H_    0.475854 0.185874 0.130311 0.263193
H4    H     H_    0.572147 0.098819 0.057891 0.265085
H5    H     H_    0.620146 0.229457 0.086034 0.268626
H6    H     H_    0.225689 0.740865 0.486498 0.174801
H7    H     H_    0.322273 0.818421 0.404449 0.112962
H8    H     H_    0.141611 0.909727 0.569099 0.222215
H9    H     H_    0.226287 0.976807 0.466605 0.231574
H10   H     H_    0.135000 0.869629 0.344879 0.268374
H11   H     H_    0.032708 0.936049 0.433770 0.272482
H12   H     H_    0.624583 0.468467 0.967565 0.159332
H13   H     H_    0.050146 0.799341 0.445929 0.261263
H14   H     H_    0.316122 0.204701 0.713096 0.221212
H15   H     H_    0.135518 0.248903 0.670684 0.241307
H16   H     H_    0.152902 0.110735 0.666536 0.214451
H17   H     H_    0.174531 0.182384 0.552246 0.240263
H18   H     H_    0.674758 0.730646 0.322736 0.234341
H19   H     H_    0.869178 0.777236 0.275918 0.242728
H20   H     H_    0.853748 0.891503 0.355132 0.254351
H21   H     H_    0.793356 0.882917 0.240575 0.237010
H22   H     H_    0.166895 0.298275 0.426390 0.232614
H23   H     H_    0.699790 0.002308 0.357010 0.201418
H24   H     H_    0.338673 0.355506 0.289371 0.214642
H25   H     H_    0.244399 0.458072 0.275057 0.220998
H26   H     H_    0.207753 0.321407 0.256737 0.225909
H27   H     H_    0.782147 0.611877 0.677268 0.257976
H28   H     H_    0.747287 0.775366 0.602051 0.235060
H29   H     H_    0.822409 0.727202 0.484776 0.265305
H30   H     H_    0.896347 0.758150 0.586241 0.221456
H31   H     H_    0.060235 0.366094 0.180544 0.150585
H32   H     H_    0.928092 0.415277 0.231515 0.124356
H33   H     H_    0.986653 0.185186 0.192897 0.225238
H34   H     H_    0.310769 0.001057 0.637934 0.193900
H35   H     H_    0.852348 0.224756 0.257242 0.243276
H36   H     H_    0.822467 0.320320 0.108110 0.264889
H37   H     H_    0.849316 0.186037 0.076572 0.269490
H38   H     H_    0.959336 0.284614 0.042875 0.267365
H39   H     H_    0.964356 0.783538 0.743092 0.159086
H40   H     H_    0.094214 0.760003 0.665670 0.143344
H41   H     H_    0.006974 0.688273 0.881334 0.222331
H42   H     H_    0.132156 0.639107 0.808527 0.222464
H43   H     H_    0.218154 0.819594 0.789237 0.284390
H44   H     H_    0.177962 0.786857 0.918734 0.263599
H45   H     H_    0.201213 0.617624 0.642433 0.180787
H46   H     H_    0.091827 0.869997 0.862271 0.259128
H47   H     H_    0.795106 0.361694 0.374278 0.178857
H48   H     H_    0.640920 0.279277 0.262326 0.174097
H49   H     H_    0.500471 0.234529 0.309401 0.102735
H50   H     H_    0.686841 0.099717 0.193924 0.227894
N1    N     N_R   0.206090 0.519450 0.517820 -0.140251
N2    N     N_R   0.793910 0.480550 0.482180 -0.141680
N3    N     N_2   0.302748 0.204717 0.640154 -0.275546
N4    N     N_2   0.707923 0.793262 0.359096 -0.284628
N5    N     N_2   0.203935 0.370095 0.407304 -0.239126
N6    N     N_2   0.792441 0.620488 0.601209 -0.242869
O1    O     O_R   0.421240 0.658850 0.504760 -0.590798
O2    O     O_3   0.335853 0.827016 0.559680 -0.649831
O3    O     O_3   0.013634 0.334535 0.329852 -0.654238
O4    O     O_3   0.975522 0.632228 0.692978 -0.657011
O5    O     O_R   0.578760 0.341150 0.495240 -0.587363
O6    O     O_R   0.609960 0.646370 0.493320 -0.592001
O7    O     O_R   0.390040 0.353630 0.506680 -0.582770
O8    O     O_R   0.392060 0.507120 0.646890 -0.608578
O9    O     O_R   0.607940 0.492880 0.353110 -0.626337
O10   O     O_R   0.580780 0.494630 0.635450 -0.605441
O11   O     O_R   0.419220 0.505370 0.364550 -0.607478
O12   O     O_3   0.632135 0.178035 0.376359 -0.656408
Zn1   Zn    Zn3+2 0.373990 0.508340 0.507630 0.959147
Zn2   Zn    Zn3+2 0.626010 0.491660 0.492370 0.960816

loop_
_geom_bond_atom_site_label_1
_geom_bond_atom_site_label_2
_ccdc_geom_bond_type
C22   H49   S    
O8    Zn1   S    
C15   C18   A    
C30   H20   S    
O1    Zn1   S    
C6    O11   A    
C35   C36   S    
C39   H43   S    
C19   N3    S    
C32   H28   S    
C28   H13   S    
C26   C27   S    
C43   H45   S    
C38   H42   S    
C42   N2    A    
C14   C21   A    
C2    N1    A    
C26   H6    S    
C32   H30   S    
C12   O5    A    
C20   O2    S    
C5    O10   A    
C42   H47   S    
C9    C13   S    
O7    Zn1   S    
C16   C34   A    
H18   N4    S    
C33   H31   S    
C31   H26   S    
C29   H15   S    
C36   H38   S    
C43   N1    A    
C20   C23   A    
C37   H40   S    
C1    C15   S    
C31   N5    S    
C9    C10   D    
O10   Zn2   S    
C39   H46   S    
C1    O6    A    
C40   C42   A    
C30   H19   S    
C41   C43   A    
N2    Zn2   S    
C15   C20   A    
H14   N3    S    
C39   H44   S    
C28   H11   S    
C31   H24   S    
C29   H17   S    
C3    C44   A    
C38   H41   S    
C4    C40   A    
O5    Zn2   S    
C24   C25   S    
C36   H36   S    
C32   H29   S    
C16   H23   S    
C28   H10   S    
C17   C19   A    
C21   C34   A    
C35   H33   S    
C32   N6    S    
H22   N5    S    
C2    C4    A    
C37   C38   S    
C44   N2    A    
C24   H50   S    
C12   O7    A    
C33   H32   S    
C29   H16   S    
C7    C13   T    
C36   H37   S    
C23   C34   A    
C10   H1    S    
O11   Zn1   S    
C9    H12   S    
C17   C23   A    
C25   H4    S    
O9    Zn2   S    
O6    Zn2   S    
C2    N5    S    
C22   O12   S    
C6    O9    A    
C22   C24   S    
C5    C8    S    
C3    C4    A    
C1    O1    A    
C21   O12   S    
C27   H8    S    
C25   H3    S    
C3    C41   A    
C33   O3    S    
C14   C19   A    
C12   C14   S    
C37   O4    S    
C27   H9    S    
C6    C7    S    
H27   N6    S    
C30   N4    S    
C41   O4    S    
C29   N3    S    
C24   H2    S    
C26   H7    S    
C26   O2    S    
C40   O3    S    
C44   N6    S    
C38   C39   S    
N1    Zn1   S    
C8    C11   T    
C35   H35   S    
C17   H34   S    
C33   C35   S    
C25   H5    S    
C30   H21   S    
C10   C11   S    
C31   H25   S    
C16   C18   A    
C27   C28   S    
C22   H48   S    
C37   H39   S    
C18   N4    S    
C5    O8    A    
