data_mof_unit_26291.cif
_audit_creation_date              2012-12-10T17:37:21-0500
_audit_creation_method            fapswitch 2.2
_symmetry_space_group_name_H-M    P1
_symmetry_Int_Tables_number       1
_space_group_crystal_system       triclinic
_cell_length_a                    11.959557
_cell_length_b                    12.885672
_cell_length_c                    16.601564
_cell_angle_alpha                 90.71622
_cell_angle_beta                  83.081595
_cell_angle_gamma                 93.15647
_cell_volume                      2535.88986765

loop_
_atom_site_label
_atom_site_type_symbol
_atom_type_description
_atom_site_fract_x
_atom_site_fract_y
_atom_site_fract_z
_atom_type_partial_charge
C1    C     C_R   0.522051 0.700447 0.498328 0.915736
C2    C     C_R   0.559536 0.132285 0.509506 -0.284206
C3    C     C_R   0.448297 0.974197 0.492377 0.182620
C4    C     C_R   0.552216 0.025633 0.504841 0.186441
C5    C     C_R   0.957131 0.385661 0.440241 -0.353391
C6    C     C_R   0.043258 0.615237 0.558665 -0.337530
C7    C     C_R   0.841001 0.398532 0.444331 0.024374
C8    C     C_R   0.159007 0.601347 0.555841 0.003127
C9    C     C_R   0.858165 0.552898 0.522305 -0.067636
C10   C     C_R   0.142209 0.448082 0.476494 -0.061115
C11   C     C_R   0.975207 0.542886 0.520291 0.092585
C12   C     C_R   0.477969 0.299510 0.501313 0.875889
C13   C     C_R   0.025094 0.457854 0.478836 0.096243
C14   C     C_R   0.487114 0.506240 0.654254 0.925122
C15   C     C_R   0.514473 0.504735 0.345964 0.927724
C16   C     C_R   0.486214 0.538117 0.739166 -0.224761
C17   C     C_R   0.524968 0.537661 0.261689 -0.211323
C18   C     C_R   0.582931 0.588628 0.765886 0.479314
C19   C     C_R   0.454613 0.613380 0.237924 0.461121
C20   C     C_R   0.575179 0.634859 0.842158 -0.319202
C21   C     C_R   0.476873 0.655444 0.160406 -0.332098
C22   C     C_R   0.476173 0.622149 0.896279 0.026575
C23   C     C_R   0.464979 0.188202 0.501022 -0.048908
C24   C     C_R   0.562427 0.617888 0.104660 0.025326
C25   C     C_R   0.380007 0.569876 0.870567 0.514235
C26   C     C_R   0.632683 0.542703 0.128487 0.511777
C27   C     C_R   0.384889 0.530992 0.791217 -0.377803
C28   C     C_R   0.614787 0.504434 0.207360 -0.372796
C29   C     C_2   0.476311 0.649970 0.982500 -0.197120
C30   C     C_2   0.570457 0.646030 0.018917 -0.202533
C31   C     C_3   0.760673 0.529216 0.736103 0.084313
C32   C     C_3   0.865229 0.588165 0.761891 -0.351810
C33   C     C_3   0.962060 0.516551 0.765358 -0.968729
C34   C     C_R   0.535215 0.811660 0.497449 -0.049771
C35   C     C_3   0.265483 0.623489 0.274543 0.094193
C36   C     C_3   0.177434 0.680944 0.329719 -0.320983
C37   C     C_3   0.057814 0.646797 0.313746 -0.940550
C38   C     C_3   0.253355 0.456619 0.945321 0.063876
C39   C     C_3   0.139782 0.420294 0.918046 -0.330752
C40   C     C_3   0.104251 0.309893 0.946397 -0.976402
C41   C     C_3   0.687120 0.418113 0.036165 0.054802
C42   C     C_3   0.776921 0.395236 0.965803 -0.321070
C43   C     C_3   0.742754 0.299482 0.917657 -0.995862
C44   C     C_R   0.647325 0.969774 0.512281 -0.222323
C45   C     C_R   0.353153 0.030103 0.485116 -0.220021
C46   C     C_R   0.638815 0.862374 0.508633 -0.193219
C47   C     C_R   0.361451 0.137513 0.489545 -0.206860
C48   C     C_R   0.440902 0.867498 0.488047 -0.261991
H1    H     H_    0.211568 0.657275 0.585327 0.141773
H2    H     H_    0.648221 0.679519 0.858728 0.164854
H3    H     H_    0.639468 0.171558 0.519211 0.157754
H4    H     H_    0.361023 0.828118 0.478297 0.162317
H5    H     H_    0.287977 0.180687 0.482751 0.155430
H6    H     H_    0.712145 0.819239 0.515945 0.160825
H7    H     H_    0.727350 0.008930 0.521614 0.137986
H8    H     H_    0.273141 0.990961 0.475722 0.136264
H9    H     H_    0.182556 0.384355 0.443740 0.118192
H10   H     H_    0.818076 0.617273 0.554336 0.154791
H11   H     H_    0.785899 0.481888 0.681245 0.180079
H12   H     H_    0.788386 0.342371 0.415107 0.133079
H13   H     H_    0.725908 0.472918 0.784692 0.117576
H14   H     H_    0.893248 0.651513 0.718136 0.232936
H15   H     H_    0.843722 0.623878 0.822642 0.208796
H16   H     H_    0.936876 0.452984 0.809411 0.263897
H17   H     H_    0.036007 0.561873 0.784682 0.273933
H18   H     H_    0.987129 0.482113 0.704648 0.276133
H19   H     H_    0.250642 0.538295 0.284863 0.141825
H20   H     H_    0.254668 0.640972 0.210441 0.123142
H21   H     H_    0.187242 0.665626 0.393975 0.240344
H22   H     H_    0.191268 0.765979 0.319325 0.217438
H23   H     H_    0.993232 0.319807 0.407549 0.143503
H24   H     H_    0.044455 0.667118 0.250916 0.267415
H25   H     H_    0.996017 0.686895 0.356971 0.268046
H26   H     H_    0.042743 0.561606 0.322004 0.270474
H27   H     H_    0.246146 0.453470 0.012625 0.155138
H28   H     H_    0.318656 0.401227 0.921982 0.119276
H29   H     H_    0.074047 0.473605 0.943063 0.237966
H30   H     H_    0.146046 0.422215 0.850826 0.219652
H31   H     H_    0.168988 0.255249 0.922267 0.268409
H32   H     H_    0.023250 0.285015 0.923784 0.269354
H33   H     H_    0.092629 0.306652 0.013734 0.265417
H34   H     H_    0.007607 0.681992 0.590231 0.146769
H35   H     H_    0.605579 0.426802 0.011123 0.134874
H36   H     H_    0.677590 0.351754 0.079234 0.145274
H37   H     H_    0.789616 0.463408 0.924804 0.224320
H38   H     H_    0.857905 0.382710 0.989785 0.235914
H39   H     H_    0.730769 0.230055 0.957384 0.273462
H40   H     H_    0.810063 0.285306 0.867202 0.264562
H41   H     H_    0.663228 0.311649 0.891554 0.261687
H42   H     H_    0.671086 0.448666 0.226022 0.183205
H43   H     H_    0.309515 0.495022 0.770410 0.186134
H44   H     H_    0.651591 0.637459 0.983450 0.188050
H45   H     H_    0.394993 0.650422 0.019412 0.190465
H46   H     H_    0.426463 0.717227 0.143653 0.169173
N1    N     N_R   0.206400 0.519440 0.514690 -0.099958
N2    N     N_R   0.793600 0.480560 0.485310 -0.100895
O1    O     O_R   0.421320 0.658850 0.503920 -0.624639
O2    O     O_3   0.374044 0.656337 0.293462 -0.622718
O3    O     O_3   0.279789 0.561414 0.922025 -0.654546
O4    O     O_3   0.722148 0.509745 0.075694 -0.648563
O5    O     O_R   0.578680 0.341150 0.496080 -0.637526
O6    O     O_R   0.609840 0.646370 0.494500 -0.623400
O7    O     O_R   0.390160 0.353630 0.505500 -0.630865
O8    O     O_R   0.394600 0.506990 0.621070 -0.620580
O9    O     O_R   0.605400 0.493010 0.378930 -0.616885
O10   O     O_R   0.583120 0.494520 0.611640 -0.582830
O11   O     O_R   0.416880 0.505480 0.388360 -0.588831
O12   O     O_3   0.683348 0.601142 0.715302 -0.636428
Zn1   Zn    Zn3+2 0.374120 0.508330 0.506290 0.950854
Zn2   Zn    Zn3+2 0.625880 0.491670 0.493710 0.955280

loop_
_geom_bond_atom_site_label_1
_geom_bond_atom_site_label_2
_ccdc_geom_bond_type
O9    Zn2   S    
C6    H34   S    
C22   C29   S    
C41   C42   S    
C31   H13   S    
C35   C36   S    
C37   H26   S    
C33   H17   S    
C38   H28   S    
C7    N2    A    
C12   C23   S    
C43   H41   S    
C43   H40   S    
C39   H29   S    
C36   C37   S    
C19   C21   A    
C24   C26   A    
C38   C39   S    
C21   H46   S    
C31   H11   S    
C41   H35   S    
C3    C48   A    
C9    H10   S    
C31   O12   S    
C15   O11   A    
C20   H2    S    
C25   O3    S    
C45   H8    S    
C36   H22   S    
C22   C25   A    
C1    C34   S    
C40   H32   S    
C27   H43   S    
C42   H38   S    
C35   O2    S    
C5    C13   A    
C47   H5    S    
C16   C27   A    
O11   Zn1   S    
C8    N1    A    
C19   O2    S    
C44   C46   A    
C33   H18   S    
C18   O12   S    
C38   H27   S    
C45   C47   A    
C40   H31   S    
C23   C47   A    
C39   H30   S    
C10   H9    S    
C12   O7    A    
C30   H44   S    
N1    Zn1   S    
C1    O1    A    
C6    C11   A    
C5    C7    A    
C6    C8    A    
C4    C44   A    
O5    Zn2   S    
C41   H36   S    
N2    Zn2   S    
C3    C45   A    
C2    C4    A    
C29   C30   D    
O1    Zn1   S    
C14   O8    A    
C31   C32   S    
C35   H19   S    
C46   H6    S    
C41   O4    S    
C42   H37   S    
C9    C11   A    
C9    N2    A    
C34   C46   A    
C20   C22   A    
C14   C16   S    
O6    Zn2   S    
C34   C48   A    
C42   C43   S    
C21   C24   A    
C3    C4    A    
C7    H12   S    
C39   C40   S    
C36   H21   S    
C14   O10   A    
O10   Zn2   S    
C15   C17   S    
C37   H25   S    
C17   C28   A    
C40   H33   S    
C32   H15   S    
C10   N1    A    
C38   O3    S    
C10   C13   A    
C25   C27   A    
C26   C28   A    
O7    Zn1   S    
C43   H39   S    
C32   C33   S    
C15   O9    A    
C32   H14   S    
C12   O5    A    
C5    H23   S    
C29   H45   S    
C11   C13   A    
C44   H7    S    
O8    Zn1   S    
C35   H20   S    
C33   H16   S    
C1    O6    A    
C17   C19   A    
C18   C20   A    
C24   C30   S    
C2    H3    S    
C48   H4    S    
C16   C18   A    
C37   H24   S    
C2    C23   A    
C28   H42   S    
C8    H1    S    
C26   O4    S    
