data_mof_unit_57109.cif
_audit_creation_date              2012-12-10T17:52:19-0500
_audit_creation_method            fapswitch 2.2
_symmetry_space_group_name_H-M    P1
_symmetry_Int_Tables_number       1
_space_group_crystal_system       triclinic
_cell_length_a                    19.03237
_cell_length_b                    10.619745
_cell_length_c                    9.913954
_cell_angle_alpha                 89.929472
_cell_angle_beta                  89.841584
_cell_angle_gamma                 91.670284
_cell_volume                      2002.93686736

loop_
_atom_site_label
_atom_site_type_symbol
_atom_type_description
_atom_site_fract_x
_atom_site_fract_y
_atom_site_fract_z
_atom_type_partial_charge
C1    C     C_R   0.501594 0.260698 0.500066 0.850010
C2    C     C_R   0.289247 0.474775 0.500921 -0.033618
C3    C     C_R   0.927382 0.395773 0.503938 0.284144
C4    C     C_R   0.069218 0.393578 0.503672 0.287593
C5    C     C_R   0.816699 0.441830 0.624422 -0.147560
C6    C     C_R   0.746362 0.472309 0.622842 -0.177210
C7    C     C_R   0.710116 0.477683 0.500175 -0.046013
C8    C     C_R   0.745146 0.452740 0.379009 -0.191093
C9    C     C_R   0.815515 0.422206 0.380561 -0.165131
C10   C     C_R   0.851850 0.416767 0.503267 0.086639
C11   C     C_R   0.620938 0.137291 0.617495 -0.230107
C12   C     C_R   0.365235 0.496518 0.500240 0.844149
C13   C     C_R   0.677539 0.075625 0.675259 0.211459
C14   C     C_R   0.677591 0.942717 0.675128 0.203569
C15   C     C_R   0.620988 0.875164 0.617526 -0.252734
C16   C     C_R   0.563592 0.937463 0.560431 0.042204
C17   C     C_R   0.563484 0.069103 0.560695 0.044037
C18   C     C_R   0.506324 0.128629 0.499736 -0.056238
C19   C     C_R   0.452253 0.061875 0.435274 -0.214639
C20   C     C_R   0.452353 0.933257 0.435070 -0.197811
C21   C     C_R   0.506511 0.872053 0.499341 -0.070724
C22   C     C_R   0.407706 0.335029 0.140665 -0.162675
C23   C     C_R   0.501843 0.739461 0.499863 0.872975
C24   C     C_R   0.362081 0.254113 0.070793 -0.201148
C25   C     C_R   0.362043 0.254197 0.931185 -0.191469
C26   C     C_R   0.407668 0.335134 0.860626 -0.159070
C27   C     C_R   0.454512 0.418749 0.928021 0.167230
C28   C     C_R   0.454526 0.418755 0.072614 0.172623
C29   C     C_R   0.543648 0.577508 0.071141 -0.115970
C30   C     C_R   0.543648 0.577460 0.928026 -0.118077
C31   C     C_R   0.634703 0.497721 0.499870 0.828803
C32   C     C_R   0.253221 0.460332 0.623787 -0.202058
C33   C     C_R   0.181913 0.429430 0.624730 -0.163699
C34   C     C_R   0.145562 0.412980 0.502810 0.087482
C35   C     C_R   0.181804 0.426327 0.379935 -0.163028
C36   C     C_R   0.253129 0.457278 0.378998 -0.207365
H1    H     H_    0.280101 0.471852 0.719334 0.161852
H2    H     H_    0.623503 0.239053 0.614726 0.174711
H3    H     H_    0.622821 0.773472 0.617710 0.165122
H4    H     H_    0.409397 0.881058 0.387246 0.150623
H5    H     H_    0.579301 0.640877 0.124581 0.148582
H6    H     H_    0.404616 0.329082 0.247604 0.198265
H7    H     H_    0.326566 0.190899 0.125523 0.149419
H8    H     H_    0.326479 0.191072 0.877007 0.153321
H9    H     H_    0.404593 0.329336 0.753690 0.203087
H10   H     H_    0.155239 0.420129 0.721004 0.150528
H11   H     H_    0.579299 0.640803 0.873946 0.151868
H12   H     H_    0.155022 0.414709 0.284336 0.150694
H13   H     H_    0.279951 0.466389 0.282828 0.161689
H14   H     H_    0.843565 0.439382 0.720475 0.144679
H15   H     H_    0.720339 0.490650 0.717810 0.161561
H16   H     H_    0.718064 0.454994 0.283125 0.159055
H17   H     H_    0.841449 0.403943 0.285516 0.148622
H18   H     H_    0.409238 0.109619 0.387535 0.136384
N1    N     N_R   0.033122 0.387799 0.386075 -0.180027
N2    N     N_R   0.963429 0.388832 0.386210 -0.179624
N3    N     N_R   0.963372 0.396705 0.621718 -0.182522
N4    N     N_R   0.033057 0.395629 0.621583 -0.180445
N5    N     N_R   0.499340 0.498800 0.142780 -0.120632
N6    N     N_R   0.499320 0.498720 0.857170 -0.121306
O1    O     O_R   0.500000 0.316780 0.614690 -0.637873
O2    O     O_R   0.499990 0.316750 0.385360 -0.627562
O3    O     O_R   0.398140 0.500000 0.614700 -0.632942
O4    O     O_R   0.398130 0.499970 0.385370 -0.636817
O5    O     O_R   0.500010 0.683250 0.614640 -0.610055
O6    O     O_R   0.500000 0.683220 0.385310 -0.608678
O7    O     O_R   0.601870 0.500030 0.614630 -0.629039
O8    O     O_R   0.601860 0.500000 0.385300 -0.613258
Zn1   Zn    Zn3+2 0.500000 0.500020 0.653130 0.931224
Zn2   Zn    Zn3+2 0.500000 0.499980 0.346870 0.937665
N7    N     N_2   0.735350 0.149201 0.725957 -0.305744
H19   H     H_    0.783579 0.107741 0.721383 0.231113
C37   C     C_3   0.722140 0.210884 0.853105 -0.800026
H20   H     H_    0.712204 0.139574 0.933562 0.238514
H21   H     H_    0.676190 0.272585 0.844829 0.254537
H22   H     H_    0.768690 0.270452 0.881374 0.236569
N8    N     N_2   0.732509 0.874897 0.736480 -0.321506
H23   H     H_    0.757466 0.919513 0.816041 0.227782
C38   C     C_3   0.780355 0.817748 0.642652 -0.792481
H24   H     H_    0.818275 0.760244 0.699007 0.246968
H25   H     H_    0.809956 0.891862 0.584991 0.239612
H26   H     H_    0.751249 0.754858 0.571392 0.251009

loop_
_geom_bond_atom_site_label_1
_geom_bond_atom_site_label_2
_ccdc_geom_bond_type
N1    N2    A    
C16   C21   A    
C37   H20   S    
C19   C20   A    
C2    C12   S    
C1    O2    A    
C7    C8    A    
O6    Zn2   S    
N8    H23   S    
C31   O7    A    
C1    C18   S    
C23   O6    A    
C34   C35   A    
C27   N6    A    
O3    Zn1   S    
C5    C6    A    
C12   O4    A    
C2    C36   A    
C15   C16   A    
O2    Zn2   S    
C2    C32   A    
C18   C19   A    
C14   N8    S    
C26   H9    S    
C35   C36   A    
C8    C9    A    
C30   N6    A    
O4    Zn2   S    
C6    H15   S    
C9    C10   A    
C8    H16   S    
C22   C28   A    
C13   C14   A    
C33   H10   S    
C37   H21   S    
C35   H12   S    
C25   H8    S    
C33   C34   A    
N8    C38   S    
C31   O8    A    
C4    C34   S    
C7    C31   S    
C29   N5    A    
C30   H11   S    
C24   C25   A    
C38   H25   S    
C12   O3    A    
C16   C17   A    
C13   N7    S    
C25   C26   A    
O7    Zn1   S    
C11   H2    S    
C29   C30   A    
C3    N2    A    
C20   H4    S    
C17   C18   A    
C26   C27   A    
C32   H1    S    
C15   H3    S    
C3    N3    A    
C19   H18   S    
C21   C23   S    
C4    N1    A    
C37   H22   S    
C22   C24   A    
C5    H14   S    
C9    H17   S    
N7    C37   S    
C28   N5    A    
O1    Zn1   S    
C11   C17   A    
C29   H5    S    
C1    O1    A    
C38   H26   S    
C6    C7    A    
C32   C33   A    
C23   O5    A    
C5    C10   A    
C3    C10   S    
C11   C13   A    
N3    N4    A    
C22   H6    S    
N6    Zn1   S    
O5    Zn1   S    
N5    Zn2   S    
C38   H24   S    
N7    H19   S    
C20   C21   A    
O8    Zn2   S    
C4    N4    A    
C27   C28   A    
C24   H7    S    
C14   C15   A    
C36   H13   S    
