data_mof_unit_7059.cif
_audit_creation_date              2012-10-26T18:29:53-0400
_audit_creation_method            fapswitch 2.2
_symmetry_space_group_name_H-M    P1
_symmetry_Int_Tables_number       1
_space_group_crystal_system       triclinic
_cell_length_a                    10.765173
_cell_length_b                    13.009819
_cell_length_c                    11.685382
_cell_angle_alpha                 100.206611
_cell_angle_beta                  94.169864
_cell_angle_gamma                 91.196357
_cell_volume                      1605.45946371

loop_
_atom_site_label
_atom_site_type_symbol
_atom_type_description
_atom_site_fract_x
_atom_site_fract_y
_atom_site_fract_z
_atom_type_partial_charge
C1    C     C_R   0.497746 0.298702 0.477972 0.557276
C2    C     C_R   0.507193 0.031463 0.555669 0.027926
C3    C     C_R   0.482309 0.967403 0.445427 -0.000997
C4    C     C_R   0.259874 0.492205 0.499309 0.621446
C5    C     C_R   0.478205 0.859575 0.435981 -0.153978
C6    C     C_R   0.528025 0.878156 0.644777 -0.153834
C7    C     C_R   0.529165 0.986416 0.655252 -0.146106
C8    C     C_R   0.389110 0.395880 0.019454 -0.182439
C9    C     C_R   0.398508 0.406664 0.141843 0.043645
C10   C     C_R   0.543291 0.548407 0.158904 0.058999
C11   C     C_R   0.535485 0.541479 0.035754 -0.022297
C12   C     C_3   0.878078 0.491520 0.497861 -0.046747
C13   C     C_R   0.459735 0.462383 0.964990 -0.062253
C14   C     C_R   0.455149 0.452803 0.841827 -0.028381
C15   C     C_R   0.598761 0.596903 0.858136 0.405658
C16   C     C_R   0.501261 0.700943 0.521836 0.540825
C17   C     C_R   0.600078 0.612689 0.982455 0.199885
C18   C     C_R   0.740028 0.495134 0.499183 0.567742
C19   C     C_3   0.078852 0.448227 0.613154 0.523097
C20   C     C_3   0.932579 0.434130 0.595802 -0.231911
C21   C     C_3   0.075258 0.600880 0.496817 0.130583
C22   C     C_3   0.059858 0.413494 0.388683 0.061679
C23   C     C_3   0.934545 0.604701 0.515025 0.148466
C24   C     C_3   0.121344 0.488080 0.500647 0.102933
C25   C     C_3   0.114982 0.497246 0.820190 0.015864
C26   C     C_3   0.154819 0.590145 0.915265 -0.370042
C27   C     C_3   0.828747 0.754522 0.487454 -0.014500
C28   C     C_3   0.785512 0.817520 0.395360 -0.365338
C29   C     C_3   0.547577 0.119221 0.171246 -0.016304
C30   C     C_3   0.568532 0.191220 0.084935 -0.370109
C31   C     C_3   0.083551 0.272548 0.658651 -0.013950
C32   C     C_3   0.178297 0.200278 0.702051 -0.388001
C33   C     C_3   0.790215 0.669535 0.830022 0.005674
C34   C     C_3   0.917314 0.429332 0.380374 -0.227495
C35   C     C_3   0.844610 0.777211 0.824097 -0.392743
C36   C     C_3   0.608038 0.788620 0.051690 -0.008906
C37   C     C_3   0.694876 0.879193 0.112563 -0.394427
C38   C     C_3   0.172303 0.767240 0.541231 -0.009549
C39   C     C_3   0.205406 0.855841 0.643248 -0.368715
C40   C     C_3   0.149134 0.256843 0.307263 0.002994
C41   C     C_3   0.151725 0.140985 0.312730 -0.360626
C42   C     C_R   0.502403 0.814467 0.534955 -0.012967
C43   C     C_R   0.494297 0.184462 0.464040 0.010358
C44   C     C_R   0.464539 0.011490 0.345422 -0.146016
C45   C     C_R   0.476448 0.119986 0.352563 0.244889
C46   C     C_R   0.510367 0.139379 0.564456 -0.192802
Cu1   Cu    Cu3+1 0.509350 0.507730 0.615930 1.012830
Cu2   Cu    Cu3+1 0.490650 0.492270 0.384070 0.940084
H1    H     H_    0.089907 0.615574 0.406997 0.103893
H2    H     H_    0.086533 0.652851 0.915029 0.142196
H3    H     H_    0.159741 0.565624 0.001775 0.092989
H4    H     H_    0.248164 0.621081 0.900485 0.171614
H5    H     H_    0.892098 0.472270 0.308094 0.146640
H6    H     H_    0.900736 0.802301 0.548339 0.115228
H7    H     H_    0.748843 0.738444 0.537029 0.152766
H8    H     H_    0.709898 0.773403 0.335855 0.180758
H9    H     H_    0.750194 0.893326 0.437745 0.104571
H10   H     H_    0.864447 0.833011 0.343959 0.147391
H11   H     H_    0.546856 0.844462 0.722348 0.152745
H12   H     H_    0.458417 0.810813 0.350873 0.115577
H13   H     H_    0.443220 0.961262 0.261627 0.089703
H14   H     H_    0.548514 0.034684 0.740598 0.098083
H15   H     H_    0.506718 0.044204 0.120799 0.121567
H16   H     H_    0.640397 0.106445 0.214654 0.125208
H17   H     H_    0.604905 0.268988 0.131868 0.178769
H18   H     H_    0.637438 0.157354 0.023829 0.080150
H19   H     H_    0.479665 0.199513 0.033650 0.144782
H20   H     H_    0.027764 0.225511 0.582912 0.169314
H21   H     H_    0.022458 0.299695 0.729769 0.087161
H22   H     H_    0.236320 0.242825 0.778795 0.124598
H23   H     H_    0.526884 0.188182 0.649889 0.126000
H24   H     H_    0.129397 0.132826 0.727621 0.088549
H25   H     H_    0.239770 0.170572 0.632044 0.166166
H26   H     H_    0.830731 0.612084 0.763894 0.139495
H27   H     H_    0.821460 0.649556 0.915854 0.156026
H28   H     H_    0.813286 0.836056 0.895853 0.150018
H29   H     H_    0.947958 0.776552 0.831809 0.109678
H30   H     H_    0.813282 0.800193 0.740089 0.135477
H31   H     H_    0.327696 0.335326 0.968077 0.073189
H32   H     H_    0.521662 0.788617 0.098705 0.109770
H33   H     H_    0.582076 0.801714 0.961531 0.161163
H34   H     H_    0.396531 0.392263 0.787052 0.149583
H35   H     H_    0.793935 0.857120 0.110505 0.176440
H36   H     H_    0.683637 0.947016 0.067546 0.078485
H37   H     H_    0.673407 0.902910 0.204740 0.116100
H38   H     H_    0.344641 0.354108 0.181971 0.130164
H39   H     H_    0.602921 0.607733 0.214428 0.171979
H40   H     H_    0.094520 0.792413 0.485816 0.128058
H41   H     H_    0.253126 0.752570 0.487770 0.139731
H42   H     H_    0.281114 0.832516 0.702120 0.174875
H43   H     H_    0.236839 0.926433 0.610571 0.105654
H44   H     H_    0.122426 0.874781 0.693220 0.132926
H45   H     H_    0.899743 0.351490 0.570005 0.101383
H46   H     H_    0.923497 0.641925 0.607111 0.143360
H47   H     H_    0.246305 0.288907 0.320189 0.183023
H48   H     H_    0.106540 0.265415 0.219822 0.103405
H49   H     H_    0.055269 0.106818 0.302070 0.135054
H50   H     H_    0.205373 0.099812 0.241791 0.124012
H51   H     H_    0.196542 0.129664 0.398078 0.159839
H52   H     H_    0.865785 0.352389 0.358250 0.150826
H53   H     H_    0.892061 0.461573 0.679330 0.094548
H54   H     H_    0.096286 0.436258 0.309114 0.086564
H55   H     H_    0.183927 0.436035 0.826576 0.161939
H56   H     H_    0.021582 0.468808 0.837754 0.085499
N1    N     N_R   0.523430 0.519360 0.790130 -0.246815
N2    N     N_R   0.476570 0.480640 0.209880 -0.247584
O1    O     O_R   0.506640 0.354460 0.582000 -0.530885
O2    O     O_3   0.875664 0.659514 0.432218 -0.578281
O3    O     O_3   0.464074 0.164206 0.252533 -0.561160
O4    O     O_3   0.147901 0.355941 0.622773 -0.524365
O5    O     O_3   0.659521 0.668146 0.804530 -0.540792
O6    O     O_3   0.669779 0.693989 0.052152 -0.595087
O7    O     O_3   0.141329 0.676014 0.584525 -0.531503
O8    O     O_3   0.079632 0.307303 0.397067 -0.552869
O9    O     O_R   0.490840 0.341410 0.386200 -0.467512
O10   O     O_R   0.325590 0.506510 0.597900 -0.415652
O11   O     O_R   0.309790 0.493450 0.402100 -0.563323
O12   O     O_R   0.509160 0.658590 0.613800 -0.448835
O13   O     O_R   0.493360 0.645540 0.418000 -0.526156
O14   O     O_R   0.690210 0.506550 0.597900 -0.508798
O15   O     O_R   0.674410 0.493490 0.402100 -0.483343
O16   O     O_3   0.112700 0.529504 0.710693 -0.513139

loop_
_geom_bond_atom_site_label_1
_geom_bond_atom_site_label_2
_ccdc_geom_bond_type
C20   H45   S    
C29   H15   S    
C19   O16   S    
C8    C13   A    
C16   C42   S    
C6    C7    A    
C2    C7    A    
C5    C42   A    
C21   H1    S    
C28   H8    S    
C27   H6    S    
C32   H24   S    
C28   H9    S    
C2    C46   A    
C38   H41   S    
C37   H37   S    
C36   C37   S    
C16   O12   A    
C26   H2    S    
C38   C39   S    
C4    C24   S    
C45   O3    S    
C27   H7    S    
C1    C43   S    
Cu1   O12   S    
C40   O8    S    
C31   C32   S    
C8    C9    A    
Cu1   N1    S    
C36   O6    S    
C8    H31   S    
C34   H52   S    
C41   H51   S    
C37   H36   S    
C33   O5    S    
C25   O16   S    
C39   H42   S    
C30   H19   S    
C29   H16   S    
C13   C14   A    
C31   H20   S    
C40   H48   S    
C39   H43   S    
C33   H27   S    
Cu2   O13   S    
C14   N1    A    
Cu1   O10   S    
C22   C34   S    
Cu2   N2    S    
C10   H39   S    
C15   O5    S    
C21   O7    S    
C36   H32   S    
C16   O13   A    
Cu2   O15   S    
C38   O7    S    
C25   H55   S    
C35   H28   S    
C32   H22   S    
C20   H53   S    
C9    N2    A    
C35   H29   S    
C38   H40   S    
C7    H14   S    
C29   C30   S    
C26   H4    S    
C9    H38   S    
Cu1   Cu2   S    
C12   C23   S    
C31   H21   S    
C36   H33   S    
C12   C20   S    
C43   C45   A    
C46   H23   S    
C30   H18   S    
C1    O1    A    
Cu2   O9    S    
C40   C41   S    
Cu1   O1    S    
C3    C44   A    
C21   C23   S    
C22   C24   S    
C4    O11   A    
C10   N2    A    
C14   H34   S    
C40   H47   S    
C12   C34   S    
C17   O6    S    
C18   O14   A    
C39   H44   S    
C32   H25   S    
C44   C45   A    
C19   O4    S    
C29   O3    S    
C15   C17   A    
Cu1   O14   S    
C5    H12   S    
C6    H11   S    
C4    O10   A    
C3    C5    A    
C11   C17   A    
C25   H56   S    
Cu2   O11   S    
C28   H10   S    
C44   H13   S    
C35   H30   S    
C22   H54   S    
C23   H46   S    
C15   N1    A    
C19   C20   S    
C2    C3    A    
C25   C26   S    
C26   H3    S    
C11   C13   A    
C27   O2    S    
C23   O2    S    
C33   C35   S    
C31   O4    S    
C19   C24   S    
C41   H49   S    
C43   C46   A    
C30   H17   S    
C10   C11   A    
C18   O15   A    
C33   H26   S    
C22   O8    S    
C34   H5    S    
C6    C42   A    
C21   C24   S    
C12   C18   S    
C27   C28   S    
C41   H50   S    
C37   H35   S    
C1    O9    A    
