data_mof_unit_22540.cif
_audit_creation_date              2013-03-05T15:40:54-0500
_audit_creation_method            fapswitch 2.2
_symmetry_space_group_name_H-M    P1
_symmetry_Int_Tables_number       1
_space_group_crystal_system       triclinic
_cell_length_a                    27.973488
_cell_length_b                    18.834752
_cell_length_c                    16.787995
_cell_angle_alpha                 90.192086
_cell_angle_beta                  62.666915
_cell_angle_gamma                 90.348609
_cell_volume                      7857.46466334

loop_
_atom_site_label
_atom_site_type_symbol
_atom_site_description
_atom_site_fract_x
_atom_site_fract_y
_atom_site_fract_z
_atom_type_partial_charge
O1    O     O_R   0.255040 0.869590 0.478480 -0.511375
O2    O     O_R   0.744960 0.130410 0.521520 -0.496416
O3    O     O_R   0.744960 0.869590 0.521520 -0.513007
O4    O     O_R   0.255040 0.130410 0.478480 -0.514734
O5    O     O_R   0.755040 0.369590 0.478480 -0.513454
O6    O     O_R   0.244960 0.630410 0.521520 -0.502818
O7    O     O_R   0.244960 0.369590 0.521520 -0.513335
O8    O     O_R   0.755040 0.630410 0.478480 -0.510698
O9    O     O_R   0.182050 0.796550 0.624440 -0.571498
O10   O     O_R   0.817950 0.203450 0.375560 -0.565971
O11   O     O_R   0.817950 0.796550 0.375560 -0.569575
O12   O     O_R   0.182050 0.203450 0.624440 -0.573086
O13   O     O_R   0.682050 0.296550 0.624440 -0.566496
O14   O     O_R   0.317950 0.703450 0.375560 -0.563978
O15   O     O_R   0.317950 0.296550 0.375560 -0.571037
O16   O     O_R   0.682050 0.703450 0.624440 -0.574592
Cu1   Cu    Cu3+1 0.209920 0.785290 0.495070 1.117380
Cu2   Cu    Cu3+1 0.790080 0.214710 0.504930 1.118467
Cu3   Cu    Cu3+1 0.790080 0.785290 0.504930 1.118037
Cu4   Cu    Cu3+1 0.209920 0.214710 0.495070 1.113127
Cu5   Cu    Cu3+1 0.709920 0.285290 0.495070 1.095065
Cu6   Cu    Cu3+1 0.290080 0.714710 0.504930 1.107931
Cu7   Cu    Cu3+1 0.290080 0.285290 0.504930 1.085881
Cu8   Cu    Cu3+1 0.709920 0.714710 0.495070 1.112467
C1    C     C_R   0.296134 0.731153 0.328610 0.777492
C2    C     C_R   0.707846 0.277122 0.668740 0.782724
C3    C     C_R   0.703366 0.732107 0.671943 0.772762
C4    C     C_R   0.295638 0.269865 0.328418 0.793097
C5    C     C_R   0.796156 0.231187 0.328590 0.775875
C6    C     C_R   0.207807 0.777052 0.668781 0.778466
C7    C     C_R   0.203388 0.232066 0.671924 0.761485
C8    C     C_R   0.795594 0.769939 0.328430 0.775778
O17   O     O_R   0.250530 0.763330 0.367210 -0.580966
O18   O     O_R   0.749470 0.236670 0.632790 -0.581504
O19   O     O_R   0.749470 0.763330 0.632790 -0.579281
O20   O     O_R   0.250530 0.236670 0.367210 -0.577173
O21   O     O_R   0.750530 0.263330 0.367210 -0.592661
O22   O     O_R   0.249470 0.736670 0.632790 -0.587835
O23   O     O_R   0.249470 0.263330 0.632790 -0.588013
O24   O     O_R   0.750530 0.736670 0.367210 -0.572439
O25   O     O_R   0.177260 0.690030 0.513710 -0.578109
O26   O     O_R   0.822740 0.309970 0.486290 -0.593943
O27   O     O_R   0.822740 0.690030 0.486290 -0.582091
O28   O     O_R   0.177260 0.309970 0.513710 -0.582220
O29   O     O_R   0.677260 0.190030 0.513710 -0.586480
O30   O     O_R   0.322740 0.809970 0.486290 -0.595643
O31   O     O_R   0.322740 0.190030 0.486290 -0.599226
O32   O     O_R   0.677260 0.809970 0.513710 -0.587291
C9    C     C_R   0.196317 0.631877 0.528551 0.810266
C10   C     C_R   0.803695 0.368112 0.471394 0.780538
C11   C     C_R   0.803571 0.631777 0.471899 0.800607
C12   C     C_R   0.196427 0.368217 0.528083 0.801159
C13   C     C_R   0.696033 0.131977 0.529475 0.810736
C14   C     C_R   0.303537 0.868161 0.471949 0.781620
C15   C     C_R   0.299948 0.130983 0.483918 0.810046
C16   C     C_R   0.696893 0.868362 0.526340 0.802666
C17   C     C_R   0.041978 0.628906 0.526043 -0.084038
C18   C     C_R   0.958139 0.371058 0.473452 -0.086679
C19   C     C_R   0.957269 0.629321 0.479285 -0.084887
C20   C     C_R   0.042897 0.370639 0.520077 -0.085155
C21   C     C_R   0.527534 0.124798 0.571660 -0.079966
C22   C     C_R   0.461551 0.874873 0.462581 -0.085216
C23   C     C_R   0.428440 0.120988 0.563457 -0.080395
C24   C     C_R   0.548339 0.872626 0.503200 -0.090003
C25   C     C_R   0.020241 0.694112 0.516683 0.242514
C26   C     C_R   0.979952 0.305860 0.482612 0.236470
C27   C     C_R   0.978662 0.694348 0.491443 0.241683
C28   C     C_R   0.021593 0.305614 0.507697 0.239832
C29   C     C_R   0.493693 0.185078 0.597063 0.245837
C30   C     C_R   0.489906 0.811013 0.453246 0.244227
C31   C     C_R   0.443559 0.182347 0.595686 0.252722
C32   C     C_R   0.532384 0.809396 0.476092 0.239796
C33   C     C_R   0.977891 0.564673 0.491334 -0.016874
C34   C     C_R   0.022237 0.435289 0.508140 -0.017197
C35   C     C_R   0.021768 0.564500 0.511134 -0.016890
C36   C     C_R   0.978351 0.435462 0.488369 -0.016119
C37   C     C_R   0.462218 0.061354 0.537599 -0.016345
C38   C     C_R   0.522549 0.936815 0.506846 -0.016789
C39   C     C_R   0.510685 0.062462 0.544866 -0.018337
C40   C     C_R   0.476988 0.937143 0.491943 -0.017486
C41   C     C_R   0.446613 0.999547 0.507239 0.052219
C42   C     C_R   0.540917 0.999947 0.529671 0.050924
C43   C     C_R   0.955637 0.500154 0.480812 0.050150
C44   C     C_R   0.044466 0.499806 0.518739 0.049858
C45   C     C_R   0.384073 0.936977 0.465788 -0.023160
C46   C     C_R   0.610568 0.064296 0.551822 -0.016366
C47   C     C_R   0.614714 0.934842 0.536000 -0.012920
C48   C     C_R   0.368539 0.061318 0.512099 -0.019695
C49   C     C_R   0.887016 0.435373 0.456853 -0.020206
C50   C     C_R   0.113036 0.564590 0.542858 -0.018018
C51   C     C_R   0.113415 0.434749 0.540542 -0.015503
C52   C     C_R   0.886632 0.565210 0.459175 -0.015047
C53   C     C_R   0.334476 0.935461 0.461393 -0.206801
C54   C     C_R   0.663172 0.065102 0.546667 -0.221432
C55   C     C_R   0.664781 0.934700 0.540329 -0.221505
C56   C     C_R   0.326494 0.063523 0.485831 -0.227958
C57   C     C_R   0.836357 0.434838 0.455056 -0.215939
C58   C     C_R   0.163674 0.565130 0.544758 -0.223924
C59   C     C_R   0.163851 0.434625 0.543654 -0.221773
C60   C     C_R   0.836134 0.565344 0.456280 -0.225587
C61   C     C_R   0.310309 0.000044 0.459662 0.268912
C62   C     C_R   0.687262 0.999939 0.548836 0.260259
C63   C     C_R   0.813419 0.499978 0.448886 0.267295
C64   C     C_R   0.186565 0.499986 0.551050 0.265011
C65   C     C_R   0.399874 0.999457 0.494496 0.074897
C66   C     C_R   0.589256 0.999884 0.538135 0.070519
C67   C     C_R   0.909407 0.500259 0.466124 0.069919
C68   C     C_R   0.090663 0.499701 0.533531 0.070321
C69   C     C_R   0.587854 0.872061 0.531613 -0.113832
C70   C     C_R   0.380690 0.118630 0.554879 -0.132897
C71   C     C_R   0.418135 0.877657 0.442845 -0.124822
C72   C     C_R   0.577063 0.124820 0.575153 -0.120726
C73   C     C_R   0.083931 0.372129 0.545808 -0.119103
C74   C     C_R   0.916166 0.627817 0.453705 -0.119770
C75   C     C_R   0.916900 0.373050 0.448316 -0.127706
C76   C     C_R   0.083157 0.626910 0.551326 -0.117160
H1    H     H_    0.593013 0.821978 0.556585 0.204208
H2    H     H_    0.352615 0.161247 0.584121 0.211661
H3    H     H_    0.412038 0.833894 0.406907 0.202406
H4    H     H_    0.587430 0.170692 0.602570 0.204125
H5    H     H_    0.090023 0.324352 0.574630 0.203762
H6    H     H_    0.910019 0.675565 0.424894 0.202062
H7    H     H_    0.910490 0.325991 0.417975 0.204545
H8    H     H_    0.089519 0.673968 0.581722 0.202789
C77   C     C_R   0.225621 0.781199 0.950264 0.030591
C78   C     C_R   0.782744 0.242045 0.044171 0.030467
C79   C     C_R   0.765217 0.792538 0.059799 0.026218
C80   C     C_R   0.206075 0.258914 0.966220 0.026601
C81   C     C_R   0.726327 0.282523 0.949611 0.030559
C82   C     C_R   0.281966 0.740729 0.044912 0.030182
C83   C     C_R   0.265790 0.291724 0.059227 0.027364
C84   C     C_R   0.705510 0.759728 0.966734 0.028889
C85   C     C_R   0.275366 0.746337 0.905895 0.037126
C86   C     C_R   0.738170 0.287773 0.084458 0.035075
C87   C     C_R   0.723991 0.740841 0.093906 0.030770
C88   C     C_R   0.247385 0.310630 0.931032 0.033180
C89   C     C_R   0.776154 0.247874 0.905099 0.031847
C90   C     C_R   0.237381 0.786457 0.085152 0.030183
C91   C     C_R   0.224715 0.239839 0.093187 0.034568
C92   C     C_R   0.746866 0.811393 0.931523 0.033807
C93   C     C_R   0.298578 0.716935 0.956672 0.046711
C94   C     C_R   0.705689 0.299241 0.041372 0.042459
C95   C     C_R   0.690516 0.730731 0.052426 0.035894
C96   C     C_R   0.274575 0.330959 0.981592 0.053551
C97   C     C_R   0.799444 0.218488 0.955794 0.044355
C98   C     C_R   0.204924 0.797904 0.042029 0.038885
C99   C     C_R   0.191218 0.229725 0.051772 0.042848
C100  C     C_R   0.774062 0.831728 0.982109 0.050484
C101  C     C_R   0.144189 0.826897 0.948845 0.057712
C102  C     C_R   0.849021 0.164399 0.057201 0.063416
C103  C     C_R   0.837340 0.858903 0.072231 0.060483
C104  C     C_R   0.134321 0.189662 0.956062 0.057714
C105  C     C_R   0.644615 0.327570 0.948555 0.060211
C106  C     C_R   0.348532 0.663563 0.057767 0.064887
C107  C     C_R   0.337581 0.358522 0.072026 0.060274
C108  C     C_R   0.633963 0.690144 0.956314 0.052379
C109  C     C_R   0.117477 0.849879 0.898574 -0.127685
C110  C     C_R   0.877694 0.143472 0.105386 -0.117831
C111  C     C_R   0.873024 0.865921 0.111070 -0.115679
C112  C     C_R   0.112922 0.157582 0.901900 -0.124475
C113  C     C_R   0.617662 0.350120 0.898477 -0.128878
C114  C     C_R   0.377505 0.643142 0.105622 -0.119021
C115  C     C_R   0.373143 0.365773 0.111024 -0.113017
C116  C     C_R   0.612776 0.657776 0.902008 -0.123000
C117  C     C_R   0.138913 0.831594 0.808019 -0.255873
C118  C     C_R   0.861537 0.170290 0.191655 -0.257978
C119  C     C_R   0.860559 0.831903 0.192035 -0.255539
C120  C     C_R   0.135320 0.175277 0.810859 -0.254509
C121  C     C_R   0.638976 0.331629 0.808009 -0.247089
C122  C     C_R   0.361516 0.670252 0.191705 -0.254384
C123  C     C_R   0.360643 0.331869 0.192071 -0.255701
C124  C     C_R   0.635278 0.675351 0.810916 -0.253398
H9    H     H_    0.116883 0.844918 0.771321 0.203223
H10   H     H_    0.880735 0.150822 0.230498 0.203882
H11   H     H_    0.884594 0.842676 0.226215 0.199742
H12   H     H_    0.120703 0.148519 0.769020 0.202635
H13   H     H_    0.616769 0.344590 0.771488 0.208896
H14   H     H_    0.380935 0.651147 0.230371 0.205821
H15   H     H_    0.384565 0.342862 0.226391 0.196647
H16   H     H_    0.620794 0.648411 0.769010 0.200698
C125  C     C_R   0.189167 0.799133 0.762976 -0.112230
C126  C     C_R   0.819619 0.219207 0.230525 -0.116778
C127  C     C_R   0.816376 0.786417 0.231588 -0.120115
C128  C     C_R   0.177661 0.224205 0.771484 -0.111523
C129  C     C_R   0.689315 0.299407 0.762827 -0.114368
C130  C     C_R   0.319486 0.719010 0.230623 -0.116432
C131  C     C_R   0.316549 0.286224 0.231514 -0.122188
C132  C     C_R   0.677564 0.724363 0.771568 -0.116857
C133  C     C_R   0.220565 0.788583 0.808813 0.051315
C134  C     C_R   0.796547 0.248368 0.177818 0.048384
C135  C     C_R   0.788446 0.766490 0.181790 0.047809
C136  C     C_R   0.197648 0.258497 0.826546 0.044018
C137  C     C_R   0.720923 0.289337 0.808397 0.045563
C138  C     C_R   0.296144 0.747761 0.178115 0.044029
C139  C     C_R   0.288841 0.265996 0.181484 0.050218
C140  C     C_R   0.697397 0.758867 0.826744 0.046701
C141  C     C_R   0.196585 0.798722 0.902639 0.074809
C142  C     C_R   0.809953 0.218718 0.092819 0.073195
C143  C     C_R   0.797209 0.805732 0.104368 0.072549
C144  C     C_R   0.179358 0.235613 0.916006 0.075168
C145  C     C_R   0.697094 0.299673 0.902180 0.075305
C146  C     C_R   0.309372 0.717773 0.093374 0.073068
C147  C     C_R   0.297627 0.305148 0.103985 0.074577
C148  C     C_R   0.678950 0.736195 0.916342 0.078472
C149  C     C_R   0.121002 0.831368 0.043472 -0.161135
C150  C     C_R   0.856456 0.132515 0.975649 -0.175779
C151  C     C_R   0.839099 0.904441 0.004393 -0.169451
C152  C     C_R   0.112296 0.178815 0.049564 -0.168104
C153  C     C_R   0.621576 0.332172 0.043153 -0.161839
C154  C     C_R   0.355779 0.631282 0.976547 -0.178875
C155  C     C_R   0.339292 0.404027 0.004203 -0.161716
C156  C     C_R   0.611771 0.679475 0.049874 -0.164151
C157  C     C_R   0.151666 0.821295 0.088403 -0.199056
C158  C     C_R   0.835457 0.162195 0.923270 -0.204331
C159  C     C_R   0.809418 0.890116 0.958710 -0.188251
C160  C     C_R   0.141784 0.194173 0.095004 -0.199709
C161  C     C_R   0.652389 0.322437 0.087881 -0.204978
C162  C     C_R   0.334573 0.660607 0.924272 -0.210140
C163  C     C_R   0.309763 0.389510 0.958346 -0.168676
C164  C     C_R   0.641070 0.695167 0.095564 -0.188862
C165  C     C_R   0.275502 0.769392 0.764646 -0.155103
C166  C     C_R   0.759852 0.305614 0.207063 -0.146597
C167  C     C_R   0.752031 0.709021 0.206414 -0.124562
C168  C     C_R   0.234696 0.315514 0.796672 -0.117206
C169  C     C_R   0.775915 0.270422 0.763998 -0.149640
C170  C     C_R   0.259347 0.804906 0.207321 -0.133617
C171  C     C_R   0.252629 0.208323 0.205953 -0.135515
C172  C     C_R   0.734453 0.815880 0.796846 -0.143423
C173  C     C_R   0.301157 0.744059 0.812279 -0.197726
C174  C     C_R   0.728691 0.321678 0.164606 -0.196257
C175  C     C_R   0.719390 0.697800 0.165333 -0.164083
C176  C     C_R   0.259540 0.340231 0.846889 -0.126254
C177  C     C_R   0.801813 0.245527 0.811465 -0.191455
C178  C     C_R   0.227984 0.820588 0.165119 -0.184599
C179  C     C_R   0.220179 0.196790 0.164580 -0.178722
C180  C     C_R   0.759152 0.840804 0.847223 -0.174577
H17   H     H_    0.078670 0.840407 0.085203 0.182663
H18   H     H_    0.875865 0.082588 0.950840 0.175844
H19   H     H_    0.861893 0.953261 0.987020 0.161120
H20   H     H_    0.072001 0.159769 0.090521 0.188219
H21   H     H_    0.579233 0.340960 0.085059 0.179246
H22   H     H_    0.375284 0.581376 0.951926 0.175106
H23   H     H_    0.361899 0.452990 0.987021 0.158028
H24   H     H_    0.571499 0.660250 0.090636 0.193629
H25   H     H_    0.132150 0.827495 0.160550 0.169573
H26   H     H_    0.844086 0.136619 0.860252 0.163443
H27   H     H_    0.813733 0.927154 0.906937 0.146222
H28   H     H_    0.124111 0.180975 0.165521 0.172018
H29   H     H_    0.632935 0.328652 0.160020 0.157964
H30   H     H_    0.343107 0.634841 0.861403 0.160060
H31   H     H_    0.314015 0.426572 0.906635 0.143246
H32   H     H_    0.623289 0.682107 0.166133 0.186201
H33   H     H_    0.300416 0.774872 0.693469 0.188592
H34   H     H_    0.754803 0.339693 0.262081 0.198242
H35   H     H_    0.749408 0.670058 0.255257 0.191693
H36   H     H_    0.244250 0.343942 0.735573 0.197581
H37   H     H_    0.800655 0.275725 0.692744 0.197821
H38   H     H_    0.254408 0.839257 0.262050 0.201770
H39   H     H_    0.250009 0.169511 0.254957 0.192749
H40   H     H_    0.744121 0.844131 0.735584 0.199126
H41   H     H_    0.342386 0.726366 0.775208 0.164763
H42   H     H_    0.699156 0.363457 0.192520 0.161833
H43   H     H_    0.692303 0.652698 0.187605 0.163520
H44   H     H_    0.289434 0.381357 0.816530 0.166872
H45   H     H_    0.843076 0.227995 0.774239 0.174814
H46   H     H_    0.198419 0.862338 0.192985 0.167066
H47   H     H_    0.193232 0.151539 0.186695 0.163761
H48   H     H_    0.789024 0.881962 0.816902 0.163732
O33   O     O_R   0.051640 0.926880 0.885090 -0.565627
O34   O     O_R   0.948360 0.073120 0.114910 -0.578438
O35   O     O_R   0.948360 0.926880 0.114910 -0.579375
O36   O     O_R   0.051640 0.073120 0.885090 -0.568408
O37   O     O_R   0.551640 0.426880 0.885090 -0.558930
O38   O     O_R   0.448360 0.573120 0.114910 -0.577279
O39   O     O_R   0.448360 0.426880 0.114910 -0.584720
O40   O     O_R   0.551640 0.573120 0.885090 -0.570687
Cu9   Cu    Cu3+1 0.495240 0.500000 0.924150 1.011759
Cu10  Cu    Cu3+1 0.504760 0.500000 0.075850 0.989693
Cu11  Cu    Cu3+1 0.995240 1.000000 0.924150 1.001223
Cu12  Cu    Cu3+1 0.004760 0.000000 0.075850 0.996730
C181  C     C_R   0.922671 0.909087 0.069675 0.795324
C182  C     C_R   0.071999 0.099612 0.935223 0.812291
C183  C     C_R   0.072499 0.901304 0.934767 0.815606
C184  C     C_R   0.924166 0.094058 0.068075 0.786092
C185  C     C_R   0.422709 0.409041 0.069656 0.797469
C186  C     C_R   0.571953 0.599670 0.935261 0.811333
C187  C     C_R   0.572552 0.401360 0.934732 0.818765
C188  C     C_R   0.424108 0.593954 0.068141 0.785335
O41   O     O_R   0.940620 0.926560 0.986760 -0.594603
O42   O     O_R   0.059380 0.073440 0.013240 -0.594630
O43   O     O_R   0.059380 0.926560 0.013240 -0.593548
O44   O     O_R   0.940620 0.073440 0.986760 -0.609671
O45   O     O_R   0.440620 0.426560 0.986760 -0.586164
O46   O     O_R   0.559380 0.573440 0.013240 -0.594860
O47   O     O_R   0.559380 0.426560 0.013240 -0.596689
O48   O     O_R   0.440620 0.573440 0.986760 -0.611144
N1    N     N_R   0.560307 0.743932 0.468740 0.134113
O49   O     O_R   0.533616 0.686597 0.507230 -0.291722
O50   O     O_R   0.612263 0.740739 0.420072 -0.345095
N2    N     N_R   0.409407 0.243553 0.623116 0.140027
O51   O     O_R   0.426531 0.303666 0.581350 -0.293813
O52   O     O_R   0.363311 0.241001 0.695057 -0.360420
N3    N     N_R   0.475084 0.747239 0.422697 0.139492
O53   O     O_R   0.510532 0.713795 0.352719 -0.323736
O54   O     O_R   0.427633 0.719197 0.469273 -0.342103
N4    N     N_R   0.509431 0.249049 0.625766 0.138818
O55   O     O_R   0.478399 0.276300 0.703907 -0.297346
O56   O     O_R   0.552323 0.283573 0.570682 -0.337745
N5    N     N_R   0.042886 0.239087 0.518290 0.137032
O57   O     O_R   0.011017 0.191149 0.572733 -0.295589
O58   O     O_R   0.093489 0.224386 0.468888 -0.338203
N6    N     N_R   0.957571 0.760881 0.480360 0.136832
O59   O     O_R   0.989593 0.808537 0.425592 -0.298587
O60   O     O_R   0.907010 0.775886 0.529613 -0.333078
N7    N     N_R   0.959185 0.239586 0.468714 0.137367
O61   O     O_R   0.991372 0.193651 0.411426 -0.299874
O62   O     O_R   0.908831 0.222903 0.517973 -0.350368
N8    N     N_R   0.041031 0.760403 0.530504 0.136769
O63   O     O_R   0.008808 0.806570 0.587320 -0.288965
O64   O     O_R   0.091450 0.776904 0.481528 -0.336920
N9    N     N_R   0.270735 0.000929 0.427500 0.146415
O65   O     O_R   0.285453 0.988703 0.343127 -0.376466
O66   O     O_R   0.219674 0.001738 0.484095 -0.305194
N10   N     N_R   0.734038 0.000033 0.563295 0.149684
O67   O     O_R   0.782085 0.999844 0.495456 -0.306795
O68   O     O_R   0.728467 0.003418 0.644514 -0.358685
N11   N     N_R   0.767821 0.499754 0.431206 0.147285
O69   O     O_R   0.719066 0.499926 0.497053 -0.310464
O70   O     O_R   0.775199 0.496770 0.348925 -0.377558
N12   N     N_R   0.232117 0.500187 0.568849 0.148643
O71   O     O_R   0.224649 0.498671 0.651220 -0.365959
O72   O     O_R   0.280902 0.500364 0.503086 -0.310058

loop_
_geom_bond_atom_site_label_1
_geom_bond_atom_site_label_2
_geom_bond_distance
_ccdc_geom_bond_type
C140  C172  1.411314 A    
C159  H27   1.078586 S    
Cu2   Cu5   2.683535 S    
C30   N3    1.436256 S    
C70   H2    1.073793 S    
C174  H42   1.082274 S    
N3    O54   1.301293 A    
C26   N7    1.436567 S    
C25   N8    1.436702 S    
C110  C118  1.397739 A    
C122  H14   1.083368 S    
C112  C182  1.488735 S    
C77   C98   1.409744 A    
C2    C129  1.478540 S    
C139  C147  1.416866 A    
Cu6   O22   1.956931 S    
C137  C145  1.413082 A    
C22   C30   1.413016 A    
C82   C93   1.406122 A    
C95   C164  1.399428 A    
N10   O67   1.303027 A    
Cu11  O41   1.965156 S    
O3    Cu3   1.972370 S    
C50   C76   1.413591 A    
C140  C148  1.414210 A    
C102  C110  1.433500 A    
C19   C33   1.404879 A    
C82   C146  1.419780 A    
C55   C62   1.413386 A    
C109  C183  1.482974 S    
C150  C158  1.382901 A    
C110  C184  1.487133 S    
C63   N11   1.436205 S    
C162  H30   1.083083 S    
C36   C43   1.410294 A    
O25   C9    1.294928 A    
C17   C76   1.399341 A    
C105  C145  1.412228 A    
C37   C39   1.416007 A    
O36   C182  1.309795 A    
C118  H10   1.083353 S    
C75   H7    1.075245 S    
N12   O71   1.300621 A    
C154  H22   1.071719 S    
C4    C131  1.486911 S    
C53   C61   1.402058 A    
C72   H4    1.076712 S    
C81   C94   1.409879 A    
C156  C164  1.385757 A    
C3    O19   1.286871 A    
C105  C113  1.429712 A    
C62   N10   1.436204 S    
C93   C162  1.393362 A    
C38   C42   1.412461 A    
N3    O53   1.301157 A    
O12   Cu4   1.953437 S    
N4    O55   1.301174 A    
O13   Cu5   1.952886 S    
C150  H18   1.071666 S    
C188  O48   1.283877 A    
C57   C63   1.413918 A    
C23   C31   1.416774 A    
C164  H32   1.082029 S    
C91   C179  1.405570 A    
O37   C187  1.312090 A    
C28   N5    1.436773 S    
O38   C188  1.313441 A    
C153  H21   1.077837 S    
C82   C90   1.410351 A    
C135  C167  1.408211 A    
C8    O24   1.282593 A    
N2    O51   1.301256 A    
C168  H36   1.077225 S    
C133  C141  1.413071 A    
C50   C58   1.431436 A    
O2    C13   1.313208 A    
C80   C99   1.411431 A    
C160  H28   1.081984 S    
C139  C171  1.407951 A    
C153  C161  1.391984 A    
C137  C169  1.414515 A    
C106  C154  1.418488 A    
Cu3   O19   1.957051 S    
O10   Cu2   1.952886 S    
C111  C119  1.395527 A    
C112  C120  1.400409 A    
C97   C158  1.393257 A    
O4    Cu4   1.972372 S    
C81   C89   1.406530 A    
C184  O44   1.283673 A    
N9    O65   1.300881 A    
O33   C183  1.311886 A    
C126  C134  1.425883 A    
C103  C151  1.410550 A    
C33   C43   1.409180 A    
C138  C146  1.411934 A    
C16   C55   1.497054 S    
C49   C75   1.413518 A    
C118  C126  1.398614 A    
O27   C11   1.288309 A    
C32   N1    1.437980 S    
C18   C36   1.404789 A    
C181  O41   1.287347 A    
C104  C144  1.414580 A    
C34   C36   1.411236 A    
C22   C40   1.410834 A    
O7    C12   1.310814 A    
Cu2   O26   1.968000 S    
C38   C40   1.407100 A    
C35   C44   1.410337 A    
Cu10  O46   1.965156 S    
C104  C152  1.413439 A    
N6    O59   1.301101 A    
C186  O46   1.288770 A    
C71   H3    1.077941 S    
N8    O64   1.301271 A    
C19   C27   1.414727 A    
C45   C53   1.422901 A    
C182  O42   1.288680 A    
C22   C71   1.399251 A    
C187  O47   1.284567 A    
C47   C55   1.435379 A    
C29   N4    1.436034 S    
C81   C145  1.417743 A    
C78   C142  1.420106 A    
O16   C3    1.308736 A    
C136  C144  1.413917 A    
O29   C13   1.295353 A    
Cu9   Cu10  2.679483 S    
N1    O50   1.301438 A    
C123  H15   1.083615 S    
C46   C66   1.412489 A    
C161  H29   1.082194 S    
C107  C147  1.409562 A    
C121  H13   1.083511 S    
Cu4   O28   1.976206 S    
C78   C97   1.406419 A    
Cu5   O29   1.968000 S    
N5    O58   1.301318 A    
C179  H47   1.081532 S    
C41   C65   1.418445 A    
Cu12  O43   1.973267 S    
Cu7   O31   1.976206 S    
C5    C126  1.482931 S    
Cu8   O32   1.976206 S    
O39   Cu10  1.960961 S    
C102  C150  1.418737 A    
C109  C117  1.396824 A    
N11   O70   1.300638 A    
C107  C115  1.425749 A    
C103  C111  1.426366 A    
Cu4   Cu7   2.669431 S    
O5    Cu5   1.961481 S    
C114  C188  1.487037 S    
C157  H25   1.082256 S    
C20   C28   1.414732 A    
O9    C6    1.306045 A    
O26   C10   1.294950 A    
O11   C8    1.310060 A    
O12   C7    1.308588 A    
O13   C2    1.305981 A    
C116  C124  1.400462 A    
C5    O21   1.289471 A    
C115  C123  1.395533 A    
C119  H11   1.083647 S    
C11   C60   1.502137 S    
C120  H12   1.083243 S    
C175  H43   1.081526 S    
C176  H44   1.078164 S    
C13   C54   1.503194 S    
C24   C38   1.398369 A    
C130  C138  1.425743 A    
C34   C44   1.409215 A    
C15   C56   1.483413 S    
C79   C143  1.426002 A    
C39   C42   1.406644 A    
C172  H40   1.077264 S    
C173  H41   1.082905 S    
C155  C163  1.389112 A    
O1    Cu1   1.961481 S    
C170  C178  1.390785 A    
C116  C186  1.488938 S    
O34   C184  1.313678 A    
C17   C35   1.404762 A    
C50   C68   1.410420 A    
C48   C65   1.409075 A    
C24   C69   1.390626 A    
C21   C39   1.409745 A    
O7    Cu7   1.972370 S    
O8    Cu8   1.972372 S    
C42   C66   1.423074 A    
C83   C91   1.410234 A    
C177  H45   1.082943 S    
C73   H5    1.073979 S    
O40   Cu9   1.960961 S    
C166  C174  1.390908 A    
N10   O68   1.300734 A    
Cu11  O44   1.973264 S    
C87   C175  1.405407 A    
C51   C59   1.435627 A    
C21   C72   1.413388 A    
C1    O17   1.289287 A    
C48   C56   1.434061 A    
C7    C128  1.493058 S    
C33   C35   1.411265 A    
C8    C127  1.486849 S    
C170  H38   1.078143 S    
C115  C185  1.474674 S    
C69   H1    1.070646 S    
O40   C186  1.309812 A    
O11   Cu3   1.953437 S    
N12   O72   1.302927 A    
C89   C97   1.404226 A    
C79   C87   1.410516 A    
C80   C88   1.412942 A    
O35   C181  1.304560 A    
C108  C156  1.413491 A    
C27   N6    1.436792 S    
C21   C29   1.416375 A    
O6    Cu6   1.961479 S    
O33   Cu11  1.971331 S    
O34   Cu12  1.971328 S    
C14   C53   1.494839 S    
C125  C133  1.423689 A    
C167  C175  1.388879 A    
C25   C27   1.408926 A    
N4    O56   1.301241 A    
Cu11  Cu12  2.679483 S    
C128  C136  1.431948 A    
C83   C147  1.425548 A    
C151  H19   1.077518 S    
C79   C100  1.419518 A    
C48   C70   1.418130 A    
C124  H16   1.083240 S    
C84   C95   1.411419 A    
C166  H34   1.078146 S    
C59   C64   1.413004 A    
C149  C157  1.392076 A    
N7    O61   1.301093 A    
C163  H31   1.078556 S    
C56   C61   1.414235 A    
C152  H20   1.075653 S    
Cu1   O17   1.956930 S    
C106  C146  1.417031 A    
Cu3   O27   1.976206 S    
C84   C148  1.426487 A    
C155  H23   1.077381 S    
C136  C168  1.411241 A    
C101  C149  1.415967 A    
C183  O43   1.284706 A    
C60   C63   1.413092 A    
O37   Cu9   1.971331 S    
C80   C144  1.426155 A    
C86   C94   1.415049 A    
C114  C122  1.397686 A    
C37   C41   1.414097 A    
C122  C130  1.398646 A    
C151  C159  1.389587 A    
C149  H17   1.077896 S    
O35   Cu12  1.960961 S    
Cu6   O30   1.968000 S    
O4    C15   1.300658 A    
C6    C125  1.478670 S    
O5    C10   1.311144 A    
C90   C178  1.398869 A    
C134  C142  1.412272 A    
C76   H8    1.075210 S    
C51   C68   1.412365 A    
C17   C25   1.414516 A    
C45   C71   1.406277 A    
C64   N12   1.436179 S    
C106  C114  1.433177 A    
C47   C69   1.416921 A    
C84   C92   1.413101 A    
C85   C93   1.403848 A    
Cu1   Cu6   2.683535 S    
C169  C177  1.384381 A    
C138  C170  1.415924 A    
C134  C166  1.415754 A    
Cu3   Cu8   2.669431 S    
N11   O69   1.302923 A    
C88   C96   1.425744 A    
C105  C153  1.415921 A    
O10   C5    1.309381 A    
O14   Cu6   1.952886 S    
O15   C4    1.309824 A    
Cu9   O48   1.973264 S    
C19   C74   1.400068 A    
Cu10  O47   1.973267 S    
C111  C181  1.475300 S    
N6    O60   1.301297 A    
C3    C132  1.493744 S    
O14   C1    1.309313 A    
Cu12  O42   1.965156 S    
C98   C157  1.400108 A    
C1    C130  1.482401 S    
C169  H37   1.076843 S    
C49   C67   1.410324 A    
Cu4   O20   1.957050 S    
C44   C68   1.423524 A    
Cu5   O21   1.956930 S    
C4    O20   1.282862 A    
C165  C173  1.384141 A    
C180  H48   1.078184 S    
C129  C137  1.423809 A    
C101  C109  1.429494 A    
C102  C142  1.417034 A    
C83   C96   1.419596 A    
C26   C28   1.408837 A    
C104  C112  1.428966 A    
O2    Cu2   1.961479 S    
N1    O49   1.301140 A    
C92   C100  1.426243 A    
N5    O57   1.301097 A    
C88   C176  1.408456 A    
C91   C99   1.411722 A    
C135  C143  1.416832 A    
C168  C176  1.393521 A    
C133  C165  1.414462 A    
C178  H46   1.082287 S    
C117  H9    1.083473 S    
C20   C34   1.404779 A    
C29   C31   1.413804 A    
C31   N2    1.435106 S    
C46   C54   1.433829 A    
C9    C58   1.499502 S    
C2    O18   1.289526 A    
C119  C127  1.392747 A    
C7    O23   1.286748 A    
N9    O66   1.302712 A    
C92   C180  1.408601 A    
N2    O52   1.301225 A    
C171  H39   1.079159 S    
C86   C174  1.399005 A    
C77   C141  1.417511 A    
O16   Cu8   1.953437 S    
O30   C14   1.294399 A    
C20   C73   1.399968 A    
C45   C65   1.413506 A    
C78   C86   1.410209 A    
C18   C26   1.414369 A    
C113  C121  1.396726 A    
N7    O62   1.301291 A    
C103  C143  1.409966 A    
C96   C163  1.405073 A    
C99   C160  1.399192 A    
C120  C128  1.400297 A    
C51   C73   1.414562 A    
C49   C57   1.431183 A    
C46   C72   1.415701 A    
O1    C14   1.310344 A    
C94   C161  1.400040 A    
N8    O63   1.301075 A    
O3    C16   1.309491 A    
C52   C67   1.412361 A    
C158  H26   1.083074 S    
C165  H33   1.076756 S    
Cu2   O18   1.956931 S    
O8    C11   1.310637 A    
C132  C140  1.432360 A    
O9    Cu1   1.952886 S    
O36   Cu11  1.960961 S    
C18   C75   1.399273 A    
C89   C177  1.397093 A    
C85   C173  1.396791 A    
C108  C148  1.414711 A    
C100  C159  1.405279 A    
C52   C60   1.435575 A    
O31   C15   1.288144 A    
C23   C37   1.405621 A    
C77   C85   1.406529 A    
O32   C16   1.286144 A    
C10   C57   1.499247 S    
C131  C139  1.429495 A    
O38   Cu10  1.971328 S    
C61   N9    1.437529 S    
C40   C41   1.406830 A    
C127  C135  1.429801 A    
C171  C179  1.388953 A    
C12   C59   1.502027 S    
C154  C162  1.382909 A    
C123  C131  1.392779 A    
C90   C98   1.414918 A    
C117  C125  1.397486 A    
C23   C70   1.408097 A    
C107  C155  1.410418 A    
C121  C129  1.397500 A    
C156  H24   1.075755 S    
O28   C12   1.288073 A    
C47   C66   1.412825 A    
C124  C132  1.400365 A    
Cu7   O23   1.957051 S    
O15   Cu7   1.953437 S    
C87   C95   1.412042 A    
Cu8   O24   1.957050 S    
C43   C67   1.423420 A    
C24   C32   1.414573 A    
O6    C9    1.311167 A    
Cu1   O25   1.968000 S    
C172  C180  1.393909 A    
C74   H6    1.073989 S    
C167  H35   1.079076 S    
Cu9   O45   1.965156 S    
C108  C116  1.429048 A    
C152  C160  1.385458 A    
C185  O45   1.287393 A    
C30   C32   1.406779 A    
C6    O22   1.289534 A    
C52   C74   1.414467 A    
C58   C64   1.413916 A    
C113  C187  1.483153 S    
C54   C62   1.412325 A    
C101  C141  1.412167 A    
O39   C185  1.304194 A    
