data_mof_unit_21295.cif
_audit_creation_date              2012-12-10T20:28:45-0500
_audit_creation_method            fapswitch 2.2
_symmetry_space_group_name_H-M    P1
_symmetry_Int_Tables_number       1
_space_group_crystal_system       triclinic
_cell_length_a                    10.67855
_cell_length_b                    10.683716
_cell_length_c                    9.854751
_cell_angle_alpha                 89.623789
_cell_angle_beta                  89.773169
_cell_angle_gamma                 89.86463
_cell_volume                      1124.25887482

loop_
_atom_site_label
_atom_site_type_symbol
_atom_type_description
_atom_site_fract_x
_atom_site_fract_y
_atom_site_fract_z
_atom_type_partial_charge
C1    C     C_R   0.498134 0.260017 0.500524 0.879195
C2    C     C_R   0.434739 0.935909 0.391156 -0.191259
C3    C     C_R   0.486774 0.871336 0.501479 -0.070324
C4    C     C_R   0.259618 0.510054 0.500771 0.862387
C5    C     C_R   0.521125 0.934958 0.618153 0.064755
C6    C     C_3   0.637713 0.926914 0.701931 -0.000291
C7    C     C_3   0.637125 0.068970 0.701267 -0.509538
C8    C     C_R   0.409732 0.436684 0.072084 0.174941
C9    C     C_R   0.579912 0.574656 0.069268 0.184488
C10   C     C_R   0.579897 0.573544 0.925770 -0.194782
C11   C     C_R   0.409179 0.437438 0.929541 0.205459
C12   C     C_R   0.058605 0.517176 0.628225 0.072402
C13   C     C_3   0.382167 0.300974 0.923753 -0.483527
C14   C     C_3   0.384683 0.299626 0.077791 -0.516238
C15   C     C_R   0.497770 0.739752 0.499762 0.927948
C16   C     C_R   0.739206 0.484381 0.500830 0.947452
C17   C     C_R   0.108547 0.562884 0.751272 -0.137820
C18   C     C_R   0.050602 0.535758 0.874846 -0.160776
C19   C     C_R   0.944674 0.460529 0.877719 -0.183311
C20   C     C_R   0.888590 0.423476 0.756050 0.133651
C21   C     C_R   0.937948 0.467017 0.629772 0.110136
C22   C     C_R   0.125066 0.516040 0.503455 -0.112872
C23   C     C_R   0.063069 0.495568 0.380967 -0.194391
C24   C     C_R   0.936762 0.474984 0.381279 -0.189101
C25   C     C_R   0.872636 0.465662 0.504521 -0.119790
C26   C     C_R   0.519801 0.062406 0.619363 0.074071
C27   C     C_R   0.485735 0.128230 0.503042 -0.067115
C28   C     C_R   0.433926 0.065449 0.392155 -0.208333
H1    H     H_    0.111762 0.495972 0.284255 0.166682
H2    H     H_    0.091279 0.568173 0.968709 0.147846
H3    H     H_    0.906131 0.430501 0.974389 0.142335
H4    H     H_    0.889169 0.468796 0.284653 0.180587
H5    H     H_    0.397816 0.115714 0.305067 0.159764
H6    H     H_    0.399800 0.887031 0.303102 0.170262
H7    H     H_    0.618955 0.886199 0.804108 0.154951
H8    H     H_    0.722171 0.360024 0.826651 0.207461
H9    H     H_    0.831914 0.249120 0.803767 0.176049
H10   H     H_    0.621014 0.109077 0.803536 0.182390
H11   H     H_    0.715714 0.111557 0.643028 0.229173
H12   H     H_    0.645822 0.630591 0.869327 0.189986
H13   H     H_    0.287863 0.282007 0.881292 0.210198
H14   H     H_    0.459725 0.246613 0.877324 0.213537
H15   H     H_    0.292203 0.278197 0.124487 0.202504
H16   H     H_    0.465082 0.245695 0.119466 0.217633
H17   H     H_    0.191224 0.621052 0.753287 0.162782
I1    I     I_    0.798378 0.849104 0.600070 -0.351275
I2    I     I_    0.709756 0.698299 0.158626 -0.344091
N1    N     N_R   0.499160 0.499140 0.142800 -0.128894
N2    N     N_R   0.499160 0.499180 0.857150 -0.131140
N3    N     N_3   0.792817 0.329871 0.760757 -0.458171
O1    O     O_R   0.500020 0.316790 0.614690 -0.618049
O2    O     O_R   0.500000 0.316760 0.385350 -0.628783
O3    O     O_R   0.316770 0.500020 0.614690 -0.628005
O4    O     O_R   0.316760 0.499980 0.385350 -0.623573
O5    O     O_R   0.500000 0.683240 0.614650 -0.625905
O6    O     O_R   0.499980 0.683210 0.385310 -0.593242
O7    O     O_R   0.683240 0.500020 0.614650 -0.602250
O8    O     O_R   0.683230 0.499980 0.385310 -0.597137
Zn1   Zn    Zn3+2 0.500010 0.500020 0.653130 0.946742
Zn2   Zn    Zn3+2 0.499990 0.499980 0.346870 0.972216

loop_
_geom_bond_atom_site_label_1
_geom_bond_atom_site_label_2
_ccdc_geom_bond_type
C12   C17   A    
C8    C14   S    
C23   C24   A    
C8    N1    A    
N1    Zn2   S    
C6    C7    S    
C11   N2    A    
O5    Zn1   S    
C4    O3    A    
C11   C13   S    
C9    C10   A    
C19   C20   A    
N2    Zn1   S    
C17   C18   A    
O4    Zn2   S    
C19   H3    S    
C15   O6    A    
C2    H6    S    
C24   H4    S    
C2    C3    A    
O3    Zn1   S    
H8    N3    S    
C16   O8    A    
C13   C14   S    
C6    H7    S    
C2    C28   A    
H9    N3    S    
C1    O1    A    
C26   C27   A    
C7    C26   S    
C8    C11   A    
C18   H2    S    
C23   H1    S    
C7    H11   S    
C14   H16   S    
C13   H14   S    
C7    H10   S    
C17   H17   S    
C28   H5    S    
C9    I2    S    
C16   O7    A    
C6    I1    S    
C5    C6    S    
C1    O2    A    
O7    Zn1   S    
O1    Zn1   S    
O8    Zn2   S    
C5    C26   A    
C12   C22   A    
C16   C25   S    
C3    C15   S    
C24   C25   A    
C9    N1    A    
C10   H12   S    
C18   C19   A    
C27   C28   A    
C1    C27   S    
C4    C22   S    
C21   C25   A    
C13   H13   S    
C20   N3    S    
O2    Zn2   S    
C4    O4    A    
C20   C21   A    
C22   C23   A    
C10   N2    A    
C12   C21   A    
O6    Zn2   S    
C14   H15   S    
C3    C5    A    
C15   O5    A    
