data_mof_unit_24935.cif
_audit_creation_date              2012-10-26T21:06:35-0400
_audit_creation_method            fapswitch 2.2
_symmetry_space_group_name_H-M    P1
_symmetry_Int_Tables_number       1
_space_group_crystal_system       triclinic
_cell_length_a                    15.86108
_cell_length_b                    10.822461
_cell_length_c                    9.507336
_cell_angle_alpha                 89.95847
_cell_angle_beta                  90.242738
_cell_angle_gamma                 90.539793
_cell_volume                      1631.90305118

loop_
_atom_site_label
_atom_site_type_symbol
_atom_type_description
_atom_site_fract_x
_atom_site_fract_y
_atom_site_fract_z
_atom_type_partial_charge
C1    C     C_R   0.502152 0.262251 0.499837 0.544771
C2    C     C_R   0.554691 0.573921 0.074799 0.012926
C3    C     C_R   0.339759 0.499993 0.499741 0.545025
C4    C     C_R   0.660241 0.500003 0.500259 0.545191
C5    C     C_3   0.971531 0.419801 0.598142 -0.100651
C6    C     C_3   0.028469 0.580194 0.401861 -0.100648
C7    C     C_3   0.026394 0.387020 0.469911 0.049255
C8    C     C_3   0.973607 0.612976 0.530092 0.049249
C9    C     C_1   0.250098 0.499950 0.499304 -0.049180
C10   C     C_1   0.749903 0.500045 0.500696 -0.049014
C11   C     C_3   0.029150 0.533750 0.628066 -0.101586
C12   C     C_R   0.497830 0.737747 0.500161 0.544638
C13   C     C_3   0.970851 0.466245 0.371937 -0.101569
C14   C     C_3   0.082911 0.499690 0.499496 0.039207
C15   C     C_3   0.917090 0.500305 0.500507 0.039201
C16   C     C_1   0.174568 0.499823 0.499259 -0.079225
C17   C     C_1   0.825433 0.500171 0.500743 -0.079165
C18   C     C_R   0.537691 0.061925 0.385219 -0.032232
C19   C     C_R   0.462186 0.938061 0.614752 -0.032120
C20   C     C_3   0.058809 0.258139 0.435433 -0.275060
C21   C     C_3   0.986296 0.166907 0.411448 -0.448575
C22   C     C_3   0.941190 0.741856 0.564568 -0.275074
C23   C     C_R   0.532323 0.933934 0.386480 -0.159943
C24   C     C_3   0.013703 0.833091 0.588545 -0.448560
C25   C     C_R   0.580920 0.122780 0.265480 0.053621
C26   C     C_R   0.545693 0.116443 0.129894 -0.104631
C27   C     C_R   0.584510 0.178048 0.017808 -0.116953
C28   C     C_R   0.658655 0.246172 0.040384 -0.095438
C29   C     C_R   0.694440 0.252157 0.174920 -0.097850
C30   C     C_R   0.655925 0.190440 0.287213 -0.058525
C31   C     C_R   0.418834 0.877190 0.734398 0.053406
C32   C     C_R   0.344165 0.808814 0.712318 -0.057998
C33   C     C_R   0.305587 0.747020 0.824500 -0.097617
C34   C     C_R   0.467572 0.066061 0.613501 -0.159844
C35   C     C_R   0.340927 0.753688 0.959303 -0.095660
C36   C     C_R   0.414698 0.822590 0.982257 -0.117033
C37   C     C_R   0.453602 0.884234 0.870260 -0.104962
C38   C     C_R   0.495921 0.871651 0.500455 -0.003297
C39   C     C_R   0.504001 0.128343 0.499533 -0.003241
C40   C     C_R   0.445269 0.426084 0.074098 0.021000
C41   C     C_R   0.554712 0.573947 0.925902 0.021049
C42   C     C_R   0.445292 0.426106 0.925200 0.012692
Cu1   Cu    Cu3+1 0.500000 0.500020 0.640660 0.935045
Cu2   Cu    Cu3+1 0.500000 0.499980 0.359340 0.935184
H1    H     H_    0.947134 0.353671 0.677819 0.097144
H2    H     H_    0.598288 0.633435 0.131257 0.102969
H3    H     H_    0.947329 0.158349 0.507806 0.146228
H4    H     H_    0.945924 0.197878 0.322680 0.147409
H5    H     H_    0.012018 0.074696 0.385451 0.134400
H6    H     H_    0.098141 0.263308 0.339188 0.141807
H7    H     H_    0.098712 0.225176 0.523857 0.141635
H8    H     H_    0.054076 0.802125 0.677314 0.147458
H9    H     H_    0.052667 0.841647 0.492185 0.146231
H10   H     H_    0.987980 0.925303 0.614539 0.134399
H11   H     H_    0.901285 0.774815 0.476146 0.141631
H12   H     H_    0.052866 0.646324 0.322184 0.097142
H13   H     H_    0.901861 0.736688 0.660816 0.141815
H14   H     H_    0.487378 0.065980 0.111873 0.095753
H15   H     H_    0.556658 0.174012 0.913729 0.112404
H16   H     H_    0.688225 0.294573 0.953716 0.110507
H17   H     H_    0.751782 0.305139 0.192404 0.098029
H18   H     H_    0.683810 0.196561 0.391233 0.090454
H19   H     H_    0.316616 0.802167 0.608110 0.090448
H20   H     H_    0.248544 0.693451 0.806747 0.098198
H21   H     H_    0.311293 0.705224 0.045887 0.110399
H22   H     H_    0.442191 0.827177 0.086565 0.112465
H23   H     H_    0.945845 0.437889 0.267486 0.094921
H24   H     H_    0.511646 0.935246 0.888567 0.096002
H25   H     H_    0.054156 0.562106 0.732516 0.094901
H26   H     H_    0.559348 0.882619 0.299939 0.120590
H27   H     H_    0.440513 0.117390 0.700010 0.120418
H28   H     H_    0.401686 0.366520 0.130000 0.108860
H29   H     H_    0.598288 0.633523 0.870000 0.108909
H30   H     H_    0.401691 0.366597 0.868743 0.102912
N1    N     N_R   0.500020 0.500030 0.852070 -0.219368
N2    N     N_R   0.499980 0.499970 0.147930 -0.219313
O1    O     O_R   0.500000 0.319660 0.618740 -0.516172
O2    O     O_R   0.500000 0.680340 0.381260 -0.516142
O3    O     O_R   0.499990 0.319630 0.381170 -0.486863
O4    O     O_R   0.500010 0.680370 0.618830 -0.486895
O5    O     O_R   0.379080 0.500000 0.618760 -0.496425
O6    O     O_R   0.620920 0.500000 0.381240 -0.496308
O7    O     O_R   0.379080 0.499970 0.381190 -0.502372
O8    O     O_R   0.620920 0.500030 0.618810 -0.502387

loop_
_geom_bond_atom_site_label_1
_geom_bond_atom_site_label_2
_ccdc_geom_bond_type
C24   H8    S    
C1    O1    A    
C35   C36   A    
Cu1   Cu2   S    
Cu2   O7    S    
C19   C31   S    
C22   H13   S    
C21   H5    S    
C2    H2    S    
C26   C27   A    
C28   C29   A    
C9    C16   T    
C5    C11   S    
C20   H7    S    
Cu2   O6    S    
C33   H20   S    
C11   C14   S    
C36   H22   S    
C6    C14   S    
C35   H21   S    
C10   C17   T    
C24   H10   S    
C37   H24   S    
Cu2   N2    S    
C20   H6    S    
C7    C14   S    
C40   N2    A    
C12   O2    A    
C3    O5    A    
C8    C22   S    
C21   H4    S    
C40   C42   A    
Cu1   O8    S    
C23   H26   S    
C18   C25   S    
C25   C26   A    
C28   H16   S    
Cu1   N1    S    
C29   H17   S    
C42   H30   S    
C18   C23   A    
C5    C7    S    
C6    C8    S    
C24   H9    S    
C5    H1    S    
C34   C39   A    
C18   C39   A    
C29   C30   A    
C3    C9    S    
C19   C38   A    
C41   N1    A    
C31   C32   A    
C4    O8    A    
C42   N1    A    
C26   H14   S    
C8    C15   S    
C13   C15   S    
C3    O7    A    
Cu1   O5    S    
C22   C24   S    
C4    C10   S    
C2    N2    A    
C13   H23   S    
C25   C30   A    
C15   C17   S    
C36   C37   A    
C40   H28   S    
Cu2   O3    S    
C32   H19   S    
C6    H12   S    
C19   C34   A    
C11   H25   S    
C22   H11   S    
Cu1   O1    S    
C23   C38   A    
C32   C33   A    
C30   H18   S    
Cu1   O4    S    
C27   H15   S    
C6    C13   S    
C8    C11   S    
C1    O3    A    
C12   O4    A    
Cu2   O2    S    
C33   C35   A    
C14   C16   S    
C12   C38   S    
C5    C15   S    
C1    C39   S    
C41   H29   S    
C31   C37   A    
C7    C13   S    
C4    O6    A    
C20   C21   S    
C7    C20   S    
C27   C28   A    
C2    C41   A    
C34   H27   S    
C21   H3    S    
