data_mof_unit_27902.cif
_audit_creation_date              2012-12-11T16:27:32-0500
_audit_creation_method            fapswitch 2.2
_symmetry_space_group_name_H-M    P1
_symmetry_Int_Tables_number       1
_space_group_crystal_system       triclinic
_cell_length_a                    21.79942
_cell_length_b                    6.952072
_cell_length_c                    14.832464
_cell_angle_alpha                 89.99899
_cell_angle_beta                  104.556321
_cell_angle_gamma                 89.999623
_cell_volume                      2175.72230989

loop_
_atom_site_label
_atom_site_type_symbol
_atom_type_description
_atom_site_fract_x
_atom_site_fract_y
_atom_site_fract_z
_atom_type_partial_charge
O1    O     O_R   0.835850 0.638310 0.002120 -0.538491
O2    O     O_R   0.164150 0.361690 0.997880 -0.538942
O3    O     O_R   0.664150 0.138310 0.997880 -0.538502
O4    O     O_R   0.335850 0.861690 0.002120 -0.538936
O5    O     O_R   0.717530 0.306070 0.861970 -0.555400
O6    O     O_R   0.282470 0.693930 0.138030 -0.555199
O7    O     O_R   0.782470 0.806070 0.138030 -0.555388
O8    O     O_R   0.217530 0.193930 0.861970 -0.555203
C1    C     C_R   0.705803 0.475631 0.824849 0.716934
C2    C     C_R   0.296824 0.523806 0.174250 0.737888
C3    C     C_R   0.794194 0.975628 0.175151 0.716966
C4    C     C_R   0.203181 0.023812 0.825749 0.737907
O9    O     O_R   0.838690 0.308440 0.993250 -0.539930
O10   O     O_R   0.161310 0.691560 0.006750 -0.541226
O11   O     O_R   0.661310 0.808440 0.006750 -0.539918
O12   O     O_R   0.338690 0.191560 0.993250 -0.541210
O13   O     O_R   0.786170 0.140510 0.130090 -0.523706
O14   O     O_R   0.213830 0.859490 0.869910 -0.528549
O15   O     O_R   0.713830 0.640510 0.869910 -0.523681
O16   O     O_R   0.286170 0.359490 0.130090 -0.528550
C5    C     C_R   0.864716 0.480235 0.993918 0.693369
C6    C     C_R   0.135042 0.521081 0.003684 0.705226
C7    C     C_R   0.635281 0.980236 0.006068 0.693396
C8    C     C_R   0.364959 0.021082 0.996322 0.705191
O17   O     O_3   0.732630 0.472520 0.044740 -0.362218
O18   O     O_3   0.267370 0.527480 0.955260 -0.366299
O19   O     O_3   0.767370 0.972520 0.955260 -0.362218
O20   O     O_3   0.232630 0.027480 0.044740 -0.366324
V1    V     V_3+5 0.753220 0.196740 0.991700 1.471130
V2    V     V_3+5 0.246780 0.803260 0.008300 1.458161
V3    V     V_3+5 0.746780 0.696740 0.008300 1.471174
V4    V     V_3+5 0.253220 0.303260 0.991700 1.458194
H1    H     H_    0.598550 0.978585 0.328422 0.119377
H2    H     H_    0.402727 0.083202 0.678773 0.125425
H3    H     H_    0.901470 0.478912 0.671562 0.119450
H4    H     H_    0.097272 0.582754 0.321260 0.125416
C9    C     C_R   0.540206 0.119613 0.844566 -0.178563
C10   C     C_R   0.459586 0.936039 0.166262 -0.167820
C11   C     C_R   0.959790 0.619265 0.155481 -0.178471
C12   C     C_R   0.040418 0.436151 0.833736 -0.167960
C13   C     C_R   0.496711 0.140628 0.758888 -0.144460
C14   C     C_R   0.503203 0.926888 0.252495 -0.130356
C15   C     C_R   0.003283 0.640188 0.241167 -0.144409
C16   C     C_R   0.996807 0.427097 0.747494 -0.130187
C17   C     C_R   0.434033 0.087664 0.748280 -0.151403
C18   C     C_R   0.566527 0.967045 0.259704 -0.151707
C19   C     C_R   0.065964 0.587285 0.251755 -0.151407
C20   C     C_R   0.933486 0.467288 0.740282 -0.151576
C21   C     C_R   0.413402 0.023675 0.824946 -0.034887
C22   C     C_R   0.587360 0.009588 0.180183 -0.037209
C23   C     C_R   0.086598 0.523441 0.175068 -0.034915
C24   C     C_R   0.912646 0.509734 0.819807 -0.037318
C25   C     C_R   0.455101 0.028931 0.915808 0.036189
C26   C     C_R   0.545492 0.990212 0.090033 0.035104
C27   C     C_R   0.044899 0.528800 0.084205 0.036136
C28   C     C_R   0.954509 0.490287 0.909960 0.035051
C29   C     C_R   0.521134 0.052091 0.923001 0.061062
C30   C     C_R   0.479200 0.974287 0.084175 0.057287
C31   C     C_R   0.978866 0.551929 0.077017 0.061037
C32   C     C_R   0.020801 0.474349 0.915823 0.057301
C33   C     C_R   0.433777 0.003303 0.998013 -0.181523
C34   C     C_R   0.566568 0.004578 0.006760 -0.176037
C35   C     C_R   0.066223 0.503294 0.001991 -0.181491
C36   C     C_R   0.933431 0.504560 0.993236 -0.176033
H5    H     H_    0.589299 0.145751 0.846521 0.124357
H6    H     H_    0.410333 0.912931 0.164988 0.114672
H7    H     H_    0.910694 0.645330 0.153536 0.124290
H8    H     H_    0.089671 0.413000 0.835016 0.114717
H9    H     H_    0.513342 0.177698 0.698431 0.141649
H10   H     H_    0.487196 0.898296 0.314648 0.136945
H11   H     H_    0.986652 0.677165 0.301637 0.141608
H12   H     H_    0.012818 0.398553 0.685340 0.136938
C37   C     C_R   0.172757 0.020920 0.725829 -0.075240
C38   C     C_R   0.823845 0.972178 0.275919 -0.065403
C39   C     C_R   0.327235 0.520883 0.274177 -0.075294
C40   C     C_R   0.676155 0.472178 0.724080 -0.065343
C41   C     C_R   0.179732 0.108213 0.572461 -0.178364
C42   C     C_R   0.814669 0.882545 0.428552 -0.177074
C43   C     C_R   0.320261 0.608284 0.427528 -0.178354
C44   C     C_R   0.685303 0.382165 0.571483 -0.177073
C45   C     C_R   0.205989 0.103009 0.666970 -0.189556
C46   C     C_R   0.786930 0.916485 0.335441 -0.190950
C47   C     C_R   0.294002 0.603010 0.333023 -0.189557
C48   C     C_R   0.713055 0.416257 0.664576 -0.190981
C49   C     C_R   0.109902 0.952152 0.690669 0.201765
C50   C     C_R   0.890345 0.988249 0.309602 0.206111
C51   C     C_R   0.390081 0.452049 0.309353 0.201875
C52   C     C_R   0.609662 0.488420 0.690388 0.206140
C53   C     C_R   0.079166 0.973881 0.592803 0.041323
C54   C     C_R   0.920872 0.950501 0.406243 0.038277
C55   C     C_R   0.420816 0.473780 0.407221 0.041347
C56   C     C_R   0.579121 0.450503 0.593770 0.038214
C57   C     C_R   0.117731 0.044670 0.535297 0.100236
C58   C     C_R   0.880379 0.898333 0.464020 0.101123
C59   C     C_R   0.382261 0.544736 0.464705 0.100212
C60   C     C_R   0.619596 0.398028 0.536018 0.101118
C61   C     C_R   0.012788 0.935051 0.548324 0.067533
C62   C     C_R   0.988618 0.963706 0.449212 0.056418
C63   C     C_R   0.487187 0.434845 0.451717 0.067538
C64   C     C_R   0.511374 0.463774 0.550806 0.056406
C65   C     C_R   0.033607 0.002473 0.397714 -0.195892
C66   C     C_R   0.969077 0.873856 0.598216 -0.187064
C67   C     C_R   0.466399 0.502798 0.602293 -0.195876
C68   C     C_R   0.530873 0.373195 0.401874 -0.187192
C69   C     C_R   0.095353 0.049055 0.439584 -0.213121
C70   C     C_R   0.905089 0.857743 0.557492 -0.216673
C71   C     C_R   0.404650 0.549322 0.560413 -0.213112
C72   C     C_R   0.594864 0.357118 0.442586 -0.216575
H13   H     H_    0.126372 0.088609 0.395638 0.141904
H14   H     H_    0.874119 0.813663 0.600707 0.137372
H15   H     H_    0.373641 0.589030 0.604348 0.141918
H16   H     H_    0.625818 0.312730 0.399402 0.137316
H17   H     H_    0.736453 0.893858 0.309228 0.130856
H18   H     H_    0.253476 0.158773 0.694278 0.135240
H19   H     H_    0.763527 0.393542 0.690798 0.130855
H20   H     H_    0.246519 0.658794 0.305704 0.135229
H21   H     H_    0.207950 0.165520 0.527960 0.131812
H22   H     H_    0.784454 0.839673 0.473036 0.132053
H23   H     H_    0.292048 0.665677 0.472016 0.131812
H24   H     H_    0.715505 0.339069 0.527019 0.132067
H25   H     H_    0.024859 0.996384 0.323932 0.204026
H26   H     H_    0.980851 0.834866 0.669534 0.203232
H27   H     H_    0.475156 0.496907 0.676079 0.203996
H28   H     H_    0.519071 0.333689 0.330619 0.203284
C73   C     C_1   0.357487 0.904840 0.803867 0.230531
N1    N     N_1   0.313938 0.804083 0.785336 -0.351363
C74   C     C_1   0.643365 0.127381 0.195537 0.219129
N2    N     N_1   0.686947 0.228049 0.209383 -0.342465
C75   C     C_1   0.142522 0.404639 0.196117 0.230547
N3    N     N_1   0.186078 0.303904 0.214628 -0.351308
C76   C     C_1   0.856625 0.627459 0.804459 0.219152
N4    N     N_1   0.813029 0.728072 0.790611 -0.342488
N5    N     N_2   0.925099 0.037871 0.244336 -0.563142
H29   H     H_    0.910547 0.975550 0.179495 0.254393
C77   C     C_3   0.936451 0.239990 0.238762 -0.543618
H30   H     H_    0.972625 0.257421 0.198713 0.218841
H31   H     H_    0.892051 0.315038 0.203189 0.208246
H32   H     H_    0.955091 0.302816 0.309257 0.212060
N6    N     N_2   0.082317 0.844445 0.752029 -0.550927
H33   H     H_    0.109659 0.729438 0.782042 0.271265
C78   C     C_3   0.057662 0.954110 0.818406 -0.549743
H34   H     H_    0.095721 0.030668 0.869269 0.194378
H35   H     H_    0.033763 0.855808 0.857578 0.210050
H36   H     H_    0.021889 0.058431 0.781429 0.211419
N7    N     N_2   0.574926 0.538357 0.755627 -0.563162
H37   H     H_    0.589447 0.476151 0.820500 0.254382
C79   C     C_3   0.563609 0.740521 0.761073 -0.543698
H38   H     H_    0.527384 0.758118 0.801008 0.218895
H39   H     H_    0.545044 0.803229 0.690538 0.212040
H40   H     H_    0.608001 0.815539 0.796697 0.208258
N8    N     N_2   0.417675 0.344431 0.247977 -0.551054
H41   H     H_    0.390316 0.229539 0.217856 0.271250
C80   C     C_3   0.442424 0.454223 0.181739 -0.549494
H42   H     H_    0.404429 0.531360 0.131018 0.194251
H43   H     H_    0.466197 0.355920 0.142392 0.209995
H44   H     H_    0.478324 0.558060 0.218860 0.211545

loop_
_geom_bond_atom_site_label_1
_geom_bond_atom_site_label_2
_ccdc_geom_bond_type
O17   V3    S    
C77   H32   S    
C44   H24   S    
O1    C5    A    
C8    C33   S    
C12   C32   A    
C27   C31   A    
O19   V1    S    
O13   V1    S    
O3    C7    A    
C79   H38   S    
O1    V3    S    
C44   C48   A    
C67   H27   S    
C40   C48   A    
C61   C62   A    
C23   C75   S    
C77   H30   S    
O7    C3    A    
C31   C36   A    
C22   C26   A    
C32   C35   A    
O9    V1    S    
C79   H39   S    
O10   V2    S    
C10   C14   A    
C20   C24   A    
C41   H21   S    
C78   H35   S    
N7    H37   S    
O4    C8    A    
C56   C60   A    
H4    C19   S    
O2    V4    S    
C14   C18   A    
O3    V1    S    
C53   C61   A    
C5    C36   S    
C57   C69   A    
C6    C35   S    
C10   C30   A    
C25   C33   A    
C1    O15   A    
C7    C34   S    
C58   C70   A    
C49   N6    S    
C10   H6    S    
C2    O16   A    
C27   C35   A    
C45   H18   S    
O2    C6    A    
N8    H41   S    
C28   C36   A    
C66   C70   A    
O14   V2    S    
C1    C40   S    
C41   C45   A    
C44   C60   A    
C40   C52   A    
C61   C66   A    
C30   C33   A    
O11   C7    A    
C63   C68   A    
C60   C72   A    
O15   V3    S    
O12   C8    A    
C51   N8    S    
C4    C37   S    
O17   V1    S    
H1    C18   S    
C11   H7    S    
C38   C46   A    
H3    C20   S    
C37   C45   A    
N7    C79   S    
C54   C58   A    
O5    V1    S    
C65   C69   A    
O7    V3    S    
C51   C55   A    
O19   V3    S    
O8    V4    S    
C52   C56   A    
O20   V4    S    
C79   H40   S    
C50   C54   A    
C78   H36   S    
C25   C29   A    
O18   V4    S    
C19   C23   A    
C26   C34   A    
C29   C34   A    
C64   C67   A    
C65   H25   S    
C72   H16   S    
C43   H23   S    
C14   H10   S    
C43   C59   A    
C2    C39   S    
C42   C46   A    
C50   N5    S    
C63   C64   A    
C17   C21   A    
O8    C4    A    
C11   C31   A    
C26   C30   A    
C52   N7    S    
O9    C5    A    
H2    C17   S    
C38   C50   A    
C80   H44   S    
C37   C49   A    
C59   C71   A    
C9    H5    S    
O6    V2    S    
O18   V2    S    
C48   H19   S    
C49   C53   A    
N5    H29   S    
C80   H43   S    
C74   N2    T    
C9    C13   A    
C68   C72   A    
C56   C64   A    
C13   H9    S    
C75   N3    T    
O16   V4    S    
C39   C51   A    
C77   H31   S    
C69   H13   S    
C3    O13   A    
C15   H11   S    
C42   H22   S    
C24   C76   S    
C71   H15   S    
C47   H20   S    
C46   H17   S    
O5    C1    A    
C3    C38   S    
O6    C2    A    
C11   C15   A    
N6    H33   S    
O11   V3    S    
C68   H28   S    
O12   V4    S    
C62   C65   A    
C21   C73   S    
C18   C22   A    
O10   C6    A    
O20   V2    S    
C78   H34   S    
C43   C47   A    
N6    C78   S    
C39   C47   A    
C73   N1    T    
C42   C58   A    
C21   C25   A    
C41   C57   A    
C16   H12   S    
C23   C27   A    
N8    C80   S    
C53   C57   A    
C76   N4    T    
O4    V2    S    
C55   C59   A    
C16   C20   A    
C12   C16   A    
C28   C32   A    
C70   H14   S    
C12   H8    S    
C4    O14   A    
N5    C77   S    
C13   C17   A    
C67   C71   A    
C22   C74   S    
C55   C63   A    
C80   H42   S    
C66   H26   S    
C15   C19   A    
C54   C62   A    
C9    C29   A    
C24   C28   A    
