data_mof_unit_35902.cif
_audit_creation_date              2012-12-11T14:42:03-0500
_audit_creation_method            fapswitch 2.2
_symmetry_space_group_name_H-M    P1
_symmetry_Int_Tables_number       1
_space_group_crystal_system       triclinic
_cell_length_a                    18.86165
_cell_length_b                    10.936777
_cell_length_c                    18.663909
_cell_angle_alpha                 89.778673
_cell_angle_beta                  90.573593
_cell_angle_gamma                 90.197989
_cell_volume                      3849.85265379

loop_
_atom_site_label
_atom_site_type_symbol
_atom_type_description
_atom_site_fract_x
_atom_site_fract_y
_atom_site_fract_z
_atom_type_partial_charge
C1    C     C_R   0.728306 0.952626 0.852776 0.543251
C2    C     C_R   0.271781 0.953114 0.147124 0.535237
C3    C     C_R   0.228306 0.452626 0.852776 0.543251
C4    C     C_R   0.771781 0.453114 0.147124 0.535237
C5    C     C_R   0.688576 0.442444 0.042584 -0.140375
C6    C     C_R   0.311844 0.442042 0.956968 -0.146671
C7    C     C_R   0.188576 0.942445 0.042584 -0.140375
C8    C     C_R   0.811844 0.942042 0.956968 -0.146671
C9    C     C_R   0.747431 0.396569 0.080367 0.032287
C10   C     C_R   0.252921 0.395529 0.919414 0.030808
C11   C     C_R   0.247431 0.896569 0.080367 0.032287
C12   C     C_R   0.752921 0.895529 0.919414 0.030808
C13   C     C_R   0.790282 0.307632 0.048676 -0.127627
C14   C     C_R   0.210269 0.305724 0.951333 -0.122111
C15   C     C_R   0.290282 0.807632 0.048676 -0.127627
C16   C     C_R   0.710269 0.805724 0.951333 -0.122111
C17   C     C_R   0.780186 0.277075 0.977557 -0.130536
C18   C     C_R   0.220408 0.275283 0.022589 -0.127342
C19   C     C_R   0.280186 0.777075 0.977557 -0.130537
C20   C     C_R   0.720408 0.775283 0.022589 -0.127342
C21   C     C_R   0.726730 0.333677 0.937045 0.026429
C22   C     C_R   0.273752 0.332743 0.062896 0.021477
C23   C     C_R   0.226729 0.833677 0.937045 0.026428
C24   C     C_R   0.773752 0.832743 0.062896 0.021477
C25   C     C_R   0.459715 0.276930 0.550350 -0.128812
C26   C     C_R   0.441454 0.279098 0.478889 -0.131572
C27   C     C_R   0.959717 0.776931 0.550350 -0.128815
C28   C     C_R   0.941457 0.779099 0.478889 -0.131572
C29   C     C_R   0.443540 0.171705 0.438960 0.024698
C30   C     C_R   0.483952 0.167938 0.581684 0.032326
C31   C     C_R   0.943540 0.671705 0.438960 0.024698
C32   C     C_R   0.983952 0.667939 0.581684 0.032326
C33   C     C_R   0.456909 0.059127 0.472944 -0.128301
C34   C     C_R   0.478136 0.057448 0.544366 -0.130095
C35   C     C_R   0.956908 0.559127 0.472945 -0.128299
C36   C     C_R   0.978135 0.557448 0.544367 -0.130093
C37   C     C_R   0.785466 0.286941 0.524285 -0.132808
C38   C     C_R   0.205224 0.318593 0.470291 -0.126867
C39   C     C_R   0.285473 0.786954 0.524288 -0.132809
C40   C     C_R   0.705218 0.818601 0.470290 -0.126866
C41   C     C_R   0.793839 0.314102 0.452845 -0.131769
C42   C     C_R   0.203861 0.327761 0.543572 -0.128426
C43   C     C_R   0.293846 0.814114 0.452848 -0.131771
C44   C     C_R   0.703856 0.827765 0.543571 -0.128424
C45   C     C_R   0.527344 0.177361 0.848902 0.547424
C46   C     C_R   0.442427 0.181768 0.141216 0.545517
C47   C     C_R   0.027344 0.677361 0.848902 0.547424
C48   C     C_R   0.942427 0.681768 0.141216 0.545517
C49   C     C_R   0.748177 0.397415 0.418772 0.033507
C50   C     C_R   0.249124 0.410089 0.578368 0.035112
C51   C     C_R   0.248178 0.897414 0.418772 0.033508
C52   C     C_R   0.749124 0.910086 0.578368 0.035114
C53   C     C_R   0.688830 0.441673 0.455043 -0.132878
C54   C     C_R   0.301108 0.473192 0.539673 -0.142194
C55   C     C_R   0.188825 0.941658 0.455040 -0.132880
C56   C     C_R   0.801112 0.973183 0.539674 -0.142196
C57   C     C_R   0.678796 0.409930 0.526639 -0.131061
C58   C     C_R   0.301948 0.465413 0.465400 -0.148496
C59   C     C_R   0.178792 0.909915 0.526636 -0.131065
C60   C     C_R   0.801952 0.965406 0.465402 -0.148496
C61   C     C_R   0.729298 0.336915 0.562368 0.029064
C62   C     C_R   0.253523 0.388610 0.430364 0.034586
C63   C     C_R   0.229299 0.836915 0.562368 0.029064
C64   C     C_R   0.753522 0.888612 0.430364 0.034588
C65   C     C_R   0.723550 0.310918 0.859970 0.571812
C66   C     C_R   0.276543 0.310674 0.140122 0.553423
C67   C     C_R   0.223550 0.810918 0.859970 0.571812
C68   C     C_R   0.776543 0.810674 0.140122 0.553423
C69   C     C_R   0.728989 0.952596 0.648630 0.545248
C70   C     C_R   0.271181 0.952146 0.351573 0.543974
C71   C     C_R   0.228989 0.452597 0.648630 0.545249
C72   C     C_R   0.771181 0.452146 0.351573 0.543974
C73   C     C_R   0.526819 0.176189 0.646352 0.543680
C74   C     C_R   0.434218 0.180363 0.361982 0.573924
C75   C     C_R   0.026819 0.676189 0.646352 0.543679
C76   C     C_R   0.934218 0.680363 0.361982 0.573925
C77   C     C_R   0.724940 0.311170 0.638894 0.572064
C78   C     C_R   0.261303 0.359019 0.355264 0.555519
C79   C     C_R   0.224940 0.811170 0.638893 0.572064
C80   C     C_R   0.761302 0.859020 0.355264 0.555519
C81   C     C_2   0.483450 0.169032 0.912470 -0.107273
C82   C     C_2   0.467023 0.174298 0.067716 -0.109362
C83   C     C_2   0.983450 0.669032 0.912470 -0.107273
C84   C     C_2   0.967023 0.674298 0.067716 -0.109361
C85   C     C_2   0.456500 0.073785 0.027724 -0.159543
C86   C     C_2   0.481833 0.068365 0.953550 -0.149759
C87   C     C_2   0.956500 0.573785 0.027724 -0.159543
C88   C     C_2   0.981833 0.568365 0.953550 -0.149759
C89   C     C_R   0.678227 0.411200 0.970871 -0.136044
C90   C     C_R   0.322289 0.410744 0.028764 -0.144164
C91   C     C_R   0.178227 0.911200 0.970871 -0.136045
C92   C     C_R   0.822289 0.910744 0.028764 -0.144164
Cr1   Cr    Cr6+3 0.769270 0.163730 0.750710 1.003018
Cr2   Cr    Cr6+3 0.230730 0.163730 0.249290 1.006866
Cr3   Cr    Cr6+3 0.269270 0.663730 0.750710 1.003017
Cr4   Cr    Cr6+3 0.730730 0.663730 0.249290 1.006866
Cr5   Cr    Cr6+3 0.612620 0.009790 0.748780 1.010425
Cr6   Cr    Cr6+3 0.387380 0.009790 0.251220 1.013551
Cr7   Cr    Cr6+3 0.112620 0.509790 0.748780 1.010427
Cr8   Cr    Cr6+3 0.887380 0.509790 0.251220 1.013552
Cr9   Cr    Cr6+3 0.614160 0.322500 0.747710 1.009647
Cr10  Cr    Cr6+3 0.385840 0.322500 0.252290 1.008783
Cr11  Cr    Cr6+3 0.114160 0.822500 0.747710 1.009647
Cr12  Cr    Cr6+3 0.885840 0.822500 0.252290 1.008782
H1    H     H_    0.433207 0.991914 0.050919 0.155118
H2    H     H_    0.503789 0.982692 0.934816 0.153747
H3    H     H_    0.933207 0.491914 0.050919 0.155117
H4    H     H_    0.003789 0.482692 0.934816 0.153747
H5    H     H_    0.839693 0.277021 0.426126 0.128302
H6    H     H_    0.164200 0.275835 0.572422 0.131608
H7    H     H_    0.339705 0.777043 0.426132 0.128303
H8    H     H_    0.664192 0.775844 0.572420 0.131605
H9    H     H_    0.652633 0.505367 0.429497 0.122899
H10   H     H_    0.338805 0.532221 0.566590 0.112418
H11   H     H_    0.152624 0.005342 0.429491 0.122899
H12   H     H_    0.838813 0.032204 0.566593 0.112413
H13   H     H_    0.633797 0.447161 0.554671 0.132044
H14   H     H_    0.340959 0.517161 0.435641 0.111445
H15   H     H_    0.133788 0.947135 0.554666 0.132044
H16   H     H_    0.840966 0.017150 0.435643 0.111441
H17   H     H_    0.493115 0.254535 0.045619 0.112090
H18   H     H_    0.458616 0.252905 0.930414 0.108327
H19   H     H_    0.993114 0.754535 0.045619 0.112090
H20   H     H_    0.958617 0.752905 0.930414 0.108327
H21   H     H_    0.634628 0.452143 0.941314 0.131774
H22   H     H_    0.365835 0.452265 0.058183 0.128879
H23   H     H_    0.134628 0.952143 0.941314 0.131774
H24   H     H_    0.865835 0.952265 0.058183 0.128879
H25   H     H_    0.653133 0.507306 0.067047 0.118843
H26   H     H_    0.347104 0.507787 0.932341 0.116205
H27   H     H_    0.153133 0.007306 0.067047 0.118843
H28   H     H_    0.847103 0.007787 0.932341 0.116205
H29   H     H_    0.834855 0.267589 0.077193 0.134315
H30   H     H_    0.165708 0.265227 0.922942 0.133381
H31   H     H_    0.334854 0.767589 0.077193 0.134315
H32   H     H_    0.665708 0.765227 0.922942 0.133381
H33   H     H_    0.461542 0.363061 0.578819 0.129941
H34   H     H_    0.430594 0.366234 0.453740 0.128807
H35   H     H_    0.961545 0.863062 0.578818 0.129941
H36   H     H_    0.930598 0.866235 0.453739 0.128805
H37   H     H_    0.825259 0.231567 0.550540 0.121995
H38   H     H_    0.168796 0.254515 0.445294 0.133096
H39   H     H_    0.325270 0.731592 0.550544 0.121996
H40   H     H_    0.668784 0.754531 0.445292 0.133090
O1    O     O_R   0.784320 0.290430 0.830510 -0.508268
O2    O     O_R   0.215680 0.290430 0.169490 -0.500405
O3    O     O_R   0.284320 0.790430 0.830510 -0.508268
O4    O     O_R   0.715680 0.790430 0.169490 -0.500405
O5    O     O_R   0.554640 0.080370 0.673500 -0.500947
O6    O     O_R   0.445360 0.080370 0.326500 -0.491192
O7    O     O_R   0.054640 0.580370 0.673500 -0.500947
O8    O     O_R   0.945360 0.580370 0.326500 -0.491192
O9    O     O_R   0.543920 0.282180 0.666790 -0.535698
O10   O     O_R   0.456080 0.282180 0.333210 -0.507991
O11   O     O_R   0.043920 0.782180 0.666790 -0.535700
O12   O     O_R   0.956080 0.782180 0.333210 -0.507993
O13   O     O_R   0.679040 0.374160 0.674430 -0.493797
O14   O     O_R   0.320960 0.374160 0.325570 -0.518178
O15   O     O_R   0.179040 0.874160 0.674430 -0.493796
O16   O     O_R   0.820960 0.874160 0.325570 -0.518177
O17   O     O_3   0.665350 0.165340 0.749070 -0.282356
O18   O     O_3   0.334650 0.165340 0.250930 -0.306931
O19   O     O_3   0.165350 0.665340 0.749070 -0.282356
O20   O     O_3   0.834650 0.665340 0.250930 -0.306930
O21   O     O_R   0.762640 0.040960 0.825200 -0.523377
O22   O     O_R   0.237360 0.040960 0.174800 -0.521232
O23   O     O_R   0.262640 0.540960 0.825200 -0.523377
O24   O     O_R   0.737360 0.540960 0.174800 -0.521232
O25   O     O_R   0.667400 0.923970 0.829950 -0.518893
O26   O     O_R   0.332600 0.923970 0.170050 -0.530311
O27   O     O_R   0.167400 0.423970 0.829950 -0.518893
O28   O     O_R   0.832600 0.423970 0.170050 -0.530311
O29   O     O_R   0.553960 0.081340 0.821780 -0.492615
O30   O     O_R   0.446040 0.081340 0.178220 -0.474202
O31   O     O_R   0.053960 0.581340 0.821780 -0.492615
O32   O     O_R   0.946040 0.581340 0.178220 -0.474202
O33   O     O_R   0.543180 0.283240 0.826740 -0.528010
O34   O     O_R   0.456820 0.283240 0.173260 -0.510493
O35   O     O_R   0.043180 0.783240 0.826740 -0.528010
O36   O     O_R   0.956820 0.783240 0.173260 -0.510493
O37   O     O_R   0.678360 0.375140 0.822710 -0.493490
O38   O     O_R   0.321640 0.375140 0.177290 -0.506573
O39   O     O_R   0.178360 0.875140 0.822710 -0.493490
O40   O     O_R   0.821640 0.875140 0.177290 -0.506574
O41   O     O_R   0.785050 0.289380 0.670560 -0.511455
O42   O     O_R   0.214950 0.289380 0.329440 -0.515059
O43   O     O_R   0.285050 0.789380 0.670560 -0.511458
O44   O     O_R   0.714950 0.789380 0.329440 -0.515060
O45   O     O_R   0.763320 0.039990 0.676930 -0.523206
O46   O     O_R   0.236680 0.039990 0.323070 -0.503850
O47   O     O_R   0.263320 0.539990 0.676930 -0.523206
O48   O     O_R   0.736680 0.539990 0.323070 -0.503850
O49   O     O_R   0.668130 0.922920 0.670000 -0.518519
O50   O     O_R   0.331870 0.922920 0.330000 -0.532435
O51   O     O_R   0.168130 0.422920 0.670000 -0.518518
O52   O     O_R   0.831870 0.422920 0.330000 -0.532434
H41   H     H_    0.816668 0.213851 0.953260 0.124317
H42   H     H_    0.183873 0.211830 0.047217 0.124726
H43   H     H_    0.316668 0.713851 0.953260 0.124317
H44   H     H_    0.683873 0.711830 0.047217 0.124726
H45   H     H_    0.456075 0.974068 0.443422 0.135743
H46   H     H_    0.495058 0.971918 0.568358 0.129899
H47   H     H_    0.956073 0.474067 0.443423 0.135746
H48   H     H_    0.995056 0.471917 0.568359 0.129901

loop_
_geom_bond_atom_site_label_1
_geom_bond_atom_site_label_2
_ccdc_geom_bond_type
Cr2   O2    S    
C2    O22   A    
C87   C88   S    
C58   C62   A    
C23   C91   A    
C55   C59   A    
Cr8   O28   S    
C77   O41   A    
C14   C18   A    
C25   H33   S    
C35   C36   A    
C28   H36   S    
C84   C87   D    
C6    H26   S    
C35   H47   S    
Cr2   O22   S    
C32   C75   S    
C31   C76   S    
Cr3   O43   S    
C63   C79   S    
C85   C86   S    
Cr8   O8    S    
C84   H19   S    
C15   C19   A    
C74   O10   A    
C50   C54   A    
C37   H37   S    
Cr11  O39   S    
C32   C36   A    
C16   C20   A    
C56   C60   A    
C38   C42   A    
Cr3   O19   S    
C79   O15   A    
Cr6   O30   S    
C49   C53   A    
C80   O16   A    
C15   H31   S    
C76   O8    A    
C23   C67   S    
Cr7   O51   S    
C8    H28   S    
C58   H14   S    
Cr5   O25   S    
Cr6   O50   S    
Cr5   O49   S    
C46   O34   A    
C22   C66   S    
C9    C13   A    
C52   C69   S    
C3    O27   A    
C69   O49   A    
C46   C82   S    
C80   O44   A    
C11   C15   A    
C78   O14   A    
C89   H21   S    
C20   H44   S    
C12   C16   A    
C29   C33   A    
C61   C77   S    
C49   C72   S    
Cr8   O32   S    
C47   O35   A    
Cr4   O24   S    
Cr1   O1    S    
C78   O42   A    
C51   C70   S    
C1    O21   A    
C83   H20   S    
Cr10  O10   S    
C82   H17   S    
C7    H27   S    
C81   C86   D    
C68   O4    A    
C45   O33   A    
Cr11  O15   S    
C44   C52   A    
C5    H25   S    
C83   C88   D    
C66   O38   A    
Cr1   O21   S    
C41   H5    S    
C64   C80   S    
Cr10  O14   S    
C86   H2    S    
C1    C12   S    
C43   H7    S    
Cr12  O16   S    
C85   H1    S    
C2    C11   S    
C24   C92   A    
C41   C49   A    
Cr2   O42   S    
Cr6   O18   S    
C53   H9    S    
C7    C11   A    
Cr8   O52   S    
C56   H12   S    
Cr4   O4    S    
C91   H23   S    
Cr5   O29   S    
C30   C34   A    
C3    O23   A    
Cr10  O38   S    
C20   C24   A    
Cr3   O3    S    
C10   C14   A    
C75   O7    A    
C30   C73   S    
C53   C57   A    
C65   O37   A    
C29   C74   S    
C14   H30   S    
C51   C55   A    
C25   C26   A    
C6    C90   A    
Cr7   O7    S    
C76   O12   A    
C27   H35   S    
Cr4   O20   S    
C19   C23   A    
C50   C71   S    
Cr2   O46   S    
C5    C9    A    
C18   H42   S    
C45   O29   A    
C71   O51   A    
Cr1   O17   S    
C70   O50   A    
C7    C91   A    
C46   O30   A    
C33   C34   A    
C22   C90   A    
Cr7   O31   S    
Cr8   O20   S    
Cr12  O12   S    
C17   H41   S    
C79   O43   A    
C42   C50   A    
C8    C92   A    
C44   H8    S    
Cr11  O11   S    
Cr12  O40   S    
C2    O26   A    
C73   O9    A    
Cr5   O17   S    
C40   H40   S    
C67   O3    A    
Cr10  O34   S    
Cr7   O19   S    
C59   C63   A    
Cr1   O41   S    
Cr9   O9    S    
C65   O1    A    
C16   H32   S    
C48   O36   A    
Cr9   O37   S    
Cr10  O18   S    
C70   O46   A    
C57   H13   S    
Cr6   O6    S    
C25   C30   A    
Cr2   O18   S    
C92   H24   S    
C59   H15   S    
Cr3   O47   S    
C4    O28   A    
C73   O5    A    
C27   C32   A    
C18   C22   A    
C4    O24   A    
Cr11  O19   S    
C62   C78   S    
C28   C31   A    
C45   C81   S    
C21   C89   A    
C39   H39   S    
C26   H34   S    
Cr3   O23   S    
C72   O52   A    
C39   C43   A    
C75   O11   A    
C57   C61   A    
Cr1   O45   S    
C82   C85   D    
C39   C63   A    
C19   H43   S    
C40   C64   A    
C13   C17   A    
C81   H18   S    
C60   C64   A    
C21   C65   S    
Cr4   O48   S    
Cr9   O17   S    
C42   H6    S    
C68   O40   A    
C69   O45   A    
C3    C10   S    
C33   H45   S    
C43   C51   A    
Cr12  O20   S    
Cr12  O36   S    
C55   H11   S    
C34   H46   S    
C88   H4    S    
C52   C56   A    
C54   H10   S    
C31   C35   A    
C1    O25   A    
C38   H38   S    
Cr11  O35   S    
C37   C41   A    
C13   H29   S    
C66   O2    A    
Cr9   O33   S    
C6    C10   A    
C24   C68   S    
C60   H16   S    
Cr9   O13   S    
C47   C83   S    
Cr6   O26   S    
C48   C84   S    
C90   H22   S    
C40   C44   A    
C37   C61   A    
C87   H3    S    
C26   C29   A    
C54   C58   A    
C27   C28   A    
C47   O31   A    
Cr5   O5    S    
C74   O6    A    
C67   O39   A    
C36   H48   S    
C71   O47   A    
C4    C9    S    
Cr4   O44   S    
C72   O48   A    
C5    C89   A    
C8    C12   A    
Cr7   O27   S    
C77   O13   A    
C48   O32   A    
C38   C62   A    
C17   C21   A    
