data_mof_unit_61815.cif
_audit_creation_date              2012-12-11T16:10:55-0500
_audit_creation_method            fapswitch 2.2
_symmetry_space_group_name_H-M    P1
_symmetry_Int_Tables_number       1
_space_group_crystal_system       triclinic
_cell_length_a                    8.204555
_cell_length_b                    14.254304
_cell_length_c                    17.395015
_cell_angle_alpha                 92.593672
_cell_angle_beta                  95.897758
_cell_angle_gamma                 91.026495
_cell_volume                      2020.98842794

loop_
_atom_site_label
_atom_site_type_symbol
_atom_type_description
_atom_site_fract_x
_atom_site_fract_y
_atom_site_fract_z
_atom_type_partial_charge
Ba1   Ba    Ba6+2 0.148060 0.545480 0.461240 1.635600
Ba2   Ba    Ba6+2 0.662110 0.454510 0.538700 1.644089
C1    C     C_3   0.324894 0.781135 0.158562 -0.359643
C2    C     C_R   0.817956 0.804041 0.499037 0.045262
C3    C     C_R   0.667334 0.773795 0.460567 -0.303243
C4    C     C_3   0.878155 0.801471 0.282328 0.359121
C5    C     C_R   0.557849 0.837094 0.426529 0.014196
C6    C     C_R   0.602328 0.932050 0.425620 -0.142517
C7    C     C_R   0.755189 0.965168 0.461792 -0.000788
C8    C     C_R   0.862871 0.901891 0.501188 -0.006865
C9    C     C_R   0.946021 0.098317 0.500111 -0.024955
C10   C     C_R   0.053551 0.035052 0.539671 -0.008405
C11   C     C_R   0.990508 0.196265 0.502553 0.043688
C12   C     C_3   0.357443 0.752497 0.241786 0.351482
C13   C     C_R   0.139352 0.226804 0.542809 -0.295733
C14   C     C_R   0.249900 0.163360 0.575941 0.010688
C15   C     C_R   0.206134 0.068207 0.576140 -0.143804
C16   C     C_3   0.887551 0.900472 0.253580 -0.361946
C17   C     C_R   0.798785 0.061253 0.460205 -0.037155
C18   C     C_R   0.593662 0.539131 0.277715 -0.291504
C19   C     C_R   0.448201 0.488553 0.255763 0.065384
C20   C     C_R   0.390000 0.476987 0.176990 -0.115766
C21   C     C_R   0.479144 0.515019 0.120401 -0.006652
C22   C     C_R   0.629700 0.562363 0.143218 -0.136845
C23   C     C_3   0.507963 0.740564 0.633793 0.341259
C24   C     C_R   0.687799 0.572893 0.222000 0.009655
C25   C     C_R   0.408933 0.520453 0.834861 -0.110573
C26   C     C_R   0.355821 0.511424 0.755592 0.027257
C27   C     C_R   0.114746 0.423431 0.783116 0.013903
C28   C     C_3   0.785205 0.340943 0.310876 0.312182
C29   C     C_R   0.167040 0.432048 0.862759 -0.131912
C30   C     C_R   0.315977 0.479823 0.888867 0.001706
C31   C     C_1   0.370985 0.491245 0.970851 -0.001105
C32   C     C_1   0.419637 0.501917 0.039016 0.001614
C33   C     C_R   0.212820 0.460040 0.730227 -0.278660
C34   C     C_3   0.521364 0.846774 0.648470 0.511267
C35   C     C_3   0.757751 0.315350 0.224579 -0.396913
C36   C     C_3   0.020103 0.657423 0.689046 0.324849
C37   C     C_3   0.048656 0.682711 0.775393 -0.367727
C38   C     C_3   0.298559 0.262077 0.380332 0.309841
C39   C     C_3   0.291896 0.156055 0.364682 -0.389351
C40   C     C_3   0.935523 0.196050 0.718251 0.325677
C41   C     C_3   0.919267 0.096556 0.745108 -0.304189
C42   C     C_3   0.455124 0.249328 0.758663 0.368707
C43   C     C_3   0.479006 0.218995 0.841412 -0.354174
C44   C     C_R   0.010383 0.938866 0.540880 -0.013480
F1    F     F_    0.650978 0.869719 0.703615 -0.690379
H1    H     H_    0.295825 0.683369 0.246450 0.084363
H2    H     H_    0.177753 0.285438 0.394747 0.006437
H3    H     H_    0.392344 0.279077 0.429689 0.069324
H4    H     H_    0.190467 0.775435 0.139591 0.147897
H5    H     H_    0.194978 0.136664 0.316865 0.127011
H6    H     H_    0.264425 0.119871 0.417047 0.065451
H7    H     H_    0.412238 0.132090 0.347974 0.115716
H8    H     H_    0.491427 0.745909 0.255607 -0.059988
H9    H     H_    0.391538 0.733698 0.120252 0.073516
H10   H     H_    0.627337 0.714853 0.617665 -0.003227
H11   H     H_    0.411479 0.725132 0.585048 -0.037355
H12   H     H_    0.662143 0.258849 0.213216 0.125907
H13   H     H_    0.541733 0.881320 0.594338 -0.081061
H14   H     H_    0.406215 0.873244 0.669016 0.005505
H15   H     H_    0.368038 0.855369 0.153312 0.119334
H16   H     H_    0.844960 0.951574 0.297044 0.067865
H17   H     H_    0.866756 0.199225 0.660137 0.086965
H18   H     H_    0.066801 0.211568 0.714023 -0.059531
H19   H     H_    0.788570 0.072770 0.737208 0.185135
H20   H     H_    0.991244 0.048135 0.710601 0.080280
H21   H     H_    0.965953 0.093895 0.807268 0.117489
H22   H     H_    0.322844 0.260242 0.743425 -0.075772
H23   H     H_    0.717573 0.377260 0.192009 0.065768
H24   H     H_    0.522544 0.316888 0.755567 0.090308
H25   H     H_    0.422041 0.270842 0.879648 0.066511
H26   H     H_    0.612094 0.215242 0.860871 0.147576
H27   H     H_    0.961099 0.798635 0.336595 0.095071
H28   H     H_    0.420579 0.148528 0.845574 0.123261
H29   H     H_    0.631490 0.700350 0.460298 0.073202
H30   H     H_    0.516639 0.980045 0.397872 0.069372
H31   H     H_    0.292339 0.020046 0.603359 0.067601
H32   H     H_    0.174269 0.300468 0.544031 0.069214
H33   H     H_    0.093791 0.893575 0.573014 0.087322
H34   H     H_    0.873657 0.290327 0.203721 0.126507
H35   H     H_    0.715487 0.106477 0.427954 0.097588
H36   H     H_    0.519748 0.560856 0.854406 0.082740
H37   H     H_    0.702662 0.588972 0.100142 0.080670
H38   H     H_    0.091027 0.403687 0.903891 0.076025
H39   H     H_    0.750500 0.786950 0.294535 -0.064760
H40   H     H_    0.277673 0.436924 0.159842 0.085425
H41   H     H_    0.639166 0.546684 0.338343 0.071992
H42   H     H_    0.171795 0.454285 0.669017 0.063639
H43   H     H_    0.016091 0.919141 0.244664 0.150226
H44   H     H_    0.808365 0.904852 0.198091 0.115728
H45   H     H_    0.135198 0.632808 0.668198 -0.014143
H46   H     H_    0.668063 0.362530 0.331515 0.008554
H47   H     H_    0.876097 0.399961 0.320365 0.069308
H48   H     H_    0.925432 0.600533 0.679389 0.070984
H49   H     H_    0.151339 0.734896 0.787197 0.129452
H50   H     H_    0.078992 0.619486 0.808162 0.052783
H51   H     H_    0.936029 0.713073 0.795757 0.155856
O1    O     O_2   0.110000 0.727700 0.527600 -0.473177
O2    O     O_2   0.774520 0.432592 0.776246 -0.489804
O3    O     O_3   0.872016 0.259308 0.771207 -0.594840
O4    O     O_3   0.867340 0.611500 0.534090 -0.493180
O5    O     O_3   0.433040 0.452610 0.411250 -0.491439
O6    O     O_2   0.638240 0.544950 0.683210 -0.454912
O7    O     O_3   0.467101 0.698877 0.701094 -0.635819
O8    O     O_2   0.587635 0.163553 0.566778 -0.489181
O9    O     O_3   0.515106 0.180081 0.709558 -0.586858
O10   O     O_3   0.340010 0.670810 0.392610 -0.484282
O11   O     O_2   0.220115 0.835873 0.433392 -0.500392
O12   O     O_3   0.337981 0.304646 0.313759 -0.635800
O13   O     O_3   0.969004 0.737698 0.651031 -0.607017
O14   O     O_3   0.295226 0.820720 0.291142 -0.598487
O15   O     O_2   0.172060 0.454990 0.316770 -0.462181
O16   O     O_3   0.924740 0.623930 0.356360 -0.491762
O17   O     O_2   0.027768 0.564206 0.222723 -0.487874
O18   O     O_3   0.926063 0.737057 0.225870 -0.597825
O19   O     O_2   0.700300 0.272240 0.472380 -0.468905
O20   O     O_3   0.942950 0.388490 0.465850 -0.492117
O21   O     O_3   0.470280 0.329180 0.607330 -0.484137
O22   O     O_3   0.842211 0.261845 0.348958 -0.639936
O23   O     O_3   0.377250 0.547380 0.588690 -0.476793
O24   O     O_3   0.885550 0.376060 0.643580 -0.485895
P1    P     P_3+3 0.940740 0.713140 0.550990 0.993210
P2    P     P_3+3 0.347910 0.426910 0.329700 0.984671
P3    P     P_3+3 0.891979 0.623215 0.255393 0.946272
P4    P     P_3+3 0.869550 0.286850 0.448950 0.973202
P5    P     P_3+3 0.912006 0.373871 0.744746 0.949056
P6    P     P_3+3 0.353405 0.792601 0.386903 0.942141
P7    P     P_3+3 0.456752 0.576717 0.684288 0.958815
P8    P     P_3+3 0.455869 0.207448 0.613805 0.957069

loop_
_geom_bond_atom_site_label_1
_geom_bond_atom_site_label_2
_ccdc_geom_bond_type
C40   C41   S    
C29   H38   S    
C40   H17   S    
O2    P5    D    
Ba1   O1    S    
Ba2   O20   S    
C23   O7    S    
C5    C6    A    
C12   O14   S    
C37   H49   S    
C9    C17   A    
C23   H10   S    
C42   H24   S    
C16   H44   S    
C22   C24   A    
C26   P7    S    
C28   H46   S    
C36   C37   S    
O22   P4    S    
C16   H16   S    
C42   O9    S    
Ba2   O4    S    
C38   H2    S    
C36   H45   S    
O21   P8    S    
C34   F1    S    
C43   H26   S    
Ba1   Ba2   S    
O24   P5    S    
O12   P2    S    
C7    C17   A    
C13   H32   S    
C26   C33   A    
C6    C7    A    
C36   H48   S    
C8    C44   A    
C40   H18   S    
C21   C22   A    
C5    P6    S    
C17   H35   S    
C14   P8    S    
C7    C8    A    
Ba1   O5    S    
C39   H5    S    
C12   H8    S    
C19   C20   A    
C43   H25   S    
C35   H34   S    
Ba1   O15   S    
O9    P8    S    
O5    P2    S    
Ba2   O19   S    
C4    H27   S    
Ba2   O24   S    
C4    C16   S    
C28   O22   S    
C13   C14   A    
O13   P1    S    
C16   H43   S    
C1    H15   S    
C10   C44   A    
C3    C5    A    
O16   P3    S    
C1    H4    S    
C14   C15   A    
C37   H51   S    
O7    P7    S    
Ba1   O10   S    
C28   C35   S    
C24   P3    S    
C10   C15   A    
Ba1   P1    S    
C1    H9    S    
O11   P6    D    
C29   C30   A    
Ba2   O6    S    
Ba2   O21   S    
C21   C32   S    
C4    O18   S    
C31   C32   T    
C42   H22   S    
C20   H40   S    
O10   P6    S    
C39   H6    S    
C35   H12   S    
C1    C12   S    
C11   P4    S    
Ba2   P4    S    
C41   H20   S    
C38   C39   S    
O18   P3    S    
C27   P5    S    
C6    H30   S    
Ba1   O16   S    
C2    C8    A    
O4    P1    S    
C40   O3    S    
C33   H42   S    
C42   C43   S    
O1    P1    D    
O19   P4    D    
Ba2   O23   S    
O8    P8    D    
C25   C30   A    
O23   P7    S    
C2    C3    A    
C34   H13   S    
O17   P3    D    
C38   O12   S    
C9    C10   A    
C27   C33   A    
C4    H39   S    
C43   H28   S    
O6    P7    D    
C30   C31   S    
C19   P2    S    
C11   C13   A    
C22   H37   S    
Ba1   P2    S    
C27   C29   A    
C44   H33   S    
C9    C11   A    
O15   P2    D    
C18   C24   A    
Ba2   O5    S    
C3    H29   S    
C41   H19   S    
C38   H3    S    
C18   H41   S    
C25   H36   S    
C15   H31   S    
O3    P5    S    
Ba1   O20   S    
Ba1   O23   S    
C39   H7    S    
O14   P6    S    
C37   H50   S    
C23   C34   S    
C18   C19   A    
C2    P1    S    
C28   H47   S    
C23   H11   S    
C25   C26   A    
C12   H1    S    
C20   C21   A    
O20   P4    S    
C36   O13   S    
C35   H23   S    
Ba1   O4    S    
C34   H14   S    
C41   H21   S    
