data_mof_unit_36896.cif
_audit_creation_date              2012-12-11T17:09:30-0500
_audit_creation_method            fapswitch 2.2
_symmetry_space_group_name_H-M    P1
_symmetry_Int_Tables_number       1
_space_group_crystal_system       monoclinic
_cell_length_a                    14.832839
_cell_length_b                    6.916874
_cell_length_c                    13.518363
_cell_angle_alpha                 90.0
_cell_angle_beta                  99.984396
_cell_angle_gamma                 90.0
_cell_volume                      1365.93662212

loop_
_atom_site_label
_atom_site_type_symbol
_atom_type_description
_atom_site_fract_x
_atom_site_fract_y
_atom_site_fract_z
_atom_type_partial_charge
O1    O     O_R   0.586930 0.505770 0.416350 -0.522787
O2    O     O_R   0.413070 0.005770 0.583650 -0.522787
O3    O     O_R   0.397900 0.173100 0.389630 -0.533997
O4    O     O_R   0.602100 0.673100 0.610370 -0.533997
C1    C     C_R   0.364125 0.345404 0.362960 0.754318
C2    C     C_R   0.635875 0.845404 0.637040 0.754318
O5    O     O_R   0.585280 0.175870 0.404330 -0.544151
O6    O     O_R   0.414720 0.675870 0.595670 -0.544151
O7    O     O_R   0.601790 0.008380 0.598460 -0.538989
O8    O     O_R   0.398210 0.508380 0.401540 -0.538989
C3    C     C_R   0.614501 0.345049 0.383059 0.740638
C4    C     C_R   0.385499 0.845049 0.616941 0.740638
O9    O     O_3   0.505200 0.340120 0.563670 -0.367892
O10   O     O_3   0.494800 0.840120 0.436330 -0.367892
V1    V     V_3+5 0.499040 0.064180 0.488190 1.480538
V2    V     V_3+5 0.500960 0.564180 0.511810 1.480538
C5    C     C_R   0.252234 0.996673 0.679459 0.062256
C6    C     C_R   0.747766 0.496673 0.320541 0.062258
C7    C     C_R   0.320071 0.856069 0.687327 -0.172120
C8    C     C_R   0.679928 0.356069 0.312673 -0.172120
C9    C     C_R   0.323317 0.724944 0.767876 -0.227649
C10   C     C_R   0.676683 0.224944 0.232125 -0.227649
H1    H     H_    0.376672 0.616241 0.780196 0.145549
H2    H     H_    0.623328 0.116241 0.219804 0.145550
C11   C     C_R   0.258256 0.732028 0.833813 0.273759
C12   C     C_R   0.741744 0.232028 0.166187 0.273759
C13   C     C_R   0.187595 0.876451 0.820746 -0.157801
C14   C     C_R   0.812405 0.376451 0.179254 -0.157802
C15   C     C_R   0.189875 0.007314 0.742757 -0.006585
C16   C     C_R   0.810125 0.507314 0.257243 -0.006585
C17   C     C_3   0.136696 0.168020 0.685736 -0.067006
C18   C     C_3   0.863304 0.668020 0.314264 -0.067007
C19   C     C_3   0.207181 0.154020 0.612779 0.384462
C20   C     C_3   0.792818 0.654020 0.387221 0.384460
H3    H     H_    0.138653 0.304604 0.729691 0.117447
H4    H     H_    0.861346 0.804604 0.270308 0.117447
C21   C     C_1   0.783699 0.877060 0.782580 -0.193135
C22   C     C_1   0.216301 0.377060 0.217420 -0.193135
C23   C     C_1   0.716411 0.860083 0.716550 -0.177399
C24   C     C_1   0.283589 0.360083 0.283450 -0.177399
O11   O     O_R   0.101720 0.231700 0.098560 -0.534485
O12   O     O_R   0.898280 0.731700 0.901440 -0.534485
O13   O     O_R   0.914700 0.558980 0.095690 -0.545496
O14   O     O_R   0.085300 0.058980 0.904310 -0.545497
C25   C     C_R   0.883837 0.389440 0.115218 0.723537
C26   C     C_R   0.116163 0.889440 0.884781 0.723537
O15   O     O_R   0.102080 0.561590 0.110390 -0.538900
O16   O     O_R   0.897920 0.061590 0.889610 -0.538900
O17   O     O_R   0.086950 0.728940 0.916330 -0.541587
O18   O     O_R   0.913050 0.228940 0.083670 -0.541587
C27   C     C_R   0.135983 0.391884 0.137649 0.737665
C28   C     C_R   0.864016 0.891884 0.862351 0.737666
O19   O     O_3   0.994770 0.394510 0.936380 -0.371004
O20   O     O_3   0.005230 0.894510 0.063620 -0.371004
V3    V     V_3+5 0.000970 0.670520 0.011800 1.400525
V4    V     V_3+5 0.999030 0.170520 0.988200 1.400525
N1    N     N_2   0.267420 0.593598 0.912649 -0.529174
H5    H     H_    0.210568 0.509265 0.914653 0.266581
C29   C     C_3   0.311237 0.664877 0.009648 -0.530622
H6    H     H_    0.322981 0.542928 0.063723 0.187583
H7    H     H_    0.267283 0.774104 0.038341 0.186217
H8    H     H_    0.378601 0.730428 0.004160 0.200659
N2    N     N_2   0.732580 0.093598 0.087351 -0.529174
H9    H     H_    0.789432 0.009265 0.085347 0.266581
C30   C     C_3   0.688763 0.164877 0.990352 -0.530623
H10   H     H_    0.677019 0.042928 0.936277 0.187584
H11   H     H_    0.732717 0.274104 0.961659 0.186217
H12   H     H_    0.621398 0.230428 0.995840 0.200660
N3    N     N_3   0.044266 0.106692 0.641311 -0.674618
H13   H     H_    0.014185 0.219703 0.595832 0.232607
H14   H     H_    0.006388 0.093082 0.699353 0.240123
N4    N     N_3   0.955734 0.606692 0.358689 -0.674619
H15   H     H_    0.985815 0.719704 0.404168 0.232607
H16   H     H_    0.993612 0.593082 0.300646 0.240123
N5    N     N_3   0.265495 0.324534 0.612529 -0.622209
H17   H     H_    0.223639 0.441759 0.586104 0.215753
H18   H     H_    0.296009 0.357080 0.686235 0.208333
N6    N     N_3   0.734505 0.824534 0.387471 -0.622209
H19   H     H_    0.776360 0.941758 0.413896 0.215753
H20   H     H_    0.703991 0.857081 0.313765 0.208333
N7    N     N_3   0.171471 0.086068 0.510698 -0.633119
H21   H     H_    0.135182 0.956906 0.513194 0.236661
H22   H     H_    0.125581 0.189440 0.475025 0.235513
N8    N     N_3   0.828529 0.586068 0.489302 -0.633119
H23   H     H_    0.864818 0.456907 0.486806 0.236661
H24   H     H_    0.874419 0.689440 0.524975 0.235513

loop_
_geom_bond_atom_site_label_1
_geom_bond_atom_site_label_2
_ccdc_geom_bond_type
C22   C24   T    
N2    C30   S    
C13   C15   A    
C5    C15   A    
O19   V3    S    
O1    C3    A    
C12   N2    S    
O2    C4    A    
C2    O7    A    
N7    H21   S    
C18   N4    S    
O5    C3    A    
C26   O17   A    
C11   N1    S    
C18   H4    S    
C10   H2    S    
C7    C9    A    
N8    H24   S    
N6    H20   S    
N1    C29   S    
N3    H14   S    
C19   N5    S    
C30   H11   S    
C17   C19   S    
C6    C16   A    
O10   V2    S    
O5    V1    S    
C29   H6    S    
O6    V2    S    
C20   N8    S    
N7    H22   S    
O14   C26   A    
C6    C20   S    
C9    H1    S    
C3    C8    S    
O20   V4    S    
C14   C25   S    
C29   H7    S    
N8    H23   S    
N4    H16   S    
C21   C28   S    
N6    H19   S    
O15   C27   A    
C22   C27   S    
O17   V3    S    
O18   V4    S    
C18   C20   S    
O4    V2    S    
N5    H17   S    
O11   V4    S    
O12   V3    S    
N5    H18   S    
O14   V4    S    
C17   N3    S    
O6    C4    A    
C30   H12   S    
C5    C19   S    
O1    V2    S    
O2    V1    S    
O13   C25   A    
C13   C26   S    
O4    C2    A    
C8    C10   A    
O9    V1    S    
C17   H3    S    
O9    V2    S    
O3    V1    S    
O15   V3    S    
O19   V4    S    
O13   V3    S    
O16   V4    S    
C9    C11   A    
O20   V3    S    
C29   H8    S    
C2    C23   S    
N4    H15   S    
O3    C1    A    
C11   C13   A    
C12   C14   A    
C14   C16   A    
O7    V1    S    
C1    O8    A    
C21   C23   T    
O8    V2    S    
C20   N6    S    
C16   C18   S    
N1    H5    S    
C25   O18   A    
C4    C7    S    
C5    C7    A    
C6    C8    A    
N3    H13   S    
N2    H9    S    
O16   C28   A    
C15   C17   S    
C30   H10   S    
C10   C12   A    
C1    C24   S    
O10   V1    S    
C19   N7    S    
O11   C27   A    
O12   C28   A    
