data_mof_unit_21523.cif
_audit_creation_date              2012-12-10T16:45:20-0500
_audit_creation_method            fapswitch 2.2
_symmetry_space_group_name_H-M    P1
_symmetry_Int_Tables_number       1
_space_group_crystal_system       triclinic
_cell_length_a                    7.422238
_cell_length_b                    8.737094
_cell_length_c                    15.838602
_cell_angle_alpha                 94.313849
_cell_angle_beta                  74.974724
_cell_angle_gamma                 103.092935
_cell_volume                      966.062155637

loop_
_atom_site_label
_atom_site_type_symbol
_atom_type_description
_atom_site_fract_x
_atom_site_fract_y
_atom_site_fract_z
_atom_type_partial_charge
C1    C     C_R   0.544748 0.799807 0.502571 0.806562
C2    C     C_R   0.455252 0.200193 0.497430 0.806666
C3    C     C_R   0.292071 0.369036 0.072948 0.583883
C4    C     C_R   0.707792 0.631666 0.927110 0.583696
C5    C     C_R   0.156216 0.345368 0.024551 0.554207
C6    C     C_R   0.843634 0.655365 0.975518 0.554311
C7    C     C_2   0.570459 0.966846 0.503719 0.309810
C8    C     C_2   0.429541 0.033153 0.496281 0.309792
C9    C     C_R   0.383570 0.487956 0.666415 0.822340
C10   C     C_R   0.616426 0.512060 0.333584 0.822242
C11   C     C_R   0.312551 0.472404 0.761953 -0.192461
C12   C     C_R   0.687417 0.527782 0.238049 -0.192299
C13   C     C_R   0.067837 0.371573 0.890305 -0.145599
C14   C     C_R   0.932057 0.628998 0.109753 -0.145802
C15   C     C_R   0.120701 0.408645 0.801979 0.641615
C16   C     C_R   0.879273 0.591568 0.198026 0.641552
C17   C     C_R   0.445515 0.510568 0.813056 -0.121183
C18   C     C_R   0.554399 0.489907 0.186970 -0.121045
C19   C     C_R   0.392552 0.486405 0.903615 0.075696
C20   C     C_R   0.607328 0.514241 0.096433 0.075543
C21   C     C_R   0.203565 0.404203 0.940467 -0.163647
C22   C     C_R   0.796307 0.596491 0.059598 -0.163553
C23   C     C_R   0.525768 0.529910 0.956755 -0.203004
C24   C     C_R   0.474087 0.470806 0.043305 -0.203072
Cu1   Cu    Cu3+1 0.322120 0.483240 0.490330 1.115322
Cu2   Cu    Cu3+1 0.677880 0.516760 0.509670 1.115315
N1    N     N_2   0.945180 0.542040 0.524240 -0.159071
N2    N     N_2   0.054820 0.457960 0.475760 -0.159044
O1    O     O_R   0.384450 0.714270 0.493720 -0.565825
O2    O     O_R   0.615550 0.285730 0.506280 -0.565801
O3    O     O_R   0.684880 0.742590 0.510050 -0.516002
O4    O     O_R   0.315120 0.257410 0.489950 -0.515969
O5    O     O_R   0.265540 0.477900 0.617090 -0.536366
O6    O     O_R   0.734460 0.522100 0.382910 -0.536337
O7    O     O_R   0.565970 0.506210 0.633420 -0.586773
O8    O     O_R   0.434030 0.493790 0.366580 -0.586789
F1    F     F_    0.980879 0.253840 0.057965 -0.603221
F2    F     F_    0.018968 0.746894 0.942102 -0.603154
H1    H     H_    0.406562 0.452934 0.220531 0.249847
H2    H     H_    0.593345 0.547601 0.779497 0.249733
F3    F     F_    0.012784 0.628844 0.245059 -0.626841
F4    F     F_    0.987333 0.370929 0.754911 -0.626778
H3    H     H_    0.921416 0.313062 0.918728 0.209752
H4    H     H_    0.078463 0.687564 0.081360 0.209728
F5    F     F_    0.246184 0.280333 0.145235 -0.608117
F6    F     F_    0.753713 0.720275 0.854801 -0.608166
F7    F     F_    0.742649 0.053068 0.512468 -0.605913
F8    F     F_    0.257351 0.946932 0.487532 -0.605935
H5    H     H_    0.004046 0.614592 0.568848 0.265057
H6    H     H_    0.995954 0.385408 0.431152 0.265100

loop_
_geom_bond_atom_site_label_1
_geom_bond_atom_site_label_2
_ccdc_geom_bond_type
C19   C23   A    
C23   C24   A    
C8    F8    S    
C5    F1    S    
C14   H4    S    
C1    O3    A    
C2    O2    A    
C14   C22   A    
Cu1   O4    S    
C6    F2    S    
Cu2   N1    S    
C13   C21   A    
Cu2   O3    S    
C10   O6    A    
C4    F6    S    
Cu1   N2    S    
C9    O5    A    
C9    C11   S    
C3    C24   A    
C10   C12   S    
C4    C6    A    
C19   C21   A    
C20   C22   A    
Cu2   O2    S    
C18   C20   A    
C13   C15   A    
Cu1   O1    S    
C20   C24   A    
C14   C16   A    
C7    C8    D    
C1    O1    A    
Cu1   O8    S    
C3    F5    S    
C6    C22   A    
C12   C16   A    
Cu2   O7    S    
C13   H3    S    
C5    C21   A    
C2    O4    A    
C12   C18   A    
N1    N2    D    
C9    O7    A    
C18   H1    S    
N2    H6    S    
C11   C17   A    
C10   O8    A    
C17   C19   A    
Cu1   Cu2   S    
C1    C7    S    
C11   C15   A    
C16   F3    S    
Cu2   O6    S    
C4    C23   A    
C2    C8    S    
N1    H5    S    
C15   F4    S    
Cu1   O5    S    
C3    C5    A    
C17   H2    S    
C7    F7    S    
