data_mof_unit_56535.cif
_audit_creation_date              2012-12-10T17:33:58-0500
_audit_creation_method            fapswitch 2.2
_symmetry_space_group_name_H-M    P1
_symmetry_Int_Tables_number       1
_space_group_crystal_system       triclinic
_cell_length_a                    11.101813
_cell_length_b                    12.272427
_cell_length_c                    12.988153
_cell_angle_alpha                 93.572703
_cell_angle_beta                  97.257376
_cell_angle_gamma                 85.955002
_cell_volume                      1748.48485596

loop_
_atom_site_label
_atom_site_type_symbol
_atom_type_description
_atom_site_fract_x
_atom_site_fract_y
_atom_site_fract_z
_atom_type_partial_charge
C1    C     C_R   0.493016 0.520803 0.700014 0.939762
C2    C     C_R   0.465139 0.446500 0.974382 -0.124286
C3    C     C_R   0.505081 0.544347 0.027839 0.092576
C4    C     C_R   0.742869 0.501288 0.501623 0.869405
C5    C     C_R   0.513607 0.555193 0.134058 -0.175407
C6    C     C_R   0.522863 0.358925 0.138810 0.323185
C7    C     C_R   0.472048 0.349530 0.033154 0.222607
C8    C     C_R   0.384567 0.950470 0.386475 0.322007
C9    C     C_R   0.408959 0.835268 0.394487 -0.081306
C10   C     C_R   0.525305 0.864984 0.558234 0.497647
C11   C     C_R   0.508603 0.981107 0.547668 -0.222704
C12   C     C_3   0.121185 0.508081 0.493593 -0.297437
C13   C     C_R   0.454666 0.023954 0.455062 -0.165129
C14   C     C_R   0.461897 0.140059 0.442487 -0.002886
C15   C     C_R   0.563940 0.162439 0.612935 0.511445
C16   C     C_R   0.509847 0.477989 0.301290 1.049312
C17   C     C_R   0.534964 0.056979 0.631154 -0.155121
C18   C     C_R   0.257985 0.501418 0.497202 0.992893
C19   C     C_3   0.953685 0.419962 0.575582 -0.217248
C20   C     C_3   0.091201 0.440546 0.583649 -0.442750
C21   C     C_3   0.911999 0.483710 0.383816 0.093082
C22   C     C_3   0.928901 0.625403 0.533345 -0.283355
C23   C     C_3   0.055722 0.459784 0.384111 0.130932
C24   C     C_3   0.880635 0.506869 0.500311 -0.283653
C25   C     C_2   0.932465 0.301649 0.537012 0.471097
C26   C     C_2   0.321597 0.402890 0.815794 0.564457
C27   C     C_2   0.407150 0.184510 0.344310 0.650671
C28   C     C_2   0.916762 0.430530 0.684702 0.733485
C29   C     C_2   0.485772 0.042220 0.729165 0.715696
C30   C     C_2   0.350471 0.761200 0.313160 0.674188
C31   C     C_2   0.081657 0.336315 0.372465 0.500386
C32   C     C_2   0.909490 0.673761 0.639721 0.526026
C33   C     C_3   0.064922 0.630366 0.513719 0.263297
C34   C     C_R   0.516077 0.462982 0.190259 -0.260344
C35   C     C_R   0.486946 0.530596 0.812791 -0.101487
C36   C     C_R   0.540226 0.629596 0.975798 -0.035576
C37   C     C_R   0.543292 0.616158 0.870713 -0.132789
C38   C     C_R   0.433417 0.451546 0.865544 0.002491
H1    H     H_    0.062970 0.670660 0.440057 0.197155
H2    H     H_    0.778016 0.464351 0.170164 0.381967
H3    H     H_    0.267699 0.424632 0.200572 0.386792
H4    H     H_    0.814352 0.203080 0.135121 0.433544
H5    H     H_    0.602029 0.150929 0.975982 0.415949
H6    H     H_    0.245329 0.399542 0.860004 0.129621
H7    H     H_    0.418673 0.139583 0.271868 0.139814
H8    H     H_    0.835628 0.479760 0.701128 0.052515
H9    H     H_    0.656866 0.300275 0.864323 0.387792
H10   H     H_    0.060606 0.927947 0.288381 0.420367
H11   H     H_    0.391838 0.022127 0.727391 0.079292
H12   H     H_    0.525243 0.635216 0.172821 0.234549
H13   H     H_    0.313406 0.688591 0.334530 0.146598
H14   H     H_    0.723528 0.685839 0.736440 0.353654
H15   H     H_    0.145234 0.293755 0.428273 0.143539
H16   H     H_    0.863696 0.754459 0.643759 0.184401
H17   H     H_    0.274030 0.852909 0.587973 0.377655
H18   H     H_    0.577948 0.701180 0.017638 0.197446
H19   H     H_    0.592121 0.672322 0.836864 0.224050
H20   H     H_    0.121588 0.486184 0.657931 0.265282
H21   H     H_    0.145659 0.361471 0.588168 0.252546
H22   H     H_    0.867396 0.409102 0.353812 0.147188
H23   H     H_    0.874953 0.684436 0.481821 0.197435
H24   H     H_    0.868723 0.282462 0.469315 0.127674
N1    N     N_R   0.523380 0.207800 0.519350 -0.176060
N2    N     N_R   0.476620 0.792180 0.480650 -0.194046
O1    O     O_R   0.506240 0.421700 0.658830 -0.539887
O2    O     O_2   0.712236 0.620150 0.311758 -0.327281
O3    O     O_2   0.904181 0.687124 0.294479 -0.196275
O4    O     O_3   0.825779 0.529107 0.168690 -0.422973
O5    O     O_2   0.048478 0.462197 0.172261 -0.155035
O6    O     O_2   0.117687 0.628322 0.267881 -0.231558
O7    O     O_3   0.261582 0.456717 0.271769 -0.587951
O8    O     O_2   0.704720 0.300296 0.290663 -0.351952
O9    O     O_2   0.598594 0.151652 0.196822 -0.252457
O10   O     O_3   0.746973 0.251602 0.102603 -0.545594
O11   O     O_2   0.327329 0.192438 0.058582 -0.194809
O12   O     O_R   0.491240 0.609310 0.646410 -0.520227
O13   O     O_2   0.360986 0.205989 0.879116 -0.250604
O14   O     O_3   0.533072 0.120184 0.002988 -0.373422
O15   O     O_2   0.314695 0.361422 0.727821 -0.556368
O16   O     O_2   0.336443 0.264397 0.343468 -0.522768
O17   O     O_2   0.975733 0.381762 0.755592 -0.468956
O18   O     O_2   0.765522 0.140143 0.746693 -0.164497
O19   O     O_2   0.719870 0.316953 0.672839 -0.347481
O20   O     O_3   0.593470 0.267311 0.813682 -0.541550
O21   O     O_2   0.187972 0.093070 0.385107 -0.283523
O22   O     O_2   0.244512 0.022689 0.215174 -0.192813
O23   O     O_R   0.692710 0.406190 0.506230 -0.603543
O24   O     O_3   0.138485 0.896557 0.323692 -0.481171
O25   O     O_2   0.551397 0.045233 0.811504 -0.404370
O26   O     O_2   0.342424 0.781335 0.221548 -0.506508
O27   O     O_2   0.704515 0.896629 0.715233 -0.243026
O28   O     O_2   0.516146 0.821834 0.751919 -0.313791
O29   O     O_3   0.676359 0.695562 0.667404 -0.605712
O30   O     O_2   0.032638 0.282624 0.298395 -0.459986
O31   O     O_2   0.962199 0.638144 0.720048 -0.532213
O32   O     O_2   0.074674 0.817425 0.651119 -0.229929
O33   O     O_2   0.227141 0.667253 0.690965 -0.267514
O34   O     O_R   0.677700 0.593810 0.493810 -0.532794
O35   O     O_3   0.245245 0.791714 0.539848 -0.530878
O36   O     O_R   0.508760 0.390690 0.353590 -0.559495
O37   O     O_R   0.493760 0.578300 0.341170 -0.653338
O38   O     O_R   0.322300 0.406190 0.506190 -0.587985
O39   O     O_R   0.307290 0.593810 0.493770 -0.578795
O40   O     O_2   0.986289 0.225081 0.582823 -0.444195
S1    S     S_3+6 0.838195 0.584286 0.290899 0.087431
S2    S     S_3+6 0.117701 0.506593 0.271094 0.105889
S3    S     S_3+6 0.642771 0.262623 0.186718 0.030783
S4    S     S_3+6 0.419193 0.217483 0.989205 0.128626
S5    S     S_3+6 0.665296 0.223439 0.711596 0.108026
S6    S     S_3+6 0.237071 0.994956 0.325191 0.092205
S7    S     S_3+6 0.607281 0.819774 0.675612 0.027615
S8    S     S_3+6 0.152994 0.727117 0.604637 0.095454
Zn1   Zn    Zn3+2 0.510020 0.374730 0.508290 1.117073
Zn2   Zn    Zn3+2 0.489980 0.625270 0.491710 1.098231

loop_
_geom_bond_atom_site_label_1
_geom_bond_atom_site_label_2
_ccdc_geom_bond_type
C30   H13   S    
C8    C13   A    
C4    O34   A    
C9    N2    A    
C17   C29   S    
C15   S5    S    
C19   C20   S    
C30   O26   D    
C29   O25   D    
C26   H6    S    
C4    O23   A    
C29   H11   S    
H5    O14   S    
O32   S8    D    
C12   C23   S    
C28   H8    S    
C33   H1    S    
C22   C32   S    
C36   C37   A    
O22   S6    D    
C4    C24   S    
O9    S3    D    
O35   S8    S    
O14   S4    S    
C18   O38   A    
O27   S7    D    
C16   C34   S    
O10   S3    S    
C2    C7    A    
C8    C9    A    
O12   Zn2   S    
C6    S3    S    
H10   O24   S    
C14   C27   S    
H3    O7    S    
O24   S6    S    
C27   H7    S    
O11   S4    D    
C13   C14   A    
O37   Zn2   S    
C32   H16   S    
C10   N2    A    
H4    O10   S    
N2    Zn2   S    
O18   S5    D    
H14   O29   S    
O39   Zn2   S    
C21   H22   S    
C27   O16   D    
O6    S2    D    
O33   S8    D    
O3    S1    D    
C23   S2    S    
C6    C34   A    
C23   C31   S    
C36   H18   S    
C8    S6    S    
C2    C38   A    
C1    O1    A    
O8    S3    D    
C5    C34   A    
C12   C20   S    
O19   S5    D    
C10   S7    S    
O28   S7    D    
C33   S8    S    
H9    O20   S    
C31   H15   S    
C20   H21   S    
C19   C28   S    
C9    C30   S    
O29   S7    S    
O21   S6    D    
C21   C23   S    
C22   C24   S    
C5    H12   S    
O7    S2    S    
O4    S1    S    
O2    S1    D    
C12   C18   S    
C1    C35   S    
C15   C17   A    
C22   C33   S    
C11   C17   A    
C35   C37   A    
C28   O17   D    
C7    S4    S    
C1    O12   A    
O1    Zn1   S    
O13   S4    D    
C16   O36   A    
O36   Zn1   S    
C26   O15   D    
C3    C5    A    
O5    S2    D    
C25   O40   D    
C6    C7    A    
C25   H24   S    
C31   O30   D    
O20   S5    S    
C26   C38   S    
C2    C3    A    
O38   Zn1   S    
C22   H23   S    
C11   C13   A    
C3    C36   A    
C14   N1    A    
C19   C24   S    
C18   O39   A    
C19   C25   S    
C21   S1    S    
O23   Zn1   S    
O34   Zn2   S    
C10   C11   A    
N1    Zn1   S    
C16   O37   A    
C32   O31   D    
H2    O4    S    
C21   C24   S    
H17   O35   S    
C15   N1    A    
C35   C38   A    
C12   C33   S    
C20   H20   S    
C37   H19   S    
