data_mof_unit_18197.cif
_audit_creation_date              2013-03-05T15:44:02-0500
_audit_creation_method            fapswitch 2.2
_symmetry_space_group_name_H-M    P1
_symmetry_Int_Tables_number       1
_space_group_crystal_system       triclinic
_cell_length_a                    31.149833
_cell_length_b                    22.850233
_cell_length_c                    17.981393
_cell_angle_alpha                 90.30496
_cell_angle_beta                  123.56287
_cell_angle_gamma                 90.391301
_cell_volume                      10664.1062899

loop_
_atom_site_label
_atom_site_type_symbol
_atom_site_description
_atom_site_fract_x
_atom_site_fract_y
_atom_site_fract_z
_atom_type_partial_charge
C1    C     C_R   0.539665 0.599477 0.726298 -0.131827
C2    C     C_R   0.465400 0.392216 0.289544 -0.108085
C3    C     C_R   0.460306 0.597394 0.272129 -0.123461
C4    C     C_R   0.542698 0.411291 0.737610 -0.121702
C5    C     C_R   0.045423 0.082582 0.743944 -0.142653
C6    C     C_R   0.955075 0.915649 0.257330 -0.115013
C7    C     C_R   0.958463 0.091795 0.265733 -0.138595
C8    C     C_R   0.044859 0.915185 0.741990 -0.131325
H1    H     H_    0.513620 0.606500 0.746953 0.110819
H2    H     H_    0.495098 0.380033 0.279181 0.110238
H3    H     H_    0.486621 0.603916 0.251771 0.111568
H4    H     H_    0.517382 0.410040 0.761059 0.112569
H5    H     H_    0.020686 0.079491 0.768407 0.124141
H6    H     H_    0.980224 0.917064 0.233564 0.115170
H7    H     H_    0.984114 0.095526 0.243301 0.121488
H8    H     H_    0.020310 0.916234 0.766982 0.119748
N1    N     N_R   0.532970 0.559900 0.665210 -0.051691
N2    N     N_R   0.467030 0.440100 0.334790 -0.050666
N3    N     N_R   0.467030 0.559900 0.334790 -0.051676
N4    N     N_R   0.532970 0.440100 0.665210 -0.050881
N5    N     N_R   0.032970 0.059900 0.665210 -0.054274
N6    N     N_R   0.967030 0.940100 0.334790 -0.051906
N7    N     N_R   0.967030 0.059900 0.334790 -0.052737
N8    N     N_R   0.032970 0.940100 0.665210 -0.052262
C9    C     C_R   0.629780 0.605732 0.573644 -0.050321
C10   C     C_R   0.358877 0.410885 0.429366 -0.099568
C11   C     C_R   0.372534 0.606917 0.427393 -0.044594
C12   C     C_R   0.642742 0.416413 0.571447 -0.096603
C13   C     C_R   0.124753 0.109511 0.574705 -0.035454
C14   C     C_R   0.870467 0.893979 0.426514 -0.038477
C15   C     C_R   0.872578 0.107320 0.429312 -0.055669
C16   C     C_R   0.140677 0.911105 0.571000 -0.088410
H9    H     H_    0.663267 0.612438 0.640391 0.098768
H10   H     H_    0.324576 0.408464 0.362483 0.113225
H11   H     H_    0.340308 0.615088 0.360349 0.098921
H12   H     H_    0.675835 0.414506 0.639598 0.108504
H13   H     H_    0.155410 0.119219 0.643047 0.112631
H14   H     H_    0.838321 0.885917 0.358683 0.110057
H15   H     H_    0.841066 0.117158 0.362214 0.102857
H16   H     H_    0.173961 0.907700 0.638726 0.112725
N9    N     N_R   0.597900 0.559930 0.545530 -0.043988
N10   N     N_R   0.402100 0.440070 0.454470 -0.052250
N11   N     N_R   0.402100 0.559930 0.454470 -0.044040
N12   N     N_R   0.597900 0.440070 0.545530 -0.051076
N13   N     N_R   0.097900 0.059930 0.545530 -0.043865
N14   N     N_R   0.902100 0.940070 0.454470 -0.046784
N15   N     N_R   0.902100 0.059930 0.454470 -0.045290
N16   N     N_R   0.097900 0.940070 0.545530 -0.052136
C17   C     C_R   0.579215 0.606028 0.424559 -0.029812
C18   C     C_R   0.410962 0.409874 0.578641 -0.032485
C19   C     C_R   0.422305 0.606749 0.576539 -0.024280
C20   C     C_R   0.592637 0.415741 0.422615 -0.051491
C21   C     C_R   0.074836 0.109647 0.425394 -0.025132
C22   C     C_R   0.921973 0.893755 0.576291 -0.025832
C23   C     C_R   0.925887 0.107828 0.578604 -0.020526
C24   C     C_R   0.089493 0.910739 0.421332 -0.017005
H17   H     H_    0.567076 0.613012 0.356404 0.125867
H18   H     H_    0.425536 0.405809 0.648634 0.130714
H19   H     H_    0.434256 0.614282 0.644600 0.122505
H20   H     H_    0.579130 0.412795 0.352994 0.149309
H21   H     H_    0.061160 0.119189 0.357144 0.124740
H22   H     H_    0.936879 0.885711 0.645658 0.127440
H23   H     H_    0.944128 0.118017 0.648604 0.131715
H24   H     H_    0.075200 0.906631 0.351339 0.138240
N17   N     N_R   0.567170 0.559950 0.454460 -0.046807
N18   N     N_R   0.432830 0.440050 0.545540 -0.057132
N19   N     N_R   0.432830 0.559950 0.545540 -0.045816
N20   N     N_R   0.567170 0.440050 0.454460 -0.060908
N21   N     N_R   0.067170 0.059950 0.454460 -0.041840
N22   N     N_R   0.932830 0.940050 0.545540 -0.047220
N23   N     N_R   0.932830 0.059950 0.545540 -0.045286
N24   N     N_R   0.067170 0.940050 0.454460 -0.059736
C25   C     C_R   0.387923 0.595802 0.270938 -0.136930
C26   C     C_R   0.614636 0.411949 0.736602 -0.120914
C27   C     C_R   0.611748 0.598349 0.726806 -0.136743
C28   C     C_R   0.392680 0.393720 0.288242 -0.114267
C29   C     C_R   0.886407 0.091254 0.265796 -0.146993
C30   C     C_R   0.116031 0.915671 0.739576 -0.121338
C31   C     C_R   0.116758 0.082455 0.742917 -0.131258
C32   C     C_R   0.883536 0.916473 0.258359 -0.130943
H25   H     H_    0.347968 0.599258 0.248344 0.100275
H26   H     H_    0.654868 0.412834 0.759468 0.095471
H27   H     H_    0.651424 0.603160 0.748133 0.096287
H28   H     H_    0.355191 0.384731 0.275479 0.095078
H29   H     H_    0.846378 0.093999 0.243474 0.102572
H30   H     H_    0.155929 0.919083 0.761168 0.090309
H31   H     H_    0.156596 0.079148 0.764746 0.093179
H32   H     H_    0.843784 0.920121 0.236878 0.095527
N25   N     N_R   0.421470 0.559970 0.334770 -0.049876
N26   N     N_R   0.578530 0.440030 0.665230 -0.046919
N27   N     N_R   0.578530 0.559970 0.665230 -0.049367
N28   N     N_R   0.421470 0.440030 0.334770 -0.048789
N29   N     N_R   0.921470 0.059970 0.334770 -0.049053
N30   N     N_R   0.078530 0.940030 0.665230 -0.047268
N31   N     N_R   0.078530 0.059970 0.665230 -0.052698
N32   N     N_R   0.921470 0.940030 0.334770 -0.050790
C33   C     C_R   0.587187 0.626999 0.761601 0.106636
C34   C     C_R   0.419688 0.361368 0.260987 0.095843
C35   C     C_R   0.412339 0.622986 0.234671 0.106266
C36   C     C_R   0.593287 0.392512 0.782830 0.103691
C37   C     C_R   0.097613 0.097414 0.794389 0.111724
C38   C     C_R   0.902847 0.900516 0.207388 0.103418
C39   C     C_R   0.909466 0.114294 0.224442 0.111221
C40   C     C_R   0.096496 0.898860 0.789655 0.105254
C41   C     C_R   0.617846 0.635827 0.498599 0.051719
C42   C     C_R   0.364624 0.391546 0.506789 0.107689
C43   C     C_R   0.385640 0.637405 0.503330 0.051161
C44   C     C_R   0.640047 0.400824 0.494973 0.137458
C45   C     C_R   0.111140 0.141003 0.499988 0.040725
C46   C     C_R   0.882612 0.864451 0.502550 0.048650
C47   C     C_R   0.887574 0.137718 0.507202 0.048362
C48   C     C_R   0.135584 0.892732 0.493366 0.103965
Ni1   Ni    Ni4+2 0.483030 0.500000 0.604430 0.256244
Ni2   Ni    Ni4+2 0.516970 0.500000 0.395570 0.261612
Ni3   Ni    Ni4+2 0.983030 0.000000 0.604430 0.265513
Ni4   Ni    Ni4+2 0.016970 1.000000 0.395570 0.258137
Ni5   Ni    Ni4+2 0.587400 0.500000 0.604430 0.233270
Ni6   Ni    Ni4+2 0.412600 0.500000 0.395570 0.240661
Ni7   Ni    Ni4+2 0.087400 0.000000 0.604430 0.228894
Ni8   Ni    Ni4+2 0.912600 1.000000 0.395570 0.242013
C49   C     C_R   0.689163 0.314039 0.541778 -0.194871
C50   C     C_R   0.347270 0.732140 0.475182 -0.196604
C51   C     C_R   0.327606 0.297554 0.490021 -0.208062
C52   C     C_R   0.661733 0.727917 0.523200 -0.201519
C53   C     C_R   0.172426 0.799253 0.512483 -0.179587
C54   C     C_R   0.849004 0.233043 0.472759 -0.197022
C55   C     C_R   0.843126 0.771258 0.490603 -0.169830
C56   C     C_R   0.154874 0.233492 0.535856 -0.176218
C57   C     C_R   0.676859 0.365188 0.493403 -0.101498
C58   C     C_R   0.350701 0.675617 0.504884 -0.086337
C59   C     C_R   0.329642 0.355827 0.512884 -0.102111
C60   C     C_R   0.655626 0.669760 0.497507 -0.087007
C61   C     C_R   0.170377 0.856796 0.487709 -0.106879
C62   C     C_R   0.857530 0.180240 0.515898 -0.080483
C63   C     C_R   0.846041 0.830652 0.507358 -0.090753
C64   C     C_R   0.147729 0.177823 0.500349 -0.087460
C65   C     C_R   0.700774 0.381673 0.449681 0.350072
C66   C     C_R   0.317395 0.653008 0.526866 0.327105
C67   C     C_R   0.301322 0.378145 0.545321 0.330903
C68   C     C_R   0.688350 0.641745 0.478796 0.337752
C69   C     C_R   0.199803 0.878507 0.456892 0.341257
C70   C     C_R   0.835767 0.166434 0.564133 0.328058
C71   C     C_R   0.815088 0.858471 0.530531 0.329345
C72   C     C_R   0.180062 0.153838 0.477113 0.330332
C73   C     C_R   0.738721 0.345426 0.456439 -0.073728
C74   C     C_R   0.279345 0.688558 0.519057 -0.075475
C75   C     C_R   0.267758 0.340731 0.550594 -0.072723
C76   C     C_R   0.728915 0.673040 0.486695 -0.081130
C77   C     C_R   0.234636 0.841263 0.455668 -0.069156
C78   C     C_R   0.801075 0.204794 0.562478 -0.072215
C79   C     C_R   0.778932 0.825515 0.534676 -0.068462
C80   C     C_R   0.219493 0.188134 0.486261 -0.076925
C81   C     C_R   0.751246 0.293246 0.506010 0.024372
C82   C     C_R   0.275195 0.746487 0.488544 0.027924
C83   C     C_R   0.262505 0.282137 0.520798 0.029491
C84   C     C_R   0.735431 0.732733 0.511980 0.028928
C85   C     C_R   0.238033 0.782733 0.483513 0.024686
C86   C     C_R   0.788945 0.256895 0.512866 0.024128
C87   C     C_R   0.774521 0.764937 0.515279 0.026638
C88   C     C_R   0.225766 0.246106 0.518617 0.023331
C89   C     C_R   0.725701 0.277123 0.548138 -0.018840
C90   C     C_R   0.308831 0.768320 0.464768 -0.024309
C91   C     C_R   0.293570 0.259860 0.492154 -0.020471
C92   C     C_R   0.701809 0.760503 0.531146 -0.026614
C93   C     C_R   0.205005 0.760889 0.508412 -0.014429
C94   C     C_R   0.814040 0.272064 0.469350 -0.020019
C95   C     C_R   0.807901 0.737138 0.495609 -0.020278
C96   C     C_R   0.194723 0.268179 0.547446 -0.020932
C97   C     C_R   0.764488 0.360451 0.415202 -0.159760
C98   C     C_R   0.244497 0.666556 0.538363 -0.186358
C99   C     C_R   0.239962 0.360478 0.585952 -0.190285
C100  C     C_R   0.763301 0.645428 0.471095 -0.191916
C101  C     C_R   0.266164 0.861384 0.427840 -0.166427
C102  C     C_R   0.776316 0.190180 0.605468 -0.152102
C103  C     C_R   0.746100 0.852403 0.554654 -0.177268
C104  C     C_R   0.253175 0.165180 0.465285 -0.177324
C105  C     C_R   0.303562 0.825794 0.432699 0.304067
C106  C     C_R   0.738166 0.225328 0.597709 0.316250
C107  C     C_R   0.708104 0.820372 0.554668 0.313469
C108  C     C_R   0.290193 0.200482 0.467662 0.314684
C109  C     C_R   0.802785 0.325183 0.422733 0.301431
C110  C     C_R   0.206865 0.701968 0.532348 0.313714
C111  C     C_R   0.203670 0.324623 0.585321 0.317762
C112  C     C_R   0.803489 0.676605 0.477113 0.313019
H33   H     H_    0.670207 0.304024 0.575770 0.183954
H34   H     H_    0.374848 0.746812 0.460406 0.196253
H35   H     H_    0.352945 0.282566 0.470527 0.193931
H36   H     H_    0.634459 0.746977 0.535451 0.195801
H37   H     H_    0.148870 0.785356 0.536510 0.188060
H38   H     H_    0.869159 0.241949 0.440704 0.195159
H39   H     H_    0.867632 0.752776 0.471468 0.191525
H40   H     H_    0.128837 0.249022 0.553552 0.192331
H41   H     H_    0.754778 0.399385 0.375294 0.231737
H42   H     H_    0.245551 0.621336 0.556839 0.227137
H43   H     H_    0.246764 0.403566 0.615914 0.222563
H44   H     H_    0.759726 0.599089 0.455546 0.230826
H45   H     H_    0.262051 0.904975 0.401701 0.224674
H46   H     H_    0.784786 0.150046 0.642598 0.224825
H47   H     H_    0.749646 0.898668 0.570513 0.222413
H48   H     H_    0.250433 0.119881 0.445006 0.227721
C113  C     C_R   0.392338 0.673255 0.174283 0.067043
C114  C     C_R   0.623707 0.366385 0.871127 0.070148
C115  C     C_R   0.605634 0.681236 0.815751 0.070267
C116  C     C_R   0.403054 0.304031 0.213749 0.067555
C117  C     C_R   0.886892 0.158584 0.155284 0.058697
C118  C     C_R   0.128665 0.877769 0.882278 0.070082
C119  C     C_R   0.128941 0.115703 0.889689 0.068030
C120  C     C_R   0.870868 0.881972 0.112354 0.070052
C121  C     C_R   0.393832 0.738320 0.069347 0.333292
C122  C     C_R   0.645279 0.349008 0.021337 0.340233
C123  C     C_R   0.599470 0.755337 0.906954 0.332898
C124  C     C_R   0.411172 0.225731 0.129968 0.339609
C125  C     C_R   0.878364 0.208857 0.029596 0.338033
C126  C     C_R   0.143424 0.853102 0.026486 0.337199
C127  C     C_R   0.135482 0.151908 0.023566 0.334445
C128  C     C_R   0.860781 0.850527 0.973434 0.336730
C129  C     C_R   0.413500 0.690421 0.126496 -0.245977
C130  C     C_R   0.611521 0.371116 0.935076 -0.244845
C131  C     C_R   0.581798 0.703389 0.856738 -0.248006
C132  C     C_R   0.429829 0.277386 0.181014 -0.237541
C133  C     C_R   0.901941 0.166387 0.095868 -0.240369
C134  C     C_R   0.111462 0.875278 0.939619 -0.245986
C135  C     C_R   0.106068 0.128999 0.936371 -0.246411
C136  C     C_R   0.891687 0.872564 0.061303 -0.244048
C137  C     C_R   0.352693 0.705738 0.167962 -0.199784
C138  C     C_R   0.669084 0.340223 0.892966 -0.228402
C139  C     C_R   0.645993 0.712807 0.821720 -0.209290
C140  C     C_R   0.358935 0.276379 0.199790 -0.192683
C141  C     C_R   0.850228 0.194607 0.151839 -0.204868
C142  C     C_R   0.178599 0.860386 0.913563 -0.234541
C143  C     C_R   0.182399 0.121649 0.933644 -0.221317
C144  C     C_R   0.818181 0.872798 0.072676 -0.226217
C145  C     C_R   0.331747 0.753918 0.111646 0.074283
C146  C     C_R   0.705604 0.323630 0.979400 0.062461
C147  C     C_R   0.664879 0.764957 0.871067 0.073011
C148  C     C_R   0.338785 0.224744 0.148964 0.073941
C149  C     C_R   0.824503 0.236160 0.085575 0.072458
C150  C     C_R   0.212165 0.840977 0.000321 0.061604
C151  C     C_R   0.212912 0.145501 0.019946 0.064856
C152  C     C_R   0.786284 0.851038 0.985811 0.064018
C153  C     C_R   0.352466 0.770131 0.061025 -0.016476
C154  C     C_R   0.692081 0.322991 0.042677 -0.023857
C155  C     C_R   0.641655 0.786121 0.915334 -0.018529
C156  C     C_R   0.364796 0.199747 0.112005 -0.020257
C157  C     C_R   0.839215 0.243947 0.023878 -0.016505
C158  C     C_R   0.193250 0.832620 0.055196 -0.013350
C159  C     C_R   0.188545 0.164259 0.063025 -0.014810
C160  C     C_R   0.808458 0.835752 0.937776 -0.014684
C161  C     C_R   0.288429 0.783866 0.099847 0.097992
C162  C     C_R   0.753537 0.302776 0.000606 0.105340
C163  C     C_R   0.709187 0.793745 0.883765 0.097317
C164  C     C_R   0.291009 0.200271 0.127858 0.095534
C165  C     C_R   0.782708 0.267826 0.076405 0.086519
C166  C     C_R   0.262345 0.823290 0.028643 0.105876
C167  C     C_R   0.266037 0.157744 0.058956 0.105675
C168  C     C_R   0.734326 0.836445 0.951891 0.104854
C169  C     C_R   0.772552 0.315670 0.947065 -0.194971
C170  C     C_R   0.268812 0.774470 0.153652 -0.143056
C171  C     C_R   0.266284 0.218232 0.170407 -0.149450
C172  C     C_R   0.730978 0.779556 0.834755 -0.146924
C173  C     C_R   0.286521 0.843165 0.986237 -0.210235
C174  C     C_R   0.767214 0.263896 0.137200 -0.137792
C175  C     C_R   0.707738 0.861237 0.987059 -0.203655
C176  C     C_R   0.294466 0.130061 0.029482 -0.202244
C177  C     C_R   0.814952 0.287103 0.959098 -0.081650
C178  C     C_R   0.223143 0.800310 0.133518 -0.100384
C179  C     C_R   0.216782 0.198833 0.140487 -0.093829
C180  C     C_R   0.778959 0.801968 0.859557 -0.091550
C181  C     C_R   0.331452 0.817865 0.003704 -0.098185
C182  C     C_R   0.724007 0.292996 0.122260 -0.076032
C183  C     C_R   0.661404 0.837346 0.967085 -0.099765
C184  C     C_R   0.343597 0.149668 0.057700 -0.095810
H49   H     H_    0.827676 0.298484 0.915907 0.177654
H50   H     H_    0.209858 0.790835 0.176484 0.174791
H51   H     H_    0.199615 0.215372 0.174639 0.179517
H52   H     H_    0.794237 0.788180 0.821059 0.175180
H53   H     H_    0.348404 0.834990 0.969510 0.184272
H54   H     H_    0.714227 0.288201 0.171023 0.176931
H55   H     H_    0.642644 0.858023 0.995882 0.186219
H56   H     H_    0.363761 0.126385 0.033603 0.184395
H57   H     H_    0.675120 0.331155 0.840378 0.140334
H58   H     H_    0.337693 0.691839 0.206275 0.115822
H59   H     H_    0.338836 0.297354 0.225012 0.114732
H60   H     H_    0.663577 0.695128 0.789516 0.114318
H61   H     H_    0.190230 0.857271 0.867377 0.131448
H62   H     H_    0.841985 0.188652 0.201800 0.122573
H63   H     H_    0.802539 0.877007 0.112646 0.124683
H64   H     H_    0.199782 0.112669 0.897374 0.123782
H65   H     H_    0.576611 0.392831 0.918828 0.170940
H66   H     H_    0.444260 0.665519 0.130983 0.170441
H67   H     H_    0.464194 0.297834 0.191450 0.170217
H68   H     H_    0.550334 0.679550 0.852338 0.170349
H69   H     H_    0.073355 0.890437 0.917279 0.176064
H70   H     H_    0.930735 0.138302 0.098967 0.177106
H71   H     H_    0.932021 0.881666 0.089591 0.176353
H72   H     H_    0.065115 0.122527 0.905015 0.176974
H73   H     H_    0.755058 0.348385 0.895477 0.130800
H74   H     H_    0.288254 0.748134 0.212825 0.152508
H75   H     H_    0.284434 0.246946 0.227880 0.163407
H76   H     H_    0.711569 0.751632 0.776262 0.148970
H77   H     H_    0.271187 0.878981 0.939608 0.135597
H78   H     H_    0.787556 0.239181 0.197747 0.153856
H79   H     H_    0.722432 0.899477 0.030251 0.142665
H80   H     H_    0.279503 0.092269 0.985459 0.136743
N33   N     N_R   0.414710 0.751980 0.017402 0.240859
O1    O     O_R   0.464253 0.750182 0.054172 -0.314907
O2    O     O_R   0.384389 0.754590 0.930871 -0.355234
N34   N     N_R   0.632124 0.354847 0.086083 0.240926
O3    O     O_R   0.584168 0.351084 0.060879 -0.337523
O4    O     O_R   0.666327 0.373746 0.166423 -0.357108
N35   N     N_R   0.575777 0.774220 0.952362 0.241139
O5    O     O_R   0.525924 0.771179 0.911674 -0.315935
O6    O     O_R   0.603824 0.783014 0.038305 -0.356526
N36   N     N_R   0.438263 0.202576 0.092834 0.239141
O7    O     O_R   0.488336 0.200560 0.141808 -0.334138
O8    O     O_R   0.414348 0.194989 0.006950 -0.365522
N37   N     N_R   0.892823 0.213459 0.966518 0.237987
O9    O     O_R   0.941025 0.209160 0.993757 -0.314359
O10   O     O_R   0.857746 0.210332 0.881299 -0.341760
N38   N     N_R   0.124698 0.851744 0.083803 0.238074
O11   O     O_R   0.075979 0.842348 0.050096 -0.327999
O12   O     O_R   0.154131 0.869497 0.166400 -0.365037
N39   N     N_R   0.110616 0.163741 0.069629 0.236869
O13   O     O_R   0.063162 0.181485 0.025511 -0.321276
O14   O     O_R   0.132017 0.147613 0.152059 -0.341811
N40   N     N_R   0.883382 0.842275 0.922804 0.237380
O15   O     O_R   0.931449 0.827368 0.962871 -0.331937
O16   O     O_R   0.858932 0.858934 0.840110 -0.355845
N41   N     N_R   0.689362 0.436427 0.404371 0.256462
O17   O     O_R   0.647583 0.441193 0.325072 -0.320061
O18   O     O_R   0.726011 0.475260 0.431704 -0.320805
N42   N     N_R   0.321413 0.593317 0.553951 0.239388
O19   O     O_R   0.315179 0.551228 0.499746 -0.354924
O20   O     O_R   0.336574 0.581507 0.635639 -0.317948
N43   N     N_R   0.305300 0.438720 0.569520 0.252275
O21   O     O_R   0.346691 0.458071 0.642283 -0.339975
O22   O     O_R   0.264264 0.470914 0.529608 -0.318234
N44   N     N_R   0.679788 0.581551 0.451283 0.237861
O23   O     O_R   0.687121 0.541034 0.507625 -0.389979
O24   O     O_R   0.657109 0.568519 0.367029 -0.319306
N45   N     N_R   0.196298 0.938637 0.432075 0.250835
O25   O     O_R   0.156291 0.956136 0.356877 -0.309098
O26   O     O_R   0.236401 0.973031 0.476751 -0.321600
N46   N     N_R   0.845424 0.111184 0.607948 0.221138
O27   O     O_R   0.821467 0.064448 0.561399 -0.290954
O28   O     O_R   0.874038 0.108675 0.694642 -0.348081
N47   N     N_R   0.818750 0.920621 0.544761 0.233774
O29   O     O_R   0.839886 0.942074 0.624982 -0.313115
O30   O     O_R   0.801184 0.955601 0.477326 -0.348013
N48   N     N_R   0.173291 0.094322 0.446355 0.237240
O31   O     O_R   0.180149 0.051740 0.499434 -0.357488
O32   O     O_R   0.156718 0.083061 0.363581 -0.306234
N49   N     N_R   0.336096 0.849359 0.406293 0.243160
O33   O     O_R   0.352895 0.903125 0.427272 -0.311047
O34   O     O_R   0.341583 0.821350 0.348964 -0.418382
N50   N     N_R   0.711706 0.206822 0.638560 0.234617
O35   O     O_R   0.737853 0.186951 0.719615 -0.328496
O36   O     O_R   0.661964 0.199048 0.589844 -0.357021
N51   N     N_R   0.675797 0.849780 0.576679 0.244166
O37   O     O_R   0.659422 0.902194 0.547008 -0.317637
O38   O     O_R   0.670491 0.829197 0.638491 -0.406340
N52   N     N_R   0.323747 0.175024 0.445253 0.243518
O39   O     O_R   0.344729 0.124670 0.478404 -0.311688
O40   O     O_R   0.325115 0.195554 0.379303 -0.418626
N53   N     N_R   0.830361 0.345220 0.384585 0.244842
O41   O     O_R   0.845168 0.399720 0.394789 -0.302879
O42   O     O_R   0.832475 0.312924 0.327032 -0.429199
N54   N     N_R   0.170641 0.677158 0.549525 0.240075
O43   O     O_R   0.186107 0.639827 0.613727 -0.320212
O44   O     O_R   0.121412 0.683487 0.491912 -0.354028
N55   N     N_R   0.177022 0.345961 0.624414 0.240485
O45   O     O_R   0.162630 0.400281 0.613796 -0.314976
O46   O     O_R   0.175452 0.314732 0.683203 -0.376690
N56   N     N_R   0.839300 0.646083 0.464595 0.241008
O47   O     O_R   0.822875 0.604840 0.404330 -0.312991
O48   O     O_R   0.888612 0.651851 0.523241 -0.349975

loop_
_geom_bond_atom_site_label_1
_geom_bond_atom_site_label_2
_geom_bond_distance
_ccdc_geom_bond_type
N21   Ni4   1.888781 S    
C127  C159  1.417712 A    
C21   N21   1.326794 A    
C139  H60   1.072255 S    
C146  C162  1.408517 A    
C31   H31   1.078300 S    
C9    C41   1.375030 A    
C2    C34   1.400735 A    
C113  C137  1.395411 A    
C179  H51   1.081324 S    
C150  C166  1.413025 A    
C99   C111  1.386531 A    
N16   N24   1.365533 A    
C131  H68   1.081704 S    
C28   C34   1.398200 A    
C14   H14   1.081182 S    
C69   N45   1.433044 S    
C90   C105  1.410869 A    
C37   C119  1.483659 S    
C166  C173  1.410240 A    
C24   N24   1.321749 A    
C142  C150  1.390603 A    
C3    N3    1.341329 A    
N40   O15   1.301433 A    
N29   Ni8   1.869267 S    
C4    H4    1.080697 S    
C75   C83   1.413828 A    
C117  C141  1.385947 A    
C5    H5    1.080080 S    
C162  C165  1.404720 A    
C183  H55   1.081013 S    
C8    H8    1.080451 S    
C28   H28   1.076327 S    
C25   H25   1.078383 S    
N54   O43   1.301394 A    
N49   O34   1.300295 A    
C5    C37   1.392582 A    
N13   N21   1.365543 A    
N39   O13   1.301447 A    
N26   Ni5   1.869267 S    
C169  C177  1.383675 A    
C122  C154  1.421886 A    
C99   H43   1.081579 S    
C9    N9    1.327473 A    
N43   O22   1.301652 A    
C26   C36   1.393404 A    
C124  C132  1.400965 A    
C11   H11   1.078319 S    
N36   O7    1.301222 A    
C30   C40   1.391075 A    
C12   N12   1.324290 A    
C13   N13   1.324367 A    
C176  H80   1.081146 S    
C163  C172  1.415599 A    
C51   C91   1.378504 A    
C22   N22   1.321842 A    
C49   C89   1.374858 A    
C149  C157  1.426739 A    
C137  H58   1.072379 S    
C8    C40   1.395817 A    
C147  C155  1.424141 A    
C70   N46   1.434836 S    
C92   C107  1.409724 A    
C120  C144  1.394798 A    
C116  C132  1.399565 A    
C151  C167  1.420184 A    
C143  H64   1.072940 S    
C29   C39   1.391271 A    
C144  H63   1.072546 S    
C121  C153  1.418400 A    
C58   C66   1.395616 A    
C129  H66   1.082025 S    
C21   C45   1.375804 A    
C174  H78   1.074430 S    
C23   C47   1.365809 A    
C156  C184  1.401360 A    
N6    N32   1.418978 A    
C157  C177  1.396245 A    
C55   C63   1.380084 A    
C103  C107  1.387452 A    
N22   Ni3   1.888783 S    
C128  C160  1.419950 A    
C121  C129  1.397974 A    
C26   N26   1.321497 A    
C127  N39   1.438382 S    
C32   H32   1.078114 S    
N53   O41   1.301322 A    
C110  N54   1.438247 S    
C70   C78   1.383710 A    
C163  C168  1.407845 A    
C173  H77   1.082012 S    
C30   N30   1.323490 A    
C81   C89   1.417110 A    
C87   C95   1.422315 A    
C88   C96   1.419957 A    
N48   O31   1.300226 A    
N14   N22   1.365542 A    
C3    H3    1.076508 S    
N11   Ni6   1.864849 S    
C25   N25   1.332406 A    
N43   O21   1.300206 A    
C4    N4    1.340019 A    
C5    N5    1.343747 A    
C54   C62   1.383707 A    
C19   C43   1.373463 A    
N51   O37   1.301334 A    
N39   O14   1.301457 A    
C38   C120  1.482000 S    
C23   N23   1.317432 A    
N38   O12   1.301484 A    
C119  C135  1.402160 A    
N18   Ni1   1.888783 S    
C106  N50   1.437259 S    
N1    N27   1.418975 A    
C161  C170  1.417606 A    
N1    Ni1   1.887582 S    
C171  H75   1.076947 S    
C112  N56   1.438081 S    
C12   C44   1.375352 A    
N4    Ni1   1.911278 S    
C50   H34   1.081803 S    
N52   O39   1.301224 A    
C105  N49   1.438638 S    
C17   H17   1.077446 S    
C52   C60   1.381471 A    
C81   C86   1.392294 A    
C54   H38   1.080448 S    
N28   Ni6   1.863495 S    
N56   O47   1.301422 A    
C20   H20   1.079393 S    
C21   H21   1.077556 S    
C78   C86   1.414444 A    
N33   O2    1.301311 A    
C23   H23   1.079656 S    
C24   H24   1.081499 S    
C172  C180  1.394666 A    
C126  C134  1.408409 A    
C173  C181  1.385164 A    
C27   N27   1.332735 A    
C159  C179  1.400735 A    
N6    Ni4   1.887582 S    
C29   H29   1.080631 S    
C184  H56   1.080925 S    
C7    C39   1.380870 A    
C98   C110  1.383558 A    
N41   O18   1.301284 A    
C24   C48   1.365967 A    
C125  C133  1.398399 A    
C148  C164  1.425975 A    
C57   C65   1.400647 A    
N34   O4    1.301466 A    
C116  C140  1.398560 A    
C155  C183  1.400015 A    
N45   O26   1.301435 A    
C152  C168  1.414804 A    
C101  H45   1.081493 S    
C171  C179  1.390865 A    
N42   O19   1.300335 A    
C126  C158  1.421635 A    
C85   C93   1.418714 A    
C52   H36   1.082110 S    
N5    N31   1.418975 A    
C83   C91   1.419783 A    
C55   H39   1.082892 S    
N7    N29   1.418999 A    
C32   C38   1.394233 A    
C56   H40   1.083100 S    
C22   C46   1.375342 A    
C79   C87   1.412751 A    
C53   C93   1.377436 A    
C6    H6    1.080443 S    
C95   C112  1.408777 A    
C96   C111  1.407425 A    
C180  H52   1.081169 S    
N50   O36   1.301356 A    
N14   Ni8   1.869843 S    
C19   N19   1.327494 A    
C125  C157  1.419946 A    
C103  H47   1.082354 S    
C146  C154  1.415041 A    
C164  C167  1.412667 A    
C140  H59   1.069146 S    
C177  H49   1.081222 S    
N15   Ni8   1.864849 S    
C141  H62   1.071170 S    
N44   O24   1.300728 A    
N35   O6    1.301276 A    
C170  C178  1.395585 A    
C10   N10   1.331821 A    
C18   C42   1.360926 A    
C82   C90   1.421248 A    
C39   C117  1.456497 S    
C47   C62   1.420210 S    
C120  C136  1.402679 A    
C123  C131  1.399090 A    
C1    N1    1.342186 A    
C50   C90   1.385459 A    
N2    N28   1.418978 A    
C114  C130  1.399966 A    
C74   C98   1.400968 A    
C121  N33   1.436952 S    
C72   C80   1.382734 A    
C77   C85   1.414591 A    
C118  C134  1.401638 A    
C7    N7    1.337983 A    
C142  H61   1.076296 S    
C71   C79   1.386697 A    
C8    N8    1.346565 A    
C153  C181  1.398670 A    
C59   C67   1.396566 A    
C3    C35   1.389791 A    
C104  C108  1.383694 A    
N46   O27   1.298824 A    
N11   N19   1.365532 A    
C15   C47   1.387122 A    
C31   C37   1.392421 A    
N40   O16   1.301454 A    
N9    Ni5   1.869843 S    
C158  C178  1.402139 A    
C9    H9    1.078712 S    
N5    Ni3   1.887582 S    
C10   C42   1.377514 A    
N54   O44   1.301428 A    
N49   O33   1.301375 A    
C145  C161  1.425382 A    
C114  C138  1.381964 A    
C111  N55   1.438046 S    
C14   C46   1.381704 A    
C93   C110  1.407468 A    
C149  C165  1.422134 A    
C33   C115  1.474118 S    
C56   C64   1.380458 A    
C118  C142  1.391751 A    
N36   O8    1.301252 A    
N55   O45   1.301370 A    
C6    N6    1.343952 A    
C27   C33   1.391803 A    
C151  C159  1.418063 A    
N41   O17   1.300178 A    
C128  N40   1.438286 S    
N37   O10   1.301368 A    
N7    Ni4   1.911275 S    
C72   N48   1.434885 S    
N27   Ni5   1.863491 S    
C181  H53   1.081080 S    
C40   C118  1.476498 S    
N16   Ni7   1.864853 S    
C102  C106  1.381158 A    
C162  C169  1.412703 A    
C122  N34   1.437962 S    
N13   Ni7   1.869843 S    
C161  C166  1.408188 A    
C176  C184  1.389226 A    
C15   N15   1.334822 A    
C35   C113  1.470259 S    
C16   N16   1.328113 A    
C68   C76   1.384301 A    
C104  H48   1.082588 S    
C43   C58   1.412115 S    
C14   N14   1.328654 A    
C41   C60   1.414137 S    
C42   C59   1.409409 S    
C73   C97   1.403181 A    
C79   C103  1.401770 A    
C107  N51   1.437976 S    
C18   H18   1.081114 S    
C123  C155  1.418285 A    
C1    H1    1.075270 S    
C82   C85   1.390035 A    
N47   O29   1.300968 A    
C98   H42   1.082212 S    
N10   Ni6   1.869843 S    
C17   C41   1.375474 A    
C7    H7    1.078960 S    
C22   H22   1.080930 S    
N3    Ni2   1.911275 S    
C66   N42   1.433595 S    
C31   N31   1.333455 A    
C62   C70   1.400529 A    
C65   C73   1.397715 A    
C11   C43   1.373344 A    
C135  H72   1.080922 S    
C150  C158  1.414416 A    
C123  N35   1.436819 S    
C136  H71   1.081288 S    
C108  N52   1.436902 S    
N48   O32   1.300987 A    
C97   C109  1.387992 A    
C132  H67   1.081457 S    
C169  H73   1.081796 S    
C133  H70   1.082781 S    
C125  N37   1.437324 S    
C86   C94   1.420923 A    
C16   C48   1.377721 A    
C51   C59   1.382119 A    
C49   C57   1.384867 A    
C54   C94   1.387436 A    
C138  C146  1.382268 A    
C97   H41   1.080922 S    
C60   C68   1.395663 A    
N24   Ni4   1.912302 S    
C61   C69   1.397027 A    
C137  C145  1.397966 A    
C182  H54   1.081462 S    
C138  H57   1.080477 S    
C68   N44   1.431633 S    
C64   C72   1.399895 A    
C27   H27   1.077157 S    
N52   O40   1.299889 A    
C178  H50   1.081254 S    
C134  H69   1.081791 S    
C29   N29   1.328324 A    
N56   O48   1.301372 A    
N31   Ni7   1.863491 S    
C130  H65   1.082470 S    
C113  C129  1.397527 A    
C11   N11   1.327123 A    
C167  C176  1.410039 A    
C12   H12   1.081973 S    
N33   O1    1.301287 A    
C168  C175  1.410135 A    
C13   H13   1.080715 S    
C152  C160  1.415918 A    
C76   C84   1.412790 A    
C89   C106  1.407425 A    
C71   N47   1.434208 S    
C164  C171  1.414043 A    
C52   C92   1.386416 A    
C165  C174  1.421235 A    
N35   O5    1.301283 A    
C80   C88   1.412096 A    
C2    N2    1.343782 A    
N17   Ni2   1.888781 S    
C124  N36   1.436425 S    
C147  C163  1.423829 A    
C48   C61   1.411515 S    
N2    Ni2   1.887582 S    
C128  C136  1.407062 A    
C69   C77   1.393162 A    
N45   O25   1.300244 A    
C67   C75   1.389672 A    
C17   N17   1.327454 A    
C154  C182  1.397416 A    
C34   C116  1.482817 S    
N42   O20   1.300911 A    
N53   O42   1.299152 A    
C174  C182  1.392844 A    
C143  C151  1.400598 A    
C117  C133  1.395594 A    
C115  C139  1.396453 A    
C10   H10   1.081075 S    
N55   O46   1.301436 A    
C74   C82   1.414748 A    
C32   N32   1.327446 A    
C126  N38   1.438145 S    
C20   N20   1.330655 A    
C73   C81   1.414761 A    
C30   H30   1.079925 S    
C6    C38   1.395135 A    
C46   C63   1.413974 S    
C13   C45   1.373760 A    
C94   C109  1.410873 A    
C75   C99   1.403018 A    
C102  H46   1.082343 S    
C56   C96   1.382470 A    
C1    C33   1.390582 A    
N9    N17   1.365543 A    
C172  H76   1.078603 S    
N4    N26   1.418997 A    
C63   C71   1.398946 A    
C175  H79   1.081879 S    
N3    N25   1.418999 A    
N8    N30   1.418997 A    
N47   O30   1.300492 A    
N30   Ni7   1.869267 S    
C100  C112  1.386924 A    
C101  C105  1.388257 A    
N15   N23   1.365532 A    
N23   Ni3   1.912301 S    
N51   O38   1.300597 A    
C18   N18   1.319069 A    
C84   C92   1.422730 A    
C44   C57   1.423756 S    
C65   N41   1.432560 S    
C28   N28   1.331163 A    
C145  C153  1.425534 A    
C78   C102  1.400837 A    
N46   O28   1.301204 A    
C4    C36   1.387358 A    
N12   N20   1.365533 A    
C19   H19   1.076611 S    
C2    H2    1.077760 S    
N34   O3    1.301353 A    
C144  C152  1.393971 A    
C26   H26   1.081601 S    
C53   C61   1.381060 A    
C25   C35   1.391335 A    
C83   C88   1.387885 A    
N32   Ni8   1.863495 S    
C84   C87   1.391081 A    
C127  C135  1.402880 A    
C160  C180  1.402935 A    
C139  C147  1.398373 A    
C122  C130  1.406767 A    
C115  C131  1.398881 A    
C66   C74   1.383752 A    
N38   O11   1.301411 A    
C148  C156  1.422001 A    
N19   Ni1   1.912301 S    
C36   C114  1.459266 S    
C124  C156  1.419162 A    
C119  C143  1.398788 A    
C67   N43   1.432551 S    
N12   Ni5   1.864853 S    
C170  H74   1.077196 S    
C175  C183  1.387130 A    
N50   O35   1.301276 A    
C76   C100  1.401312 A    
C15   H15   1.079879 S    
C77   C101  1.402104 A    
C16   H16   1.081688 S    
C51   H35   1.082365 S    
N37   O9    1.301292 A    
C140  C148  1.401944 A    
C100  H44   1.082858 S    
C49   H33   1.083203 S    
C80   C104  1.400408 A    
N25   Ni6   1.869267 S    
C20   C44   1.370051 A    
N8    Ni3   1.911278 S    
C55   C95   1.385009 A    
N44   O23   1.301048 A    
C109  N53   1.437888 S    
C91   C108  1.409398 A    
N10   N18   1.365542 A    
C53   H37   1.083847 S    
C141  C149  1.389285 A    
C50   C58   1.382361 A    
N20   Ni2   1.912302 S    
C45   C64   1.409094 S    
