data_mof_unit_19630.cif
_audit_creation_date              2012-12-10T20:44:02-0500
_audit_creation_method            fapswitch 2.2
_symmetry_space_group_name_H-M    P1
_symmetry_Int_Tables_number       1
_space_group_crystal_system       triclinic
_cell_length_a                    17.255505
_cell_length_b                    10.804259
_cell_length_c                    9.869715
_cell_angle_alpha                 88.625704
_cell_angle_beta                  88.560073
_cell_angle_gamma                 91.117113
_cell_volume                      1838.55795683

loop_
_atom_site_label
_atom_site_type_symbol
_atom_type_description
_atom_site_fract_x
_atom_site_fract_y
_atom_site_fract_z
_atom_type_partial_charge
C1    C     C_R   0.499211 0.260055 0.500952 0.925638
C2    C     C_R   0.885057 0.597050 0.461811 0.155062
C3    C     C_1   0.966156 0.619404 0.460190 -0.048295
C4    C     C_1   0.035040 0.623891 0.464882 -0.058692
C5    C     C_R   0.144308 0.581080 0.604855 -0.160418
C6    C     C_R   0.220886 0.541352 0.619784 0.084487
C7    C     C_R   0.269185 0.535558 0.500409 -0.093383
C8    C     C_R   0.238892 0.569194 0.373377 -0.218360
C9    C     C_R   0.162964 0.605831 0.362143 -0.176641
C10   C     C_R   0.116043 0.611125 0.477627 0.123904
C11   C     C_R   0.490326 0.056975 0.617882 0.057611
C12   C     C_R   0.352389 0.505302 0.501463 0.848611
C13   C     C_R   0.496597 0.128135 0.499648 -0.088939
C14   C     C_R   0.501402 0.066509 0.375219 -0.167981
C15   C     C_R   0.501480 0.937852 0.373744 -0.197953
C16   C     C_R   0.498425 0.869954 0.496902 -0.113046
C17   C     C_R   0.492792 0.933201 0.617059 0.000215
C18   C     C_3   0.496804 0.918819 0.768399 0.097915
C19   C     C_3   0.490655 0.061203 0.768287 -0.488878
C20   C     C_R   0.438782 0.449882 0.075808 0.196057
C21   C     C_R   0.556540 0.562229 0.066527 -0.010302
C22   C     C_R   0.556737 0.559531 0.922615 -0.096485
C23   C     C_R   0.500358 0.739317 0.498771 0.865299
C24   C     C_R   0.438911 0.449629 0.932970 0.190676
C25   C     C_3   0.415501 0.316776 0.935260 -0.520139
C26   C     C_3   0.412216 0.318682 0.088182 -0.488011
C27   C     C_R   0.647148 0.499967 0.498154 0.929462
C28   C     C_R   0.839271 0.644264 0.565753 -0.141297
C29   C     C_R   0.762239 0.606293 0.580441 -0.222376
C30   C     C_R   0.730782 0.519881 0.491976 -0.060657
C31   C     C_R   0.778027 0.468925 0.388636 -0.010238
C32   C     C_R   0.854978 0.510282 0.373707 -0.229517
H1    H     H_    0.863371 0.709012 0.636377 0.147582
H2    H     H_    0.505851 0.892569 0.277205 0.170219
H3    H     H_    0.433492 0.091449 0.807631 0.183435
H4    H     H_    0.542672 0.111190 0.805202 0.223730
H5    H     H_    0.602603 0.605648 0.862952 0.176737
H6    H     H_    0.358800 0.298393 0.888639 0.197157
H7    H     H_    0.464624 0.262970 0.897360 0.222407
H8    H     H_    0.352619 0.308850 0.132766 0.200231
H9    H     H_    0.726605 0.646974 0.658973 0.160808
H10   H     H_    0.455654 0.258126 0.135101 0.219292
H11   H     H_    0.892687 0.470656 0.297261 0.129193
H12   H     H_    0.104352 0.585290 0.690643 0.127653
H13   H     H_    0.273905 0.567367 0.280910 0.171922
H14   H     H_    0.140294 0.626748 0.262926 0.143283
H15   H     H_    0.506984 0.116528 0.279334 0.171272
N1    N     N_R   0.499490 0.499140 0.142800 -0.148120
N2    N     N_R   0.499490 0.499180 0.857150 -0.133433
O1    O     O_R   0.500010 0.316790 0.614690 -0.611777
O2    O     O_R   0.500000 0.316760 0.385350 -0.605674
O3    O     O_R   0.389120 0.500020 0.614710 -0.628364
O4    O     O_R   0.389110 0.499990 0.385370 -0.614510
O5    O     O_R   0.500000 0.683240 0.614650 -0.655833
O6    O     O_R   0.499990 0.683210 0.385310 -0.652144
O7    O     O_R   0.610890 0.500010 0.614630 -0.624195
O8    O     O_R   0.610880 0.499980 0.385290 -0.607661
Zn1   Zn    Zn3+2 0.500010 0.500020 0.653130 0.928230
Zn2   Zn    Zn3+2 0.499990 0.499980 0.346870 0.953178
C33   C     C_3   0.426442 0.848214 0.836222 -0.412520
C34   C     C_3   0.423371 0.861012 0.991086 -0.320812
C35   C     C_3   0.353214 0.791451 0.054707 -0.909561
H16   H     H_    0.298675 0.829511 0.015109 0.265831
H17   H     H_    0.355907 0.691546 0.031840 0.251558
H18   H     H_    0.352950 0.801281 0.166476 0.260755
H19   H     H_    0.476377 0.821972 0.035515 0.240937
H20   H     H_    0.420304 0.960229 0.017528 0.232094
H21   H     H_    0.371760 0.883342 0.793480 0.201354
H22   H     H_    0.429169 0.748365 0.813765 0.222191
C36   C     C_2   0.575025 0.873196 0.810789 0.436891
H23   H     H_    0.605924 0.807462 0.749286 0.058221
O9    O     O_2   0.603978 0.908724 0.914938 -0.566896
C37   C     C_2   0.617786 0.635918 0.131029 0.449792
H24   H     H_    0.608777 0.672806 0.230397 0.116555
O10   O     O_2   0.679388 0.659466 0.071422 -0.577245
C38   C     C_2   0.751431 0.369414 0.298456 0.421608
H25   H     H_    0.782817 0.354025 0.203843 0.072049
O11   O     O_2   0.696997 0.300130 0.330815 -0.561465
C39   C     C_3   0.249691 0.502269 0.759227 -0.392225
C40   C     C_3   0.188345 0.498274 0.875574 -0.378702
C41   C     C_3   0.221074 0.447692 0.007271 -0.895347
H26   H     H_    0.236694 0.349284 0.996121 0.261618
H27   H     H_    0.272837 0.502847 0.035370 0.257265
H28   H     H_    0.176565 0.452805 0.090017 0.254476
H29   H     H_    0.167515 0.593358 0.893638 0.223971
H30   H     H_    0.138598 0.437430 0.848869 0.230695
H31   H     H_    0.273383 0.407890 0.750782 0.208438
H32   H     H_    0.296737 0.567619 0.787724 0.220525

loop_
_geom_bond_atom_site_label_1
_geom_bond_atom_site_label_2
_ccdc_geom_bond_type
C18   C36   S    
O6    Zn2   S    
C37   H24   S    
C40   H29   S    
C39   H31   S    
C41   H26   S    
O4    Zn2   S    
C7    C8    A    
C11   C19   S    
C35   H16   S    
N1    Zn2   S    
C28   C29   A    
C38   O11   D    
C19   H4    S    
O5    Zn1   S    
C30   C31   A    
O8    Zn2   S    
C15   C16   A    
C21   C37   S    
C2    C32   A    
C18   C19   S    
C8    H13   S    
C40   H30   S    
C12   O3    A    
C14   H15   S    
C34   H19   S    
C20   C24   A    
C8    C9    A    
C35   H17   S    
C36   H23   S    
C1    O1    A    
C15   H2    S    
C12   O4    A    
C21   N1    A    
C9    H14   S    
C21   C22   A    
C27   C30   S    
C37   O10   D    
C39   H32   S    
C41   H27   S    
C7    C12   S    
O1    Zn1   S    
C38   H25   S    
C27   O8    A    
C27   O7    A    
C16   C17   A    
C25   C26   S    
C22   H5    S    
N2    Zn1   S    
C33   C34   S    
C29   C30   A    
C25   H6    S    
C34   H20   S    
C31   C32   A    
C17   C18   S    
C24   C25   S    
C1    O2    A    
C20   N1    A    
O3    Zn1   S    
C22   N2    A    
C18   C33   S    
C5    H12   S    
C28   H1    S    
C16   C23   S    
C1    C13   S    
C4    C10   S    
C3    C4    T    
C41   H28   S    
C26   H10   S    
C23   O5    A    
C9    C10   A    
C24   N2    A    
C11   C17   A    
C35   H18   S    
C29   H9    S    
C40   C41   S    
C2    C28   A    
C23   O6    A    
C6    C7    A    
C2    C3    S    
C5    C10   A    
C19   H3    S    
C25   H7    S    
C11   C13   A    
C26   H8    S    
C31   C38   S    
C5    C6    A    
C20   C26   S    
C33   H22   S    
C32   H11   S    
O7    Zn1   S    
C34   C35   S    
C6    C39   S    
C39   C40   S    
O2    Zn2   S    
C33   H21   S    
C14   C15   A    
C36   O9    D    
C13   C14   A    
