data_mof_unit_35865.cif
_audit_creation_date              2012-12-10T18:55:12-0500
_audit_creation_method            fapswitch 2.2
_symmetry_space_group_name_H-M    P1
_symmetry_Int_Tables_number       1
_space_group_crystal_system       triclinic
_cell_length_a                    10.531656
_cell_length_b                    9.803555
_cell_length_c                    27.625593
_cell_angle_alpha                 89.859043
_cell_angle_beta                  90.136814
_cell_angle_gamma                 90.659336
_cell_volume                      2852.07265234

loop_
_atom_site_label
_atom_site_type_symbol
_atom_type_description
_atom_site_fract_x
_atom_site_fract_y
_atom_site_fract_z
_atom_type_partial_charge
C1    C     C_R   0.262517 0.499092 0.509390 0.910846
C2    C     C_R   0.740553 0.501360 0.506322 0.932454
C3    C     C_R   0.462755 0.487531 0.101427 -0.087052
C4    C     C_R   0.432698 0.465079 0.897126 -0.086295
C5    C     C_R   0.365391 0.550745 0.128420 -0.043855
C6    C     C_R   0.516484 0.379916 0.870965 -0.050179
C7    C     C_R   0.254976 0.596741 0.104220 -0.019034
C8    C     C_R   0.603231 0.296699 0.896629 -0.003435
C9    C     C_R   0.570147 0.432840 0.125457 -0.041797
C10   C     C_R   0.346439 0.550331 0.871984 -0.041822
C11   C     C_R   0.487356 0.500456 0.353561 -0.066302
C12   C     C_R   0.488602 0.497408 0.646430 -0.027837
C13   C     C_R   0.349191 0.546169 0.974690 0.058158
C14   C     C_R   0.545003 0.407314 0.023834 0.059190
C15   C     C_R   0.529137 0.389972 0.973307 0.057562
C16   C     C_R   0.350563 0.542034 0.026055 0.059462
C17   C     C_R   0.436535 0.466582 0.948439 0.069905
C18   C     C_R   0.452724 0.478932 0.050369 0.071456
C19   C     C_R   0.263007 0.627758 0.948863 -0.290475
C20   C     C_R   0.654479 0.361732 0.048061 -0.296355
C21   C     C_R   0.257135 0.626963 0.898533 -0.003513
C22   C     C_R   0.670248 0.377796 0.097752 -0.009712
C23   C     C_R   0.496600 0.500093 0.406091 0.965361
C24   C     C_R   0.500709 0.499705 0.593991 0.924847
C25   C     C_R   0.250984 0.595684 0.053838 -0.291607
C26   C     C_R   0.604849 0.299462 0.946923 -0.284962
C27   C     C_R   0.063867 0.374739 0.533599 -0.086934
C28   C     C_R   0.942104 0.629738 0.526893 -0.027856
C29   C     C_R   0.931585 0.381080 0.536052 -0.004121
C30   C     C_R   0.072648 0.623309 0.535759 -0.032426
C31   C     C_R   0.872673 0.504809 0.522752 -0.147199
C32   C     C_R   0.132214 0.498078 0.526815 -0.261084
C33   C     C_R   0.545553 0.072201 0.538871 -0.063343
C34   C     C_R   0.452884 0.927648 0.461367 -0.027897
C35   C     C_R   0.452950 0.071727 0.461354 -0.014404
C36   C     C_R   0.545860 0.928237 0.538831 -0.081995
C37   C     C_R   0.383780 0.566598 0.178548 0.539384
C38   C     C_R   0.507701 0.380026 0.820129 0.540938
C39   C     C_R   0.570508 0.431671 0.176387 0.540451
C40   C     C_R   0.358838 0.561344 0.821373 0.541852
C41   C     C_R   0.570565 0.584526 0.277436 -0.065154
C42   C     C_R   0.376399 0.404389 0.715618 -0.062332
C43   C     C_R   0.571864 0.584632 0.327695 -0.243742
C44   C     C_R   0.396298 0.409038 0.666069 -0.261456
C45   C     C_R   0.397798 0.417205 0.328612 -0.046334
C46   C     C_R   0.562506 0.582526 0.677144 -0.022110
C47   C     C_R   0.399173 0.417177 0.278121 -0.177101
C48   C     C_R   0.539585 0.578027 0.726926 -0.187274
C49   C     C_R   0.484407 0.500670 0.252784 0.306319
C50   C     C_R   0.448233 0.488437 0.745947 0.311632
H1    H     H_    0.581115 0.126691 0.570087 0.184234
H2    H     H_    0.414980 0.872768 0.430549 0.146357
H3    H     H_    0.415101 0.126052 0.430526 0.152427
H4    H     H_    0.582447 0.873957 0.569889 0.151108
H5    H     H_    0.331874 0.354591 0.258061 0.144789
H6    H     H_    0.596143 0.640042 0.751456 0.142292
H7    H     H_    0.338830 0.343977 0.642877 0.144870
H8    H     H_    0.640174 0.648963 0.346501 0.168199
H9    H     H_    0.306467 0.334389 0.730582 0.154559
H10   H     H_    0.636174 0.649439 0.257602 0.157032
H11   H     H_    0.198593 0.694972 0.967172 0.131526
H12   H     H_    0.734444 0.322554 0.028261 0.136440
H13   H     H_    0.163827 0.628747 0.037137 0.134348
H14   H     H_    0.668146 0.229780 0.964989 0.133015
N1    N     N_R   0.480846 0.501580 0.201222 -0.365954
N2    N     N_R   0.436190 0.475098 0.797082 -0.364795
N3    N     N_R   0.500000 0.857200 0.500000 -0.093696
N4    N     N_R   0.500000 0.142800 0.500000 -0.095890
O1    O     O_R   0.316770 0.614620 0.500000 -0.621918
O2    O     O_R   0.683230 0.385380 0.500000 -0.595444
O3    O     O_R   0.683230 0.614620 0.500000 -0.639618
O4    O     O_R   0.316770 0.385380 0.500000 -0.584697
O5    O     O_R   0.500030 0.614650 0.428760 -0.621919
O6    O     O_R   0.499970 0.385350 0.571240 -0.622997
O7    O     O_R   0.499970 0.614650 0.571240 -0.636036
O8    O     O_R   0.500030 0.385350 0.428760 -0.597705
O9    O     O_2   0.307927 0.648199 0.204658 -0.506576
O10   O     O_2   0.569116 0.286724 0.793440 -0.500321
O11   O     O_2   0.298396 0.659737 0.796457 -0.508160
O12   O     O_2   0.656039 0.357702 0.201256 -0.503595
Zn1   Zn    Zn3+2 0.500000 0.653120 0.500000 0.978642
Zn2   Zn    Zn3+2 0.500000 0.346880 0.500000 1.011029
C51   C     C_2   0.297733 0.334010 0.352863 0.407270
H15   H     H_    0.253025 0.249892 0.333540 0.079629
O13   O     O_2   0.259516 0.361581 0.393299 -0.538933
C52   C     C_2   0.668445 0.670906 0.659898 0.409614
H16   H     H_    0.702571 0.754194 0.682446 0.084013
O14   O     O_2   0.722743 0.648590 0.621823 -0.591692
C53   C     C_2   0.136454 0.636951 0.129074 0.541335
H17   H     H_    0.079532 0.718813 0.114286 0.028619
O15   O     O_2   0.096398 0.572822 0.163878 -0.466855
C54   C     C_2   0.701920 0.212186 0.873664 0.521621
H18   H     H_    0.714905 0.107663 0.885568 0.029383
O16   O     O_2   0.775902 0.261649 0.844336 -0.490036
C55   C     C_2   0.149737 0.701437 0.876395 0.523012
H19   H     H_    0.121991 0.799362 0.890992 0.029631
O17   O     O_2   0.085443 0.649722 0.844342 -0.495012
C56   C     C_2   0.797434 0.344997 0.117499 0.512896
H20   H     H_    0.848830 0.258449 0.103363 0.031663
O18   O     O_2   0.849808 0.419669 0.146874 -0.479753
C57   C     C_2   0.130548 0.243854 0.542058 0.464239
H21   H     H_    0.213356 0.241456 0.565506 0.058821
O19   O     O_2   0.097114 0.139605 0.521340 -0.501739
C58   C     C_2   0.881727 0.765142 0.521770 0.571378
H22   H     H_    0.800659 0.791301 0.543818 0.089255
O20   O     O_2   0.922335 0.848137 0.492452 -0.514559
C59   C     C_2   0.857613 0.265615 0.557417 0.443594
H23   H     H_    0.878292 0.160709 0.548500 0.131481
O21   O     O_2   0.774577 0.287901 0.587032 -0.560047
C60   C     C_2   0.145788 0.738073 0.559062 0.493603
H24   H     H_    0.241086 0.721001 0.572577 0.061814
O22   O     O_2   0.099900 0.849984 0.566079 -0.518612

loop_
_geom_bond_atom_site_label_1
_geom_bond_atom_site_label_2
_ccdc_geom_bond_type
C57   H21   S    
C22   C56   S    
C5    C37   A    
C35   H3    S    
C8    C26   A    
C14   C18   A    
C55   H19   S    
C23   O8    A    
C58   O20   D    
C36   N3    A    
C47   C49   A    
C49   N1    S    
C30   C60   S    
C19   C21   A    
C23   O5    A    
C52   O14   D    
C9    C22   A    
C27   C29   A    
C7    C53   S    
C9    C39   A    
C33   C36   A    
C3    C18   A    
C10   C40   A    
C34   C35   A    
C25   H13   S    
C12   C44   A    
C41   C49   A    
C26   H14   S    
C60   H24   S    
C43   H8    S    
C38   N2    A    
C37   N1    A    
C59   H23   S    
C6    C38   A    
C11   C43   A    
C8    C54   S    
C53   O15   D    
C48   C50   A    
C57   O19   D    
C40   N2    A    
C41   C43   A    
C45   C51   S    
C42   C44   A    
O6    Zn2   S    
O5    Zn1   S    
C58   H22   S    
C45   C47   A    
C10   C21   A    
C46   C48   A    
C1    O4    A    
C13   C19   A    
C14   C20   A    
C36   H4    S    
C4    C6    A    
O8    Zn2   S    
C5    C7    A    
C52   H16   S    
O7    Zn1   S    
C15   C26   A    
C6    C8    A    
C38   O10   S    
C37   O9    S    
C27   C57   S    
C1    C32   S    
C1    O1    A    
C2    C31   S    
C42   H9    S    
C3    C9    A    
C28   C58   S    
C51   H15   S    
C44   H7    S    
C54   O16   D    
C40   O11   S    
C50   N2    S    
C42   C50   A    
C4    C17   A    
C12   C46   A    
C51   O13   D    
C20   C22   A    
N3    Zn1   S    
C56   O18   D    
C11   C45   A    
C4    C10   A    
C2    O3    A    
C47   H5    S    
C16   C25   A    
C48   H6    S    
C12   C24   S    
C27   C32   A    
C28   C31   A    
C41   H10   S    
C3    C5    A    
C34   N3    A    
C55   O17   D    
C24   O7    A    
C15   C17   A    
C33   H1    S    
C21   C55   S    
C39   N1    A    
C34   H2    S    
C7    C25   A    
C13   C17   A    
N4    Zn2   S    
C39   O12   S    
C28   C30   A    
C29   C31   A    
C30   C32   A    
C24   O6    A    
C59   O21   D    
C35   N4    A    
C19   H11   S    
C11   C23   S    
C54   H18   S    
C20   H12   S    
O2    Zn2   S    
C60   O22   D    
O1    Zn1   S    
C16   C18   A    
C56   H20   S    
C13   C16   A    
C14   C15   A    
C29   C59   S    
C46   C52   S    
C53   H17   S    
C2    O2    A    
O4    Zn2   S    
C33   N4    A    
O3    Zn1   S    
