data_mof_unit_21691.cif
_audit_creation_date              2012-12-10T19:21:57-0500
_audit_creation_method            fapswitch 2.2
_symmetry_space_group_name_H-M    P1
_symmetry_Int_Tables_number       1
_space_group_crystal_system       triclinic
_cell_length_a                    8.73504
_cell_length_b                    17.734238
_cell_length_c                    16.443163
_cell_angle_alpha                 89.802354
_cell_angle_beta                  97.896144
_cell_angle_gamma                 90.412767
_cell_volume                      2522.97453507

loop_
_atom_site_label
_atom_site_type_symbol
_atom_type_description
_atom_site_fract_x
_atom_site_fract_y
_atom_site_fract_z
_atom_type_partial_charge
C1    C     C_R   0.501369 0.355240 0.500316 0.841533
C2    C     C_R   0.498435 0.644764 0.499647 0.837944
C3    C     C_1   0.497523 0.966267 0.499507 0.025887
C4    C     C_1   0.500701 0.033805 0.499214 0.014487
C5    C     C_R   0.596235 0.549144 0.835726 -0.270859
C6    C     C_R   0.404717 0.450381 0.164360 -0.271655
C7    C     C_R   0.594338 0.548389 0.749761 0.061907
C8    C     C_R   0.406476 0.451225 0.250313 0.059604
C9    C     C_R   0.406070 0.451289 0.736353 0.101340
C10   C     C_R   0.593284 0.548995 0.263585 0.101495
C11   C     C_R   0.404593 0.450287 0.822082 -0.272443
C12   C     C_R   0.594838 0.549936 0.177863 -0.272355
C13   C     C_R   0.500410 0.499713 0.873081 0.142241
C14   C     C_R   0.499816 0.500134 0.126938 0.142384
C15   C     C_1   0.500219 0.499831 0.962715 -0.040495
C16   C     C_1   0.500036 0.499985 0.037306 -0.040739
C17   C     C_R   0.203309 0.500073 0.479133 0.882302
C18   C     C_R   0.796690 0.499929 0.520866 0.880006
C19   C     C_2   0.037818 0.500274 0.467432 -0.374902
C20   C     C_2   0.962181 0.499729 0.532566 -0.376010
C21   C     C_R   0.538441 0.846097 0.573409 0.477563
C22   C     C_R   0.468552 0.154454 0.424917 0.513272
C23   C     C_R   0.535804 0.767257 0.572728 -0.358590
C24   C     C_R   0.465159 0.233102 0.426734 -0.329737
C25   C     C_R   0.495137 0.727753 0.498911 -0.200096
C26   C     C_R   0.505091 0.272271 0.500802 -0.213925
C27   C     C_R   0.450609 0.768340 0.425338 0.439589
C28   C     C_R   0.549493 0.231399 0.574153 0.436765
C29   C     C_R   0.453095 0.847125 0.426448 -0.324806
C30   C     C_R   0.546340 0.152617 0.572648 -0.308271
C31   C     C_R   0.495363 0.885718 0.500020 -0.034156
C32   C     C_R   0.505425 0.114348 0.498717 -0.055190
Cu1   Cu    Cu3+1 0.499990 0.499980 0.580420 0.941041
Cu2   Cu    Cu3+1 0.500010 0.500020 0.419580 0.939662
H1    H     H_    0.977984 0.500909 0.404908 0.173125
H2    H     H_    0.022016 0.499095 0.595089 0.173067
H3    H     H_    0.567824 0.737167 0.629926 0.180730
H4    H     H_    0.430296 0.263416 0.369962 0.187476
H5    H     H_    0.421423 0.878079 0.369728 0.170502
H6    H     H_    0.575949 0.121414 0.629383 0.174817
H7    H     H_    0.672084 0.588166 0.872692 0.136906
H8    H     H_    0.329523 0.411051 0.127456 0.137687
H9    H     H_    0.328907 0.411170 0.848252 0.136397
H10   H     H_    0.669971 0.589298 0.151639 0.135927
N1    N     N_R   0.499960 0.499970 0.701210 -0.177115
N2    N     N_R   0.500040 0.500030 0.298790 -0.177308
O1    O     O_R   0.499990 0.391240 0.567930 -0.541321
O2    O     O_R   0.500010 0.608760 0.432070 -0.542990
O3    O     O_R   0.500000 0.391270 0.432120 -0.599144
O4    O     O_R   0.500000 0.608730 0.567880 -0.596321
O5    O     O_R   0.274830 0.499990 0.552240 -0.584292
O6    O     O_R   0.725170 0.500010 0.447760 -0.584410
O7    O     O_R   0.274840 0.500020 0.416420 -0.598292
O8    O     O_R   0.725160 0.499980 0.583580 -0.599089
O9    O     O_3   0.575649 0.884482 0.646551 -0.572559
C33   C     C_3   0.738140 0.889087 0.664637 0.058058
H11   H     H_    0.790174 0.914803 0.612709 0.137905
H12   H     H_    0.788307 0.832148 0.678438 0.140425
C34   C     C_3   0.780616 0.938676 0.739725 -0.768015
H13   H     H_    0.732332 0.914239 0.793139 0.250246
H14   H     H_    0.908309 0.942588 0.754734 0.200621
H15   H     H_    0.733548 0.996234 0.727285 0.244101
O10   O     O_3   0.423337 0.117325 0.351583 -0.586895
C35   C     C_3   0.555535 0.095595 0.316541 0.068098
H16   H     H_    0.525399 0.043709 0.280035 0.170753
H17   H     H_    0.656931 0.081006 0.362786 0.125539
C36   C     C_3   0.601001 0.156648 0.258619 -0.828236
H18   H     H_    0.643288 0.207758 0.293751 0.238740
H19   H     H_    0.694923 0.135672 0.225668 0.214161
H20   H     H_    0.500041 0.171671 0.212914 0.257579
O11   O     O_3   0.410210 0.731552 0.351455 -0.566173
C37   C     C_3   0.248160 0.721645 0.338467 0.083895
H21   H     H_    0.189605 0.777038 0.327353 0.136785
H22   H     H_    0.205897 0.693153 0.391837 0.126534
C38   C     C_3   0.204060 0.672257 0.263325 -0.754543
H23   H     H_    0.258403 0.615991 0.273534 0.263662
H24   H     H_    0.076577 0.664837 0.251853 0.185321
H25   H     H_    0.243609 0.698936 0.208587 0.244084
O12   O     O_3   0.588921 0.267889 0.648281 -0.563621
C39   C     C_3   0.750982 0.277595 0.661975 0.080927
H26   H     H_    0.794166 0.306316 0.608996 0.127025
H27   H     H_    0.809176 0.222099 0.672987 0.135327
C40   C     C_3   0.794258 0.326585 0.737505 -0.751378
H28   H     H_    0.753855 0.299644 0.791876 0.244101
H29   H     H_    0.921730 0.333896 0.749492 0.185861
H30   H     H_    0.740170 0.382924 0.727438 0.262732
H31   H     H_    0.668912 0.586764 0.721939 0.120794
H32   H     H_    0.332461 0.412601 0.278185 0.124188
H33   H     H_    0.331590 0.412886 0.697916 0.131800
H34   H     H_    0.667196 0.587666 0.301967 0.131010

loop_
_geom_bond_atom_site_label_1
_geom_bond_atom_site_label_2
_ccdc_geom_bond_type
O9    C33   S    
C9    N1    A    
C27   C29   A    
Cu1   N1    S    
C19   C20   D    
C17   O5    A    
C18   O6    A    
C21   C31   A    
C22   C32   A    
C7    N1    A    
C24   C26   A    
C39   C40   S    
C39   H26   S    
C15   C16   T    
C33   H11   S    
C28   O12   S    
C2    O4    A    
C22   O10   S    
C7    H31   S    
C34   H15   S    
C10   N2    A    
C24   H4    S    
C11   H9    S    
Cu2   N2    S    
C14   C16   S    
C5    C13   A    
C34   H13   S    
C37   C38   S    
C21   C23   A    
C34   H14   S    
C36   H18   S    
C35   C36   S    
C39   H27   S    
C9    H33   S    
C5    C7    A    
C1    O1    A    
C6    C8    A    
C2    O2    A    
Cu1   O4    S    
C23   H3    S    
O12   C39   S    
C36   H19   S    
C35   H17   S    
C38   H23   S    
C6    C14   A    
C38   H24   S    
C40   H28   S    
C29   H5    S    
Cu1   Cu2   S    
C30   H6    S    
C3    C31   S    
C9    C11   A    
C4    C32   S    
C10   C12   A    
C37   H22   S    
C40   H29   S    
C12   C14   A    
C13   C15   S    
C1    C26   S    
Cu1   O1    S    
C22   C24   A    
Cu2   O2    S    
C3    C4    T    
C17   O7    A    
C27   O11   S    
C21   O9    S    
Cu1   O8    S    
C5    H7    S    
Cu2   O3    S    
C26   C28   A    
C37   H21   S    
Cu1   O5    S    
Cu2   O6    S    
C33   C34   S    
C36   H20   S    
C35   H16   S    
C28   C30   A    
O11   C37   S    
C12   H10   S    
C19   H1    S    
C30   C32   A    
C11   C13   A    
C17   C19   S    
C33   H12   S    
C2    C25   S    
C18   C20   S    
C23   C25   A    
C38   H25   S    
C8    N2    A    
C18   O8    A    
O10   C35   S    
C20   H2    S    
C40   H30   S    
C10   H34   S    
Cu2   O7    S    
C29   C31   A    
C6    H8    S    
C8    H32   S    
C1    O3    A    
C25   C27   A    
