data_mof_unit_22547.cif
_audit_creation_date              2013-03-05T16:14:04-0500
_audit_creation_method            fapswitch 2.2
_symmetry_space_group_name_H-M    P1
_symmetry_Int_Tables_number       1
_space_group_crystal_system       triclinic
_cell_length_a                    8.597835
_cell_length_b                    17.343565
_cell_length_c                    22.933633
_cell_angle_alpha                 100.466445
_cell_angle_beta                  90.150033
_cell_angle_gamma                 98.474938
_cell_volume                      3324.65626998

loop_
_atom_site_label
_atom_site_type_symbol
_atom_site_description
_atom_site_fract_x
_atom_site_fract_y
_atom_site_fract_z
_atom_type_partial_charge
P1    P     P_3+3 0.055640 0.433080 0.366120 0.534659
O1    O     O_2   0.889310 0.456460 0.358460 -0.301252
O2    O     O_3   0.129890 0.457280 0.429550 -0.348286
O3    O     O_3   0.674650 0.600620 0.400940 -0.360037
O4    O     O_2   0.769122 0.538727 0.293552 -0.338572
O5    O     O_3   0.072167 0.332425 0.336850 -0.673431
O6    O     O_3   0.720837 0.684385 0.303086 -0.514130
H1    H     H_    0.789484 0.739471 0.388997 0.156151
C1    C     C_3   0.761670 0.824805 0.334483 -0.742974
H2    H     H_    0.753431 0.873087 0.372861 0.216370
H3    H     H_    0.885247 0.829261 0.319979 0.276337
P2    P     P_3+3 0.671420 0.681950 0.554390 0.582342
P3    P     P_3+3 0.136416 0.745680 0.444317 0.539733
O7    O     O_2   0.849130 0.693580 0.537840 -0.296735
O8    O     O_3   0.093680 0.641380 0.431770 -0.320750
O9    O     O_2   0.993080 0.776830 0.475232 -0.357967
O10   O     O_3   0.670006 0.709328 0.632679 -0.521387
O11   O     O_3   0.125370 0.779745 0.377245 -0.558766
C2    C     C_3   0.227779 0.745992 0.335859 0.821233
H4    H     H_    0.316437 0.716945 0.355122 0.008297
C3    C     C_3   0.131816 0.686289 0.287503 -0.732578
H5    H     H_    0.069073 0.636517 0.306650 0.236797
H6    H     H_    0.043897 0.714827 0.266883 0.279543
C4    C     C_3   0.191427 0.741611 0.669895 1.029715
C5    C     C_3   0.170628 0.801565 0.727993 -0.671036
H7    H     H_    0.214517 0.862521 0.720290 0.206592
Ba1   Ba    Ba6+2 0.857050 0.537370 0.474190 1.668335
C6    C     C_3   0.961452 0.265162 0.341049 0.065714
C7    C     C_3   0.878208 0.231406 0.278856 0.082420
H8    H     H_    0.968282 0.209408 0.248027 0.157843
C8    C     C_3   0.650346 0.644891 0.662851 0.410408
H9    H     H_    0.589391 0.589050 0.635965 0.102502
C9    C     C_3   0.561010 0.663541 0.720685 -0.677356
H10   H     H_    0.606723 0.723870 0.745549 0.275617
H11   H     H_    0.572340 0.619469 0.749525 0.211563
H12   H     H_    0.434055 0.659024 0.711997 0.237739
P4    P     P_3+3 0.134070 0.566990 0.633890 0.574573
O12   O     O_2   0.300380 0.543560 0.641570 -0.360247
O13   O     O_3   0.059830 0.542790 0.570460 -0.327828
O14   O     O_3   0.515070 0.399440 0.599070 -0.413407
O15   O     O_3   0.151375 0.663025 0.681847 -0.640107
P5    P     P_3+3 0.046499 0.254200 0.557976 0.435913
O16   O     O_3   0.612780 0.404640 0.465950 -0.294643
O17   O     O_3   0.096040 0.358680 0.568240 -0.387978
O18   O     O_2   0.151476 0.217570 0.509264 -0.378420
O19   O     O_3   0.084529 0.207643 0.617641 -0.608151
Ba2   Ba    Ba6+2 0.332790 0.462700 0.525820 1.657001
P6    P     P_3+3 0.651881 0.592732 0.322729 0.525357
C10   C     C_3   0.710267 0.744752 0.352159 0.363590
H13   H     H_    0.587707 0.742621 0.367613 0.072609
H14   H     H_    0.685001 0.832140 0.297479 0.288803
O20   O     O_3   0.576930 0.595420 0.534060 -0.375201
C11   C     C_3   0.434698 0.308553 0.334105 0.263607
H15   H     H_    0.330929 0.326348 0.357669 0.118525
C12   C     C_3   0.382585 0.250563 0.275603 -0.671919
H16   H     H_    0.301775 0.198863 0.285141 0.240109
H17   H     H_    0.486608 0.227149 0.255042 0.292990
P7    P     P_3+3 0.517697 0.305134 0.445618 0.516601
O21   O     O_2   0.340570 0.306450 0.462190 -0.380711
O22   O     O_3   0.522161 0.269589 0.368426 -0.557902
H18   H     H_    0.210834 0.662859 0.252751 0.215491
C13   C     C_3   0.128639 0.259241 0.671862 0.118502
H19   H     H_    0.229737 0.303773 0.665108 0.162333
C14   C     C_3   0.176501 0.206868 0.715253 0.171006
H20   H     H_    0.264400 0.171470 0.693817 0.099539
P8    P     P_3+3 0.551167 0.412638 0.675608 0.404133
C15   C     C_3   0.577953 0.261892 0.659184 0.372992
H21   H     H_    0.681984 0.288243 0.637458 -0.006611
O23   O     O_2   0.418983 0.456637 0.704646 -0.382904
O24   O     O_3   0.507248 0.319708 0.696797 -0.530490
H22   H     H_    0.709686 0.166969 0.670431 0.189994
C16   C     C_3   0.633371 0.205894 0.696743 -0.708305
H23   H     H_    0.532224 0.168393 0.712534 0.264823
H24   H     H_    0.700332 0.240571 0.736626 0.281073
H25   H     H_    0.842175 0.599727 0.093130 0.177093
H26   H     H_    0.782942 0.604213 0.990335 0.174966
C17   C     C_R   0.331842 0.528018 0.333400 -0.449323
C18   C     C_R   0.181529 0.464787 0.922298 -0.091348
C19   C     C_R   0.139785 0.464318 0.862131 0.619782
O25   O     O_2   0.217194 0.432996 0.822689 -0.519368
N1    N     N_R   0.011586 0.498312 0.847721 -0.170914
C20   C     C_R   0.933047 0.539913 0.893239 0.559894
O26   O     O_2   0.831588 0.577482 0.881188 -0.571024
C21   C     C_R   0.968165 0.539028 0.953631 -0.042417
C22   C     C_R   0.092700 0.500840 0.968173 0.001250
C23   C     C_R   0.308800 0.428955 0.937740 -0.046679
C24   C     C_R   0.345833 0.428258 0.997239 -0.074492
C25   C     C_R   0.256690 0.463112 0.043566 -0.084117
C26   C     C_R   0.129532 0.499478 0.028849 -0.001673
C27   C     C_R   0.880089 0.574704 0.999891 -0.099412
C28   C     C_R   0.914017 0.571928 0.059199 -0.079486
C29   C     C_R   0.039068 0.534576 0.074574 -0.053521
C30   C     C_R   0.076671 0.532634 0.134618 0.543627
N2    N     N_R   0.204051 0.498142 0.149284 -0.171396
C31   C     C_R   0.292652 0.462933 0.104128 0.560632
C32   C     C_2   0.802202 0.461403 0.767907 -0.119719
C33   C     C_3   0.748611 0.468370 0.705533 0.110175
C34   C     C_1   0.020059 0.504682 0.681539 0.344085
C35   C     C_2   0.070162 0.509009 0.737686 -0.145147
C36   C     C_2   0.956690 0.489108 0.785353 0.206844
C37   C     C_R   0.404164 0.538758 0.232862 -0.229961
C38   C     C_R   0.446045 0.550537 0.293475 0.206062
C39   C     C_R   0.182369 0.487037 0.314353 0.156646
C40   C     C_R   0.142207 0.475390 0.252989 -0.204812
C41   C     C_R   0.250239 0.503485 0.211815 0.142426
O27   O     O_2   0.996943 0.562857 0.173850 -0.563424
O28   O     O_2   0.402622 0.430958 0.116513 -0.525365
C42   C     C_2   0.881224 0.464149 0.662400 -0.506879
H27   H     H_    0.444829 0.400037 0.006828 0.190837
H28   H     H_    0.489996 0.558858 0.202346 0.178341
H29   H     H_    0.380232 0.400956 0.903748 0.198440
H30   H     H_    0.191014 0.533959 0.750865 0.157006
H31   H     H_    0.027685 0.443824 0.237032 0.162033
H32   H     H_    0.857245 0.440247 0.615659 0.157748
C43   C     C_2   0.411060 0.733272 0.510949 0.287052
C44   C     C_3   0.314957 0.791691 0.492909 0.246197
C45   C     C_2   0.412671 0.857207 0.469693 -0.363615
C46   C     C_2   0.565796 0.877853 0.486842 0.123042
C47   C     C_2   0.646158 0.820181 0.512977 -0.354349
C48   C     C_1   0.566757 0.751488 0.521744 0.235059
C49   C     C_R   0.792019 0.134705 0.519123 -0.239001
C50   C     C_R   0.843715 0.216560 0.531325 0.249480
C51   C     C_R   0.603875 0.239730 0.486935 0.225679
C52   C     C_R   0.551961 0.158179 0.474235 -0.218913
C53   C     C_R   0.642858 0.105161 0.492258 0.132492
C54   C     C_2   0.650140 0.959067 0.485297 -0.139586
C55   C     C_2   0.571287 0.021171 0.486042 -0.056761
C56   C     C_R   0.743651 0.268865 0.520114 -0.453420
H33   H     H_    0.443914 0.011983 0.485197 0.151315
H34   H     H_    0.765402 0.839150 0.530867 0.210154
H35   H     H_    0.867145 0.095183 0.531584 0.160522
H36   H     H_    0.777671 0.968349 0.488041 0.137371
H37   H     H_    0.351297 0.893710 0.446796 0.198370
H38   H     H_    0.442114 0.136023 0.449399 0.166992
H39   H     H_    0.783281 0.332052 0.530894 0.190289
C57   C     C_2   0.267029 0.786339 0.778900 0.789693
H40   H     H_    0.241869 0.730359 0.794388 0.022728
O29   O     O_2   0.373613 0.836610 0.802900 -0.522387
C58   C     C_2   0.000754 0.802902 0.744889 0.668380
H41   H     H_    0.916636 0.814732 0.713540 0.080234
O30   O     O_2   0.955922 0.793228 0.793947 -0.507553
C59   C     C_2   0.851718 0.276625 0.390066 0.529959
H42   H     H_    0.763847 0.226825 0.393931 0.043243
O31   O     O_2   0.871320 0.334913 0.429241 -0.533790
C60   C     C_2   0.055693 0.204566 0.357770 0.435989
H43   H     H_    0.133586 0.221161 0.396428 0.105493
O32   O     O_2   0.045673 0.136948 0.329628 -0.515432
C61   C     C_2   0.812876 0.291944 0.250886 0.493977
H44   H     H_    0.814488 0.351525 0.274531 0.037568
O33   O     O_2   0.759400 0.274516 0.200046 -0.487350
Cl1   Cl    Cl    0.728250 0.147640 0.279340 -0.514284
C62   C     C_2   0.809863 0.634053 0.677197 0.377719
H45   H     H_    0.882318 0.625897 0.639716 0.077049
O34   O     O_2   0.859258 0.638181 0.727888 -0.572363
C63   C     C_2   0.534408 0.381196 0.321186 0.378286
H46   H     H_    0.561296 0.388527 0.276139 0.060655
O35   O     O_2   0.584183 0.434283 0.361797 -0.523332
C64   C     C_2   0.303491 0.287152 0.231072 0.573406
H47   H     H_    0.196699 0.311974 0.241379 0.026904
O36   O     O_2   0.359415 0.288913 0.182387 -0.455766
C65   C     C_2   0.997147 0.302913 0.695731 0.500548
H48   H     H_    0.926570 0.324673 0.665653 -0.012339
O37   O     O_2   0.971166 0.315778 0.748621 -0.518755
Cl2   Cl    Cl    0.270420 0.264034 0.782445 -0.454458
C66   C     C_2   0.039223 0.147543 0.727683 0.620370
H49   H     H_    0.980988 0.103860 0.691277 -0.012766
O38   O     O_2   0.992140 0.147619 0.777882 -0.459419
C67   C     C_2   0.461667 0.217581 0.611006 0.470575
H50   H     H_    0.405127 0.250573 0.583580 0.099477
O39   O     O_2   0.429798 0.145301 0.601733 -0.587283
C68   C     C_2   0.687044 0.425942 0.807553 0.656076
H51   H     H_    0.563032 0.429515 0.802797 0.092168
O40   O     O_2   0.728790 0.390224 0.844629 -0.550321
C69   C     C_2   0.368685 0.554185 0.395791 0.760356
H52   H     H_    0.391757 0.513614 0.424080 0.094242
O41   O     O_2   0.391435 0.624803 0.414299 -0.679887
Cl3   Cl    Cl    0.333242 0.823224 0.303596 -0.613766
Cl4   Cl    Cl    0.298797 0.651383 0.532627 -0.472071
Cl5   Cl    Cl    0.388721 0.767396 0.651598 -0.644507
Cl6   Cl    Cl    0.079651 0.764359 0.613232 -0.632438

loop_
_geom_bond_atom_site_label_1
_geom_bond_atom_site_label_2
_geom_bond_distance
_ccdc_geom_bond_type
C15   C67   1.506728 S    
O14   Ba2   2.764888 S    
C68   H51   1.083470 S    
N2    C41   1.469938 S    
C30   N2    1.390946 Am   
C63   O35   1.211822 D    
C2    H4    1.105585 S    
C1    H14   1.109904 S    
C14   Cl2   1.792211 S    
C45   H37   1.082949 S    
C9    H12   1.097849 S    
C7    C61   1.498659 S    
C60   H43   1.079229 S    
C51   C56   1.398255 A    
C51   C52   1.395739 A    
C11   H15   1.098358 S    
C68   O40   1.221017 D    
P7    C51   1.835252 S    
C66   H49   1.085343 S    
P5    O17   1.771271 S    
P3    O11   1.752158 S    
O19   C13   1.408581 S    
P4    O15   1.807340 S    
P8    C33   1.885830 S    
C6    C7    1.567525 S    
C2    C3    1.519524 S    
P4    O12   1.561004 D    
C61   O33   1.220826 D    
O11   C2    1.404735 S    
C4    Cl5   1.761199 S    
C13   C65   1.502165 S    
P7    O22   1.768132 S    
C43   C44   1.509220 S    
C14   C66   1.511089 S    
C47   H34   1.084911 S    
C34   C42   1.322697 D    
C44   C45   1.490373 S    
P1    O1    1.560736 D    
P5    O19   1.762992 S    
C42   H32   1.084265 S    
C10   H13   1.110225 S    
C5    C57   1.513668 S    
C69   H52   1.077821 S    
C40   C41   1.424839 A    
C13   C14   1.555992 S    
O16   P7    1.775905 S    
P2    O20   1.585572 S    
P2    C48   1.862599 S    
C33   C42   1.512636 S    
C12   C64   1.505688 S    
O5    C6    1.410770 S    
C13   H19   1.105601 S    
C35   C36   1.519663 S    
Ba1   O13   2.789108 S    
C32   C68   1.487834 S    
P2    O10   1.772373 S    
C4    Cl6   1.749117 S    
C8    C9    1.541585 S    
O1    Ba1   2.802820 S    
O7    Ba1   2.844905 S    
P4    Ba2   3.411423 S    
C1    H2    1.109479 S    
C2    Cl3   1.780301 S    
C3    H18   1.108335 S    
O17   Ba2   2.812498 S    
H25   C28   1.083302 S    
C18   C23   1.409748 A    
C67   O39   1.222055 D    
C25   C31   1.422770 A    
C66   O38   1.221170 D    
O14   P8    1.749282 S    
C3    H5    1.109371 S    
C46   C47   1.502152 S    
C64   O36   1.220512 D    
C4    O15   1.431535 S    
C17   C38   1.405928 A    
C21   C27   1.409140 A    
C49   H35   1.081399 S    
P4    C34   1.856135 S    
C65   O37   1.220117 D    
C11   O22   1.407709 S    
C65   H48   1.070682 S    
C69   O41   1.207703 D    
C11   C12   1.544699 S    
C37   C41   1.417537 A    
O4    P6    1.547651 D    
C60   O32   1.222377 D    
P2    Ba1   3.425972 S    
C15   H21   1.105315 S    
C43   Cl4   1.746676 S    
C37   C38   1.405766 A    
C15   C16   1.533106 S    
C1    C10   1.520500 S    
C4    C5    1.562428 S    
O6    C10   1.404104 S    
C16   H24   1.106839 S    
C56   H39   1.081329 S    
C28   C29   1.409363 A    
C19   N1    1.390025 Am   
C22   C26   1.431438 A    
C23   C24   1.402959 A    
C57   H40   1.085975 S    
C37   H28   1.082332 S    
N1    C20   1.392810 Am   
P1    O5    1.779379 S    
P1    O2    1.547298 S    
P5    O18   1.543607 D    
C55   H33   1.082779 S    
C49   C53   1.405110 A    
C7    H8    1.112277 S    
C30   O27   1.221454 D    
C7    Cl1   1.796365 S    
O8    Ba1   2.811746 S    
C8    H9    1.106590 S    
P3    O8    1.761954 S    
C54   H36   1.084473 S    
C47   C48   1.331873 D    
P6    C38   1.884487 S    
C32   C33   1.532619 S    
C12   H16   1.105898 S    
O12   Ba2   2.803144 S    
C9    H10   1.111426 S    
C6    C60   1.517857 S    
C12   H17   1.107634 S    
C21   C22   1.408462 A    
C26   C29   1.409634 A    
C53   C55   1.476758 S    
C1    H3    1.110172 S    
C49   C50   1.400115 A    
C31   O28   1.221704 D    
C18   C22   1.409648 A    
C57   O29   1.220821 D    
C67   H50   1.081886 S    
P2    O7    1.568214 D    
C40   H31   1.081473 S    
C20   O26   1.222117 D    
C20   C21   1.420050 A    
C3    H6    1.110610 S    
C64   H47   1.079326 S    
O10   C8    1.407912 S    
C59   O31   1.215130 D    
C17   C39   1.400929 A    
C6    C59   1.474114 S    
C63   H46   1.084979 S    
O3    Ba1   2.765426 S    
Ba1   O20   2.988172 S    
P5    C50   1.831262 S    
O13   Ba2   2.990334 S    
O3    P6    1.781961 S    
Ba1   Ba2   4.680074 S    
P1    C39   1.892688 S    
C5    C58   1.514450 S    
C18   C19   1.423137 A    
C62   O34   1.222771 D    
C16   H23   1.109494 S    
C58   H41   1.084742 S    
C43   C48   1.340996 D    
C11   C63   1.492864 S    
Ba2   O20   2.855873 S    
C24   H27   1.083198 S    
N1    C36   1.478321 S    
C52   H38   1.083861 S    
C15   O24   1.409708 S    
O6    P6    1.750722 S    
O2    Ba1   2.989454 S    
C23   H29   1.083329 S    
C5    H7    1.114405 S    
H22   C16   1.111313 S    
P4    O13   1.547266 S    
C45   C46   1.350325 D    
C14   H20   1.103982 S    
C8    C62   1.456260 S    
C58   O30   1.222431 D    
C27   C28   1.401147 A    
P8    O24   1.755709 S    
C54   C55   1.352298 D    
C35   H30   1.084695 S    
C32   C36   1.376396 D    
O2    Ba2   2.789745 S    
C29   C30   1.421116 A    
C9    H11   1.111968 S    
C61   H44   1.074337 S    
C17   C69   1.439793 S    
C50   C56   1.393848 A    
N2    C31   1.391818 Am   
P7    O21   1.573002 D    
P3    C44   1.882013 S    
Ba2   O21   2.845144 S    
C19   O25   1.219616 D    
P8    O23   1.546738 D    
Ba1   O16   2.856679 S    
C25   C26   1.409125 A    
C24   C25   1.410353 A    
C34   C35   1.342273 D    
P3    O9    1.541092 D    
C39   C40   1.419209 A    
P1    Ba1   3.410773 S    
C59   H42   1.077237 S    
C62   H45   1.063750 S    
C46   C54   1.492751 S    
O16   Ba2   2.987279 S    
H1    C10   1.108829 S    
H26   C27   1.083240 S    
C52   C53   1.405462 A    
