data_mof_unit_35623.cif
_audit_creation_date              2012-12-10T19:07:38-0500
_audit_creation_method            fapswitch 2.2
_symmetry_space_group_name_H-M    P1
_symmetry_Int_Tables_number       1
_space_group_crystal_system       triclinic
_cell_length_a                    10.86107
_cell_length_b                    10.822699
_cell_length_c                    9.553771
_cell_angle_alpha                 90.105852
_cell_angle_beta                  88.396735
_cell_angle_gamma                 91.811819
_cell_volume                      1122.00706823

loop_
_atom_site_label
_atom_site_type_symbol
_atom_type_description
_atom_site_fract_x
_atom_site_fract_y
_atom_site_fract_z
_atom_type_partial_charge
C1    C     C_R   0.502272 0.262611 0.500127 0.762963
C2    C     C_R   0.931106 0.465765 0.611619 0.077175
C3    C     C_3   0.914736 0.348858 0.694790 -0.046394
C4    C     C_3   0.056397 0.355965 0.709565 0.297538
C5    C     C_R   0.424462 0.061797 0.592596 0.004177
C6    C     C_R   0.500999 0.129408 0.499427 -0.050789
C7    C     C_R   0.562178 0.065587 0.391412 -0.146124
C8    C     C_R   0.558706 0.936310 0.390894 -0.150798
C9    C     C_R   0.488703 0.870360 0.494133 -0.011187
C10   C     C_R   0.408634 0.935922 0.581591 0.020113
C11   C     C_3   0.367791 0.923925 0.731529 -0.486482
C12   C     C_R   0.262509 0.501225 0.501886 0.806964
C13   C     C_3   0.401627 0.061096 0.748095 0.315452
C14   C     C_R   0.588664 0.565067 0.071142 0.181350
C15   C     C_R   0.421720 0.424152 0.076746 -0.016487
C16   C     C_R   0.422249 0.423793 0.927871 -0.003952
C17   C     C_R   0.591835 0.561748 0.923800 0.213446
C18   C     C_3   0.626910 0.696205 0.916100 0.290650
C19   C     C_3   0.613753 0.701080 0.074514 -0.554183
C20   C     C_R   0.495544 0.737333 0.499603 0.822567
C21   C     C_R   0.737659 0.502752 0.498071 0.854786
C22   C     C_R   0.057067 0.470462 0.619942 0.093228
C23   C     C_R   0.129981 0.511960 0.505726 -0.152288
C24   C     C_R   0.072691 0.569717 0.394476 -0.204386
C25   C     C_R   0.943650 0.571578 0.389444 0.111080
C26   C     C_R   0.871392 0.510455 0.496058 -0.099623
Cu1   Cu    Cu3+1 0.499990 0.499980 0.640670 0.999184
Cu2   Cu    Cu3+1 0.500010 0.500020 0.359330 0.956342
H1    H     H_    0.128490 0.611187 0.310090 0.170846
H2    H     H_    0.421880 0.860740 0.792468 0.227600
H3    H     H_    0.323919 0.117558 0.785617 0.057273
H4    H     H_    0.357083 0.364019 0.134339 0.142469
H5    H     H_    0.361317 0.360456 0.873741 0.139727
H6    H     H_    0.560210 0.751718 0.862908 0.126701
H7    H     H_    0.699344 0.727936 0.127821 0.230777
H8    H     H_    0.531808 0.752547 0.110895 0.199949
H9    H     H_    0.861160 0.363747 0.794005 0.210874
H10   H     H_    0.617749 0.115087 0.312592 0.177338
H11   H     H_    0.614956 0.888419 0.314191 0.156220
H12   H     H_    0.266811 0.904289 0.741695 0.163474
N1    N     N_R   0.500790 0.500930 0.147930 -0.187477
N2    N     N_R   0.500790 0.500890 0.852020 -0.222695
O1    O     O_R   0.500000 0.319640 0.618810 -0.548086
O2    O     O_R   0.500010 0.319680 0.381230 -0.578629
O3    O     O_R   0.319650 0.499970 0.618810 -0.595260
O4    O     O_R   0.319660 0.500010 0.381230 -0.590452
O5    O     O_R   0.499990 0.680320 0.618770 -0.572411
O6    O     O_R   0.500000 0.680360 0.381190 -0.598397
O7    O     O_R   0.680340 0.499990 0.618770 -0.530329
O8    O     O_R   0.680350 0.500030 0.381190 -0.587259
S1    S     S_3+6 0.540357 0.080639 0.845714 -0.009113
O9    O     O_2   0.578314 0.214730 0.856310 -0.300755
O10   O     O_2   0.518024 0.029221 0.990563 -0.307143
O11   O     O_3   0.654347 0.003847 0.765152 -0.494511
H13   H     H_    0.729939 0.031270 0.813377 0.393084
S2    S     S_3+6 0.782457 0.724520 0.853480 0.009186
O12   O     O_2   0.836084 0.836854 0.925027 -0.292928
O13   O     O_2   0.859309 0.615297 0.884027 -0.349946
O14   O     O_3   0.782872 0.749886 0.679962 -0.521421
H14   H     H_    0.870751 0.764304 0.652445 0.360384
C27   C     C_3   0.887222 0.638824 0.271215 -0.755344
H15   H     H_    0.839083 0.571723 0.202090 0.258861
H16   H     H_    0.822230 0.706850 0.315237 0.219263
H17   H     H_    0.957630 0.690418 0.205845 0.243913
C28   C     C_3   0.860974 0.239878 0.610250 -0.807880
H18   H     H_    0.759575 0.247510 0.605425 0.254230
H19   H     H_    0.899555 0.238234 0.501390 0.227288
H20   H     H_    0.880125 0.151521 0.662812 0.257977
C29   C     C_3   0.094426 0.387109 0.859890 -0.821918
H21   H     H_    0.108655 0.301299 0.920124 0.228568
H22   H     H_    0.180027 0.445106 0.857269 0.229822
H23   H     H_    0.024084 0.441458 0.917053 0.252443
C30   C     C_3   0.130312 0.250195 0.643857 -0.827531
H24   H     H_    0.230384 0.270588 0.653246 0.220601
H25   H     H_    0.111708 0.238496 0.530861 0.221840
H26   H     H_    0.106940 0.162062 0.699167 0.234456

loop_
_geom_bond_atom_site_label_1
_geom_bond_atom_site_label_2
_ccdc_geom_bond_type
C21   C26   S    
C27   H17   S    
C30   H24   S    
C21   O7    A    
C7    C8    A    
C3    C28   S    
C12   C23   S    
Cu2   O4    S    
C19   H8    S    
C5    C6    A    
C15   C16   A    
Cu2   N1    S    
S2    O12   D    
C29   H22   S    
C18   C19   S    
C27   H16   S    
C17   N2    A    
C4    C29   S    
C9    C20   S    
C24   H1    S    
Cu2   O8    S    
C1    O1    A    
C11   H2    S    
C8    C9    A    
C28   H19   S    
C2    C22   A    
C23   C24   A    
C8    H11   S    
C9    C10   A    
C5    C13   S    
C18   S2    S    
Cu1   O3    S    
O14   H14   S    
C13   S1    S    
C30   H25   S    
C14   C17   A    
C11   H12   S    
C21   O8    A    
C1    C6    S    
C15   H4    S    
C24   C25   A    
C15   N1    A    
C12   O4    A    
C25   C26   A    
Cu2   O2    S    
S1    O9    D    
S1    O10   D    
C29   H23   S    
C16   H5    S    
C4    C22   S    
C1    O2    A    
C28   H20   S    
C17   C18   S    
C2    C26   A    
C25   C27   S    
C18   H6    S    
C4    C30   S    
C20   O6    A    
C14   N1    A    
C30   H26   S    
C3    C4    S    
C16   N2    A    
Cu1   O5    S    
O11   H13   S    
Cu2   O6    S    
C14   C19   S    
C13   H3    S    
C12   O3    A    
C6    C7    A    
S2    O14   S    
S1    O11   S    
C2    C3    S    
C5    C10   A    
C19   H7    S    
C11   C13   S    
Cu1   N2    S    
C7    H10   S    
S2    O13   D    
C27   H15   S    
C29   H21   S    
C20   O5    A    
C10   C11   S    
Cu1   O1    S    
C3    H9    S    
C28   H18   S    
Cu1   Cu2   S    
C22   C23   A    
Cu1   O7    S    
