data_mof_unit_55656.cif
_audit_creation_date              2013-03-05T16:12:27-0500
_audit_creation_method            fapswitch 2.2
_symmetry_space_group_name_H-M    P1
_symmetry_Int_Tables_number       1
_space_group_crystal_system       triclinic
_cell_length_a                    10.72072
_cell_length_b                    9.98458
_cell_length_c                    23.424427
_cell_angle_alpha                 90.001614
_cell_angle_beta                  93.735372
_cell_angle_gamma                 89.998606
_cell_volume                      2502.06811631

loop_
_atom_site_label
_atom_site_type_symbol
_atom_site_description
_atom_site_fract_x
_atom_site_fract_y
_atom_site_fract_z
_atom_type_partial_charge
O1    O     O_R   0.316770 0.614620 0.500000 -0.630977
O2    O     O_R   0.683230 0.385380 0.500000 -0.630771
O3    O     O_R   0.683230 0.614620 0.500000 -0.631021
O4    O     O_R   0.316770 0.385380 0.500000 -0.630818
C1    C     C_R   0.260272 0.500001 0.499801 0.862820
C2    C     C_R   0.739728 0.499999 0.500199 0.862825
O5    O     O_R   0.499970 0.614690 0.416160 -0.624788
O6    O     O_R   0.500030 0.385310 0.583840 -0.626905
O7    O     O_R   0.500030 0.614690 0.583840 -0.624699
O8    O     O_R   0.499970 0.385310 0.416160 -0.626808
C3    C     C_R   0.499271 0.499990 0.389482 0.877686
C4    C     C_R   0.500730 0.499991 0.610519 0.877683
Zn1   Zn    Zn3+2 0.500000 0.653120 0.500000 0.937898
Zn2   Zn    Zn3+2 0.500000 0.346880 0.500000 0.937440
C5    C     C_R   0.614152 0.504192 0.884339 0.503433
C6    C     C_R   0.385886 0.505594 0.115663 0.503412
N1    N     N_R   0.502839 0.503351 0.852446 -0.354701
N2    N     N_R   0.497183 0.503340 0.147556 -0.354702
C7    C     C_R   0.390473 0.505415 0.876802 0.504173
C8    C     C_R   0.609566 0.503985 0.123201 0.504199
C9    C     C_R   0.386885 0.506732 0.936276 -0.017337
C10   C     C_R   0.613168 0.505282 0.063726 -0.017347
C11   C     C_R   0.500606 0.506247 0.970032 -0.020890
C12   C     C_R   0.499449 0.506242 0.029970 -0.020885
C13   C     C_R   0.615477 0.505374 0.943989 -0.015614
C14   C     C_R   0.384576 0.506808 0.056014 -0.015610
C15   C     C_R   0.272971 0.507913 0.962617 -0.156153
C16   C     C_R   0.727087 0.505043 0.037385 -0.156151
C17   C     C_R   0.271825 0.507974 0.022012 -0.159248
C18   C     C_R   0.728234 0.505113 0.977991 -0.159245
O9    O     O_2   0.722735 0.503348 0.858231 -0.550153
O10   O     O_2   0.277300 0.506127 0.141771 -0.550167
O11   O     O_2   0.282993 0.505626 0.843410 -0.546755
O12   O     O_2   0.717041 0.502824 0.156592 -0.546743
H1    H     H_    0.184510 0.508416 0.937481 0.195869
H2    H     H_    0.815546 0.504427 0.062522 0.195864
H3    H     H_    0.182516 0.508522 0.041139 0.191256
H4    H     H_    0.817543 0.504545 0.958864 0.191251
C19   C     C_R   0.498421 0.621540 0.238039 -0.146747
C20   C     C_R   0.502973 0.621549 0.762004 -0.146671
H5    H     H_    0.499987 0.715674 0.215121 0.146497
H6    H     H_    0.502526 0.715701 0.784955 0.146464
C21   C     C_R   0.499224 0.621582 0.297225 -0.216095
C22   C     C_R   0.502160 0.621592 0.702817 -0.216060
H7    H     H_    0.501263 0.716737 0.319462 0.171839
H8    H     H_    0.501247 0.716763 0.680615 0.171673
C23   C     C_R   0.497882 0.499944 0.327118 -0.079886
C24   C     C_R   0.502111 0.499941 0.672883 -0.079879
C25   C     C_R   0.495076 0.378194 0.297049 -0.206093
C26   C     C_R   0.503527 0.378165 0.702911 -0.206155
H9    H     H_    0.493753 0.283863 0.319861 0.165118
H10   H     H_    0.503725 0.283815 0.680068 0.165296
C27   C     C_R   0.494196 0.377473 0.237456 0.237074
C28   C     C_R   0.504363 0.377442 0.762503 0.236997
C29   C     C_R   0.496162 0.500412 0.208231 0.322573
C30   C     C_R   0.503829 0.500405 0.791771 0.322596
C31   C     C_R   0.063881 0.377862 0.499961 -0.187192
C32   C     C_R   0.936119 0.622135 0.500040 -0.187132
C33   C     C_R   0.936143 0.377862 0.500169 -0.187172
C34   C     C_R   0.063856 0.622135 0.499831 -0.187115
C35   C     C_R   0.872432 0.499998 0.500189 -0.007769
C36   C     C_R   0.127568 0.500000 0.499811 -0.007769
C37   C     C_R   0.580543 0.071731 0.536945 0.200406
C38   C     C_R   0.419454 0.928270 0.463057 0.199821
C39   C     C_R   0.419451 0.071729 0.463058 0.200586
C40   C     C_R   0.580551 0.928272 0.536941 0.199982
N3    N     N_R   0.500000 0.857200 0.500000 -0.117049
N4    N     N_R   0.500000 0.142800 0.500000 -0.116806
C41   C     C_3   0.491595 0.246772 0.205384 -0.883689
H11   H     H_    0.406632 0.241900 0.175724 0.256227
H12   H     H_    0.575732 0.238537 0.180374 0.255436
H13   H     H_    0.490374 0.159614 0.234817 0.231859
C42   C     C_3   0.505395 0.246723 0.794530 -0.883744
H14   H     H_    0.590277 0.240696 0.824198 0.256076
H15   H     H_    0.421150 0.239648 0.819524 0.255609
H16   H     H_    0.505589 0.159553 0.765066 0.231905
H17   H     H_    0.112196 0.282556 0.499971 0.161571
H18   H     H_    0.887805 0.717441 0.500030 0.161542
H19   H     H_    0.887849 0.282555 0.500265 0.161551
H20   H     H_    0.112150 0.717442 0.499735 0.161520
C43   C     C_3   0.671617 0.142666 0.578755 -0.824643
H21   H     H_    0.668026 0.251032 0.576907 0.288116
H22   H     H_    0.652667 0.115359 0.623281 0.215205
H23   H     H_    0.768972 0.114994 0.570375 0.212309
C44   C     C_3   0.328381 0.857333 0.421249 -0.823602
H24   H     H_    0.331963 0.748967 0.423104 0.288275
H25   H     H_    0.231026 0.885022 0.429622 0.212096
H26   H     H_    0.347354 0.884614 0.376724 0.215362
C45   C     C_3   0.328322 0.142662 0.421272 -0.824889
H27   H     H_    0.331988 0.251030 0.423085 0.288087
H28   H     H_    0.347137 0.115266 0.376740 0.215015
H29   H     H_    0.230982 0.115072 0.429713 0.212383
C46   C     C_3   0.671676 0.857336 0.578725 -0.823852
H30   H     H_    0.668021 0.748970 0.576904 0.288251
H31   H     H_    0.769017 0.884946 0.570293 0.212174
H32   H     H_    0.652834 0.884704 0.623257 0.215197

loop_
_geom_bond_atom_site_label_1
_geom_bond_atom_site_label_2
_geom_bond_distance
_ccdc_geom_bond_type
C46   H30   1.083441 S    
C15   C17   1.392131 A    
C42   H14   1.110084 S    
C3    C23   1.459954 S    
C4    C24   1.459970 S    
O3    C2    1.294698 A    
C27   C41   1.505128 S    
C25   H9    1.083438 S    
C43   H21   1.083444 S    
C31   C36   1.397744 A    
C19   H5    1.083090 S    
C44   H24   1.083436 S    
C39   C45   1.513118 S    
C26   C28   1.395375 A    
C37   C43   1.513120 S    
O1    C1    1.294709 A    
C2    C35   1.422699 S    
C7    C9    1.396254 A    
C12   C14   1.409512 A    
C31   C33   1.369768 A    
C32   C34   1.369765 A    
C18   H4    1.083236 S    
C34   C36   1.397732 A    
C41   H12   1.110152 S    
O7    Zn1   2.001028 S    
C19   C29   1.395896 A    
C20   C30   1.395906 A    
C26   H10   1.083456 S    
C11   C12   1.404878 A    
C45   H28   1.109529 S    
O3    Zn1   2.001606 S    
C8    O12   1.349846 S    
C32   C35   1.397741 A    
C20   H6    1.083081 S    
C40   N3    1.378659 A    
C9    C15   1.403734 A    
C37   C40   1.432382 A    
C46   H31   1.109459 S    
C10   C16   1.403739 A    
C42   H15   1.110132 S    
O2    C2    1.294703 A    
C43   H22   1.109542 S    
C22   H8    1.083012 S    
C27   C29   1.406331 A    
C6    C14   1.396466 A    
C28   C30   1.406358 A    
C33   C35   1.397735 A    
C44   H25   1.109454 S    
C38   N3    1.378656 A    
C31   H17   1.083414 S    
C23   C25   1.404255 A    
O8    Zn2   2.001030 S    
C33   H19   1.083414 S    
C19   C21   1.385866 A    
C15   H1    1.083209 S    
C41   H13   1.110872 S    
O5    C3    1.304411 A    
C28   C42   1.505120 S    
C20   C22   1.385876 A    
O6    C4    1.304251 A    
C39   N4    1.378667 A    
C45   H29   1.109455 S    
C21   H7    1.083028 S    
N1    C30   1.422325 S    
N2    C29   1.422326 S    
C40   C46   1.513087 S    
C8    C10   1.396269 A    
C46   H32   1.109514 S    
C9    C11   1.409265 A    
C7    O11   1.349845 S    
C42   H16   1.110855 S    
C10   C12   1.409267 A    
O1    Zn1   2.001626 S    
C38   C44   1.513091 S    
C43   H23   1.109451 S    
Zn1   N3    2.037653 S    
C44   H26   1.109530 S    
C13   C18   1.403637 A    
C5    N1    1.366057 A    
C37   N4    1.378661 A    
C34   H20   1.083415 S    
O6    Zn2   2.001006 S    
O4    C1    1.294692 A    
C5    O9    1.349796 S    
C6    O10   1.349803 S    
C38   C39   1.432383 A    
C16   C18   1.392135 A    
C25   C27   1.395369 A    
C24   C26   1.404275 A    
N1    C7    1.366245 A    
C1    C36   1.422699 S    
N2    C8    1.366260 A    
C11   C13   1.409506 A    
O4    Zn2   2.001607 S    
C41   H11   1.110087 S    
O2    Zn2   2.001625 S    
O7    C4    1.304435 A    
C5    C13   1.396458 A    
O8    C3    1.304263 A    
C32   H18   1.083415 S    
O5    Zn1   2.001009 S    
C16   H2    1.083213 S    
C14   C17   1.403637 A    
C6    N2    1.366075 A    
C17   H3    1.083232 S    
Zn2   N4    2.037653 S    
C45   H27   1.083449 S    
C21   C23   1.402461 A    
C22   C24   1.402466 A    
