data_mof_unit_51166.cif
_audit_creation_date              2012-12-11T16:51:25-0500
_audit_creation_method            fapswitch 2.2
_symmetry_space_group_name_H-M    P1
_symmetry_Int_Tables_number       1
_space_group_crystal_system       triclinic
_cell_length_a                    24.341783
_cell_length_b                    17.158265
_cell_length_c                    15.492447
_cell_angle_alpha                 90.00003
_cell_angle_beta                  128.911088
_cell_angle_gamma                 90.0
_cell_volume                      5034.92786517

loop_
_atom_site_label
_atom_site_type_symbol
_atom_type_description
_atom_site_fract_x
_atom_site_fract_y
_atom_site_fract_z
_atom_type_partial_charge
C1    C     C_R   0.832540 0.892702 0.198183 -0.128244
C2    C     C_R   0.184454 0.118178 0.500969 0.082934
C3    C     C_3   0.555856 0.835743 0.829082 -0.297754
C4    C     C_R   0.315546 0.618178 0.499031 0.082933
C5    C     C_R   0.684454 0.618178 0.500969 0.082933
C6    C     C_R   0.885136 0.185199 0.214219 -0.032507
C7    C     C_R   0.114863 0.185199 0.785781 -0.032507
C8    C     C_R   0.385136 0.685199 0.214219 -0.032507
C9    C     C_R   0.614863 0.685199 0.785780 -0.032506
C10   C     C_R   0.853928 0.708466 0.605587 0.163121
C11   C     C_R   0.146071 0.708466 0.394413 0.163121
C12   C     C_R   0.353928 0.208466 0.605587 0.163121
C13   C     C_R   0.167460 0.892702 0.801817 -0.128244
C14   C     C_R   0.646071 0.208465 0.394413 0.163122
C15   C     C_R   0.835545 0.736755 0.505608 0.029946
C16   C     C_R   0.164455 0.736755 0.494392 0.029945
C17   C     C_R   0.335545 0.236755 0.505608 0.029946
C18   C     C_R   0.664455 0.236754 0.494392 0.029946
C19   C     C_R   0.781188 0.698360 0.406877 -0.197604
C20   C     C_R   0.218812 0.698360 0.593123 -0.197604
C21   C     C_R   0.281188 0.198360 0.406877 -0.197604
C22   C     C_R   0.718812 0.198360 0.593123 -0.197605
C23   C     C_R   0.234997 0.149210 0.406111 -0.201213
C24   C     C_R   0.332540 0.392702 0.198183 -0.128244
C25   C     C_R   0.765003 0.149210 0.593889 -0.201213
C26   C     C_R   0.734997 0.649210 0.406111 -0.201213
C27   C     C_R   0.265003 0.649210 0.593889 -0.201213
C28   C     C_R   0.244020 0.138217 0.504362 0.029153
C29   C     C_R   0.755980 0.138217 0.495638 0.029153
C30   C     C_R   0.744020 0.638217 0.504362 0.029153
C31   C     C_R   0.255980 0.638217 0.495638 0.029153
C32   C     C_R   0.308799 0.159452 0.604873 0.160474
C33   C     C_R   0.691201 0.159452 0.395127 0.160474
C34   C     C_R   0.808799 0.659453 0.604873 0.160474
C35   C     C_R   0.667460 0.392701 0.801817 -0.128244
C36   C     C_R   0.191201 0.659453 0.395127 0.160474
C37   C     C_3   0.825581 0.696062 0.706738 -0.525103
C38   C     C_3   0.174418 0.696061 0.293262 -0.525102
C39   C     C_3   0.325582 0.196062 0.706738 -0.525102
C40   C     C_3   0.674418 0.196061 0.293261 -0.525105
C41   C     C_R   0.085848 0.855207 0.406791 -0.144370
C42   C     C_R   0.914152 0.855207 0.593209 -0.144369
C43   C     C_R   0.585848 0.355207 0.406791 -0.144369
C44   C     C_R   0.414152 0.355207 0.593209 -0.144369
C45   C     C_3   0.874565 0.749996 0.707325 -0.521637
C46   C     C_R   0.884524 0.103165 0.591568 -0.149433
C47   C     C_3   0.125435 0.749996 0.292675 -0.521638
C48   C     C_3   0.374565 0.249996 0.707325 -0.521638
C49   C     C_3   0.625435 0.249996 0.292675 -0.521638
C50   C     C_2   0.193345 0.847793 0.980459 -0.248264
C51   C     C_2   0.806655 0.847793 0.019541 -0.248264
C52   C     C_2   0.693345 0.347793 0.980459 -0.248263
C53   C     C_2   0.306655 0.347793 0.019541 -0.248266
C54   C     C_2   0.263584 0.849759 0.041163 -0.034637
C55   C     C_2   0.736416 0.849760 0.958837 -0.034637
C56   C     C_2   0.763584 0.349759 0.041163 -0.034636
C57   C     C_R   0.115476 0.103165 0.408432 -0.149431
C58   C     C_2   0.236416 0.349760 0.958837 -0.034634
C59   C     C_2   0.862141 0.260230 0.155358 0.599069
C60   C     C_2   0.137859 0.260231 0.844641 0.599067
C61   C     C_2   0.362141 0.760231 0.155359 0.599068
C62   C     C_2   0.637859 0.760231 0.844641 0.599068
C63   C     C_2   0.806743 0.297498 0.136088 -0.326915
C64   C     C_2   0.193257 0.297498 0.863912 -0.326913
C65   C     C_2   0.306743 0.797498 0.136088 -0.326914
C66   C     C_2   0.693257 0.797498 0.863912 -0.326913
C67   C     C_R   0.163014 0.856107 0.591574 -0.125920
C68   C     C_R   0.384523 0.603164 0.591568 -0.149431
C69   C     C_R   0.836986 0.856107 0.408426 -0.125920
C70   C     C_R   0.663014 0.356107 0.591574 -0.125919
C71   C     C_R   0.336986 0.356107 0.408426 -0.125919
C72   C     C_R   0.076643 0.893742 0.803391 -0.161818
C73   C     C_R   0.923357 0.893742 0.196609 -0.161818
C74   C     C_R   0.576642 0.393742 0.803391 -0.161818
C75   C     C_R   0.423357 0.393742 0.196609 -0.161817
C76   C     C_R   0.852808 0.874434 0.134864 0.153872
C77   C     C_R   0.147192 0.874434 0.865136 0.153872
C78   C     C_R   0.352808 0.374434 0.134864 0.153872
C79   C     C_R   0.615476 0.603164 0.408432 -0.149431
C80   C     C_R   0.647192 0.374434 0.865136 0.153872
C81   C     C_R   0.138010 0.811972 0.498096 0.071069
C82   C     C_R   0.861990 0.811972 0.501904 0.071068
C83   C     C_R   0.638010 0.311972 0.498096 0.071068
C84   C     C_R   0.361990 0.311972 0.501904 0.071068
C85   C     C_R   0.810848 0.100878 0.407910 -0.156964
C86   C     C_R   0.189152 0.100878 0.592090 -0.156964
C87   C     C_R   0.310848 0.600878 0.407910 -0.156964
C88   C     C_R   0.689152 0.600878 0.592090 -0.156964
C89   C     C_R   0.942914 0.141661 0.244154 -0.081919
C90   C     C_R   0.815546 0.118178 0.499031 0.082934
C91   C     C_R   0.057086 0.141661 0.755846 -0.081921
C92   C     C_R   0.442914 0.641661 0.244154 -0.081919
C93   C     C_R   0.557086 0.641661 0.755846 -0.081920
C94   C     C_R   0.148534 0.142416 0.754854 -0.174015
C95   C     C_R   0.851466 0.142416 0.245146 -0.174016
C96   C     C_R   0.648534 0.642416 0.754854 -0.174017
C97   C     C_R   0.351466 0.642416 0.245146 -0.174015
C98   C     C_3   0.944143 0.335742 0.170915 -0.297754
C99   C     C_3   0.055854 0.335740 0.829079 -0.297754
C100  C     C_3   0.444144 0.835743 0.170916 -0.297750
H1    H     H_    0.779391 0.894947 0.170833 0.090724
H2    H     H_    0.219947 0.727295 0.308842 0.199702
H3    H     H_    0.280052 0.227295 0.691157 0.199702
H4    H     H_    0.719947 0.227294 0.308842 0.199702
H5    H     H_    0.853895 0.655440 0.778587 0.189063
H6    H     H_    0.146105 0.655440 0.221413 0.189062
H7    H     H_    0.353895 0.155440 0.778587 0.189062
H8    H     H_    0.646104 0.155439 0.221413 0.189063
H9    H     H_    0.856278 0.811560 0.691782 0.201101
H10   H     H_    0.143722 0.811560 0.308218 0.201100
H11   H     H_    0.356278 0.311560 0.691782 0.201101
H12   H     H_    0.220609 0.894947 0.829167 0.090724
H13   H     H_    0.643721 0.311560 0.308217 0.201100
H14   H     H_    0.931006 0.740721 0.779883 0.189876
H15   H     H_    0.068994 0.740721 0.220117 0.189876
H16   H     H_    0.431005 0.240721 0.779883 0.189876
H17   H     H_    0.568994 0.240720 0.220117 0.189876
H18   H     H_    0.785493 0.279346 0.176961 0.111652
H19   H     H_    0.214507 0.279345 0.823039 0.111651
H20   H     H_    0.285493 0.779345 0.176961 0.111652
H21   H     H_    0.714507 0.779345 0.823039 0.111651
H22   H     H_    0.287973 0.879057 0.010875 0.158174
H23   H     H_    0.279391 0.394947 0.170833 0.090725
H24   H     H_    0.712026 0.879058 0.989125 0.158174
H25   H     H_    0.787973 0.379057 0.010875 0.158174
H26   H     H_    0.212027 0.379059 0.989124 0.158177
H27   H     H_    0.169250 0.818650 0.011601 0.140292
H28   H     H_    0.830749 0.818650 0.988399 0.140292
H29   H     H_    0.669250 0.318649 0.011601 0.140292
H30   H     H_    0.330750 0.318649 0.988399 0.140293
H31   H     H_    0.052910 0.838131 0.321098 0.109991
H32   H     H_    0.947090 0.838131 0.678902 0.109991
H33   H     H_    0.552910 0.338131 0.321098 0.109991
H34   H     H_    0.720609 0.394947 0.829167 0.090724
H35   H     H_    0.447090 0.338131 0.678902 0.109991
H36   H     H_    0.204017 0.840587 0.677148 0.099364
H37   H     H_    0.795982 0.840587 0.322851 0.099364
H38   H     H_    0.704017 0.340587 0.677148 0.099365
H39   H     H_    0.295982 0.340587 0.322851 0.099364
H40   H     H_    0.047546 0.897446 0.834624 0.095187
H41   H     H_    0.952454 0.897446 0.165375 0.095187
H42   H     H_    0.547546 0.397446 0.834624 0.095187
H43   H     H_    0.452454 0.397446 0.165376 0.095187
H44   H     H_    0.763159 0.091854 0.324015 0.102787
H45   H     H_    0.188266 0.128593 0.327048 0.131512
H46   H     H_    0.236840 0.091854 0.675984 0.102787
H47   H     H_    0.263159 0.591854 0.324015 0.102787
H48   H     H_    0.736841 0.591854 0.675984 0.102787
H49   H     H_    0.980628 0.157263 0.232016 0.118689
H50   H     H_    0.019372 0.157263 0.767984 0.118686
H51   H     H_    0.480628 0.657263 0.232016 0.118689
H52   H     H_    0.519372 0.657263 0.767984 0.118690
H53   H     H_    0.195902 0.157079 0.766478 0.101544
H54   H     H_    0.804097 0.157079 0.233521 0.101545
H55   H     H_    0.695902 0.657079 0.766478 0.101545
H56   H     H_    0.811734 0.128593 0.672952 0.131512
H57   H     H_    0.304097 0.657079 0.233521 0.101544
H58   H     H_    0.904497 0.099167 0.676458 0.091494
H59   H     H_    0.095503 0.099167 0.323542 0.091494
H60   H     H_    0.404497 0.599167 0.676458 0.091494
H61   H     H_    0.595503 0.599167 0.323542 0.091494
H62   H     H_    0.768420 0.713699 0.328379 0.136737
H63   H     H_    0.231580 0.713699 0.671621 0.136737
H64   H     H_    0.268419 0.213699 0.328379 0.136737
H65   H     H_    0.731580 0.213699 0.671621 0.136737
H66   H     H_    0.966148 0.353357 0.129212 0.179133
H67   H     H_    0.688266 0.628593 0.327049 0.131512
H68   H     H_    0.987655 0.308535 0.251649 0.138054
H69   H     H_    0.925067 0.389447 0.184999 0.142675
H70   H     H_    0.033857 0.353366 0.870790 0.179133
H71   H     H_    0.012338 0.308524 0.748356 0.138061
H72   H     H_    0.074924 0.389440 0.814973 0.142669
H73   H     H_    0.466149 0.853356 0.129214 0.179132
H74   H     H_    0.487655 0.808536 0.251651 0.138053
H75   H     H_    0.425067 0.889448 0.184998 0.142675
H76   H     H_    0.533850 0.853357 0.870784 0.179133
H77   H     H_    0.512345 0.808536 0.748348 0.138054
H78   H     H_    0.311734 0.628593 0.672951 0.131512
H79   H     H_    0.574932 0.889448 0.814999 0.142676
H80   H     H_    0.780052 0.727295 0.691157 0.199702
N1    N     N_R   0.888400 0.921830 0.294620 -0.043208
N2    N     N_R   0.874350 0.922400 0.443380 -0.039849
N3    N     N_R   0.625650 0.422400 0.556620 -0.039849
N4    N     N_R   0.374350 0.422400 0.443380 -0.039849
N5    N     N_R   0.054230 0.922730 0.705400 -0.040280
N6    N     N_R   0.945770 0.922730 0.294600 -0.040280
N7    N     N_R   0.554230 0.422730 0.705400 -0.040280
N8    N     N_R   0.445770 0.422730 0.294600 -0.040280
N9    N     N_R   0.873790 0.077030 0.443380 -0.037000
N10   N     N_R   0.126210 0.077030 0.556620 -0.037000
N11   N     N_R   0.373790 0.577030 0.443380 -0.037000
N12   N     N_R   0.111600 0.921830 0.705380 -0.043208
N13   N     N_R   0.626210 0.577030 0.556620 -0.037000
N14   N     N_R   0.945200 0.076700 0.294600 -0.044335
N15   N     N_R   0.054800 0.076700 0.705400 -0.044334
N16   N     N_R   0.445200 0.576700 0.294600 -0.044335
N17   N     N_R   0.554800 0.576700 0.705400 -0.044334
N18   N     N_R   0.111030 0.077600 0.705380 -0.031644
N19   N     N_R   0.888970 0.077600 0.294620 -0.031644
N20   N     N_R   0.611030 0.577600 0.705380 -0.031644
N21   N     N_R   0.388970 0.577600 0.294620 -0.031644
N22   N     N_R   0.919490 0.077280 0.556590 -0.041461
N23   N     N_R   0.388400 0.421830 0.294620 -0.043208
N24   N     N_R   0.080510 0.077280 0.443410 -0.041462
N25   N     N_R   0.419490 0.577280 0.556590 -0.041462
N26   N     N_R   0.580510 0.577280 0.443410 -0.041462
N27   N     N_R   0.611600 0.421830 0.705380 -0.043208
N28   N     N_R   0.079940 0.922160 0.443410 -0.039178
N29   N     N_R   0.920060 0.922160 0.556590 -0.039178
N30   N     N_R   0.579940 0.422160 0.443410 -0.039178
N31   N     N_R   0.420060 0.422160 0.556590 -0.039178
N32   N     N_R   0.125650 0.922400 0.556620 -0.039849
Ni1   Ni    Ni4+2 0.882160 0.999430 0.370180 0.210389
Ni2   Ni    Ni4+2 0.117840 0.999430 0.629820 0.210389
Ni3   Ni    Ni4+2 0.382160 0.499430 0.370180 0.210389
Ni4   Ni    Ni4+2 0.617840 0.499430 0.629820 0.210389
Ni5   Ni    Ni4+2 0.012460 0.999430 0.370180 0.209919
Ni6   Ni    Ni4+2 0.987540 0.999430 0.629820 0.209919
Ni7   Ni    Ni4+2 0.512460 0.499430 0.370180 0.209919
Ni8   Ni    Ni4+2 0.487540 0.499430 0.629820 0.209919
O1    O     O_3   0.888503 0.282746 0.101780 -0.612429
O2    O     O_3   0.111496 0.282748 0.898219 -0.612429
O3    O     O_3   0.388504 0.782746 0.101781 -0.612429
O4    O     O_3   0.611496 0.782747 0.898218 -0.612429

loop_
_geom_bond_atom_site_label_1
_geom_bond_atom_site_label_2
_ccdc_geom_bond_type
C49   H13   S    
N25   Ni8   S    
C3    O4    S    
C1    H1    S    
C34   C37   S    
C43   C83   A    
C14   C18   A    
C100  H75   S    
C11   C47   S    
C75   N8    A    
C42   C82   A    
C27   H78   S    
C12   C48   S    
N10   N24   A    
N16   Ni7   S    
C14   C33   A    
C73   N6    A    
C2    C57   A    
C24   N23   A    
C99   H70   S    
C73   H41   S    
N3    N30   A    
C47   H15   S    
N31   Ni8   S    
C23   H45   S    
C17   C84   S    
C50   C54   D    
C64   H19   S    
C87   H47   S    
N5    N12   A    
C52   H29   S    
N23   Ni3   S    
C11   C36   A    
C71   C84   A    
C13   H12   S    
C10   C15   A    
C37   H80   S    
C45   H9    S    
C14   C49   S    
C99   H71   S    
C89   N14   A    
C51   H28   S    
C85   N9    A    
C40   C49   S    
C46   H58   S    
C98   O1    S    
C29   C33   A    
C35   C80   A    
N28   Ni5   S    
C35   H34   S    
N11   N25   A    
C32   C39   S    
C43   H33   S    
C19   C26   A    
C3    H79   S    
N21   Ni3   S    
C16   C81   S    
C69   C82   A    
C59   O1    S    
N11   Ni3   S    
C98   H69   S    
C79   N26   A    
C45   H14   S    
C49   H17   S    
C22   C25   A    
C42   H32   S    
C12   C17   A    
N2    Ni1   S    
N9    Ni1   S    
C8    C92   A    
C62   O4    S    
C5    C79   A    
N17   Ni8   S    
N28   N32   A    
C69   N2    A    
C40   H8    S    
N15   N18   A    
C44   H35   S    
C89   H49   S    
C74   H42   S    
C99   O2    S    
C7    C91   A    
C21   H64   S    
C74   C80   A    
C12   C32   A    
C25   H56   S    
C58   C64   S    
C22   H65   S    
C79   H61   S    
C6    C59   S    
C85   H44   S    
N12   Ni2   S    
C29   C90   S    
N6    Ni5   S    
C58   H26   S    
N14   Ni5   S    
C100  H73   S    
N7    Ni8   S    
C25   C29   A    
C54   C65   S    
C13   C77   A    
C26   H67   S    
C86   N10   A    
C33   C40   S    
N5    Ni6   S    
C30   C34   A    
C27   C31   A    
C9    C62   S    
C28   C32   A    
N1    N6    A    
C51   C76   S    
C15   C82   S    
C41   H31   S    
C63   H18   S    
C62   C66   D    
N4    Ni3   S    
C71   H39   S    
C99   H72   S    
C53   H30   S    
C100  O3    S    
C92   N16   A    
C56   H25   S    
C20   H63   S    
C24   H23   S    
C17   C21   A    
N30   Ni7   S    
C4    C87   A    
C94   N18   A    
C19   H62   S    
C97   H57   S    
C38   H6    S    
N17   N20   A    
C15   C19   A    
C8    C97   A    
C61   O3    S    
C37   H5    S    
C72   C77   A    
N7    N27   A    
C40   H4    S    
C91   N15   A    
C11   C16   A    
C3    H76   S    
C87   N11   A    
N14   N19   A    
C72   H40   S    
C16   C20   A    
C41   C81   A    
C92   H51   S    
C18   C83   S    
C88   H48   S    
C66   H21   S    
C67   N32   A    
C10   C34   A    
C23   C28   A    
C70   C83   A    
N10   Ni2   S    
C9    C96   A    
C38   C47   S    
C98   H66   S    
C42   N29   A    
C75   H43   S    
C54   H22   S    
C35   N27   A    
N32   Ni2   S    
C67   C81   A    
C21   C23   A    
C100  H74   S    
N9    N22   A    
C73   C76   A    
C69   H37   S    
C85   C90   A    
N29   Ni6   S    
C37   C45   S    
C6    C89   A    
C50   C77   S    
C9    C93   A    
C7    C60   S    
C86   H46   S    
C55   C66   S    
N13   Ni4   S    
C4    C68   A    
C74   N7    A    
N8    Ni7   S    
C24   C78   A    
N3    Ni4   S    
C96   N20   A    
C7    C94   A    
C55   H24   S    
C1    N1    A    
N13   N26   A    
C43   N30   A    
C13   N12   A    
N19   Ni1   S    
C1    C76   A    
C71   N4    A    
C97   N21   A    
C44   C84   A    
C60   O2    S    
C39   H7    S    
C91   H50   S    
C2    C28   S    
C53   C58   D    
C39   H3    S    
C46   C90   A    
C20   C27   A    
N26   Ni7   S    
C47   H10   S    
C8    C61   S    
N8    N23   A    
C59   C63   D    
C48   H16   S    
N24   Ni5   S    
C60   C64   D    
C95   H54   S    
C44   N31   A    
C41   N28   A    
C18   C22   A    
C67   H36   S    
C3    H77   S    
N4    N31   A    
C38   H2    S    
C68   H60   S    
C70   H38   S    
N22   Ni6   S    
C94   H53   S    
C93   N17   A    
C56   C63   S    
C57   N24   A    
C36   C38   S    
N27   Ni4   S    
N20   Ni4   S    
C65   H20   S    
C2    C86   A    
C51   C55   D    
N2    N29   A    
C57   H59   S    
C75   C78   A    
C72   N5    A    
C4    C31   S    
C53   C78   S    
C96   H55   S    
C61   C65   D    
C70   N3    A    
C46   N22   A    
C48   H11   S    
C95   N19   A    
C6    C95   A    
C5    C30   S    
C10   C45   S    
C88   N13   A    
C68   N25   A    
C5    C88   A    
C31   C36   A    
C93   H52   S    
N1    Ni1   S    
C50   H27   S    
N16   N21   A    
C52   C80   S    
N15   Ni6   S    
C98   H68   S    
C52   C56   D    
C39   C48   S    
C26   C30   A    
N18   Ni2   S    
