data_mof_unit_52627.cif
_audit_creation_date              2012-12-10T20:37:31-0500
_audit_creation_method            fapswitch 2.2
_symmetry_space_group_name_H-M    P1
_symmetry_Int_Tables_number       1
_space_group_crystal_system       triclinic
_cell_length_a                    15.70863
_cell_length_b                    10.59974
_cell_length_c                    9.867674
_cell_angle_alpha                 89.3638
_cell_angle_beta                  90.854445
_cell_angle_gamma                 90.369949
_cell_volume                      1642.72418506

loop_
_atom_site_label
_atom_site_type_symbol
_atom_type_description
_atom_site_fract_x
_atom_site_fract_y
_atom_site_fract_z
_atom_type_partial_charge
C1    C     C_R   0.509338 0.260335 0.500684 0.901236
C2    C     C_3   0.082991 0.490687 0.498039 0.037221
C3    C     C_3   0.973323 0.610832 0.527467 -0.362518
C4    C     C_3   0.917283 0.492608 0.502653 0.067485
C5    C     C_3   0.026035 0.570507 0.405186 0.561362
C6    C     C_3   0.969015 0.454533 0.378162 -0.210370
C7    C     C_1   0.173828 0.493280 0.496821 0.033000
C8    C     C_1   0.826423 0.494623 0.503647 -0.015729
C9    C     C_R   0.548013 0.062789 0.621420 -0.061378
C10   C     C_R   0.536715 0.130889 0.500524 -0.256932
C11   C     C_R   0.553032 0.068648 0.376688 0.431308
C12   C     C_R   0.337946 0.499567 0.499088 0.896848
C13   C     C_R   0.555404 0.935627 0.376972 0.323011
C14   C     C_R   0.532515 0.870221 0.497421 -0.277178
C15   C     C_R   0.535839 0.936148 0.617613 -0.130496
C16   C     C_3   0.498922 0.927197 0.756257 0.401975
C17   C     C_3   0.517450 0.069033 0.765782 0.288953
C18   C     C_R   0.426290 0.480159 0.069540 0.126966
C19   C     C_R   0.570000 0.536506 0.074065 -0.111243
C20   C     C_R   0.569400 0.541192 0.930555 0.410027
C21   C     C_R   0.426080 0.480887 0.927485 0.082074
C22   C     C_3   0.366409 0.371153 0.920383 0.288652
C23   C     C_R   0.507978 0.739852 0.499131 0.909002
C24   C     C_3   0.368315 0.368407 0.075890 0.255345
C25   C     C_R   0.662132 0.499768 0.500942 0.879011
C26   C     C_3   0.972932 0.410145 0.597798 -0.218943
C27   C     C_3   0.026837 0.373658 0.473585 -0.312723
C28   C     C_1   0.249094 0.496405 0.497208 -0.120487
C29   C     C_1   0.751092 0.497126 0.502999 -0.157964
C30   C     C_3   0.029929 0.527193 0.619557 0.540924
H1    H     H_    0.051173 0.278051 0.451639 0.163878
H2    H     H_    0.539156 0.868505 0.825592 0.144536
H3    H     H_    0.460177 0.127235 0.781721 0.086721
H4    H     H_    0.626395 0.565806 0.129784 0.178120
H5    H     H_    0.396192 0.288444 0.872765 -0.002568
H6    H     H_    0.401201 0.284525 0.121452 0.055433
H7    H     H_    0.948670 0.344837 0.677224 0.148259
H8    H     H_    0.941568 0.425198 0.279003 0.146856
H9    H     H_    0.949671 0.706798 0.549522 0.149758
N1    N     N_R   0.499430 0.499140 0.142800 -0.160503
N2    N     N_R   0.499430 0.499180 0.857150 -0.199888
O1    O     O_R   0.500010 0.316790 0.614690 -0.663813
O2    O     O_R   0.500000 0.316760 0.385350 -0.555951
O3    O     O_R   0.376780 0.500010 0.614650 -0.569890
O4    O     O_R   0.376770 0.499970 0.385310 -0.579894
O5    O     O_R   0.500000 0.683240 0.614650 -0.611278
O6    O     O_R   0.499990 0.683210 0.385310 -0.590027
O7    O     O_R   0.623230 0.500030 0.614690 -0.613762
O8    O     O_R   0.623220 0.499990 0.385350 -0.630493
Zn1   Zn    Zn3+2 0.500010 0.500020 0.653130 0.964713
Zn2   Zn    Zn3+2 0.499990 0.499980 0.346870 1.000251
O9    O     O_3   0.586066 0.088058 0.858219 -0.614643
C31   C     C_3   0.594992 0.216675 0.888923 -0.205681
H10   H     H_    0.538098 0.251552 0.941806 0.122838
H11   H     H_    0.608895 0.273804 0.796850 0.200027
H12   H     H_    0.650017 0.227939 0.959571 0.194178
O10   O     O_3   0.639001 0.592932 0.868326 -0.759104
H13   H     H_    0.616710 0.644847 0.792066 0.365286
O11   O     O_3   0.286907 0.409396 0.865118 -0.496782
C32   C     C_3   0.245183 0.305159 0.805822 -0.193045
H14   H     H_    0.237865 0.225913 0.879639 0.130956
H15   H     H_    0.279849 0.273048 0.715074 0.117757
H16   H     H_    0.180547 0.334534 0.772045 0.201688
O12   O     O_3   0.289658 0.402266 0.132842 -0.508512
C33   C     C_3   0.252940 0.296341 0.197333 -0.223074
H17   H     H_    0.291611 0.267300 0.287634 0.136753
H18   H     H_    0.245216 0.216031 0.126494 0.137088
H19   H     H_    0.188761 0.322280 0.232837 0.184675
O13   O     O_3   0.060847 0.651595 0.305853 -0.584517
C34   C     C_3   0.994286 0.711163 0.233118 -0.297786
H20   H     H_    0.954544 0.769078 0.300649 0.160962
H21   H     H_    0.954144 0.641389 0.177668 0.149339
H22   H     H_    0.022506 0.775759 0.156578 0.194327
O14   O     O_3   0.069130 0.563505 0.742759 -0.582024
C35   C     C_3   0.005987 0.588164 0.838550 -0.257328
H23   H     H_    0.968109 0.501906 0.862092 0.150454
H24   H     H_    0.963562 0.666092 0.803939 0.153516
H25   H     H_    0.037717 0.618433 0.934053 0.209635
O15   O     O_3   0.564987 0.138526 0.258982 -0.752691
H26   H     H_    0.572031 0.081981 0.180922 0.388424
O16   O     O_3   0.576112 0.874161 0.259580 -0.751066
H27   H     H_    0.611306 0.800255 0.285679 0.343646
O17   O     O_3   0.410928 0.894148 0.767946 -0.590534
C36   C     C_3   0.357754 0.936590 0.659797 -0.256578
H28   H     H_    0.363629 0.874459 0.570847 0.173813
H29   H     H_    0.369467 0.036424 0.630228 0.104978
H30   H     H_    0.290702 0.930019 0.692924 0.194131

loop_
_geom_bond_atom_site_label_1
_geom_bond_atom_site_label_2
_ccdc_geom_bond_type
C18   C21   A    
C2    C7    S    
C36   H30   S    
C4    C8    S    
C20   N2    A    
C31   H10   S    
C22   H5    S    
C26   C27   S    
C24   H6    S    
C12   C28   S    
C32   H16   S    
C18   C24   S    
C8    C29   T    
C36   H29   S    
C5    C6    S    
C30   O14   S    
O4    Zn2   S    
C15   C16   S    
C13   O16   S    
C32   H15   S    
C18   N1    A    
C5    O13   S    
C1    O2    A    
O17   C36   S    
C16   C17   S    
O8    Zn2   S    
C6    H8    S    
C34   H20   S    
C9    C10   A    
O7    Zn1   S    
C3    H9    S    
O11   C32   S    
C24   O12   S    
C23   O5    A    
C13   C14   A    
C17   H3    S    
C17   O9    S    
O16   H27   S    
C31   H11   S    
C25   C29   S    
C23   O6    A    
O14   C35   S    
C27   H1    S    
C36   H28   S    
C4    C6    S    
C19   N1    A    
C22   O11   S    
O6    Zn2   S    
C33   H18   S    
C16   O17   S    
C7    C28   T    
C32   H14   S    
C14   C23   S    
C3    C30   S    
C35   H23   S    
C6    C27   S    
C33   H19   S    
C34   H22   S    
C35   H24   S    
C25   O7    A    
C2    C27   S    
C11   O15   S    
O1    Zn1   S    
C21   N2    A    
C9    C17   S    
C26   C30   S    
C22   C24   S    
C2    C5    S    
C3    C4    S    
N2    Zn1   S    
O9    C31   S    
C31   H12   S    
O3    Zn1   S    
C1    C10   S    
C12   O4    A    
C3    C5    S    
C19   H4    S    
C4    C26   S    
C26   H7    S    
C16   H2    S    
N1    Zn2   S    
O5    Zn1   S    
C2    C30   S    
O12   C33   S    
C19   C20   A    
C9    C15   A    
C12   O3    A    
C11   C13   A    
O2    Zn2   S    
O10   H13   S    
O13   C34   S    
C35   H25   S    
C25   O8    A    
C10   C11   A    
O15   H26   S    
C1    O1    A    
C33   H17   S    
C14   C15   A    
C34   H21   S    
C20   O10   S    
C21   C22   S    
