data_mof_unit_56930.cif
_audit_creation_date              2012-12-10T18:35:01-0500
_audit_creation_method            fapswitch 2.2
_symmetry_space_group_name_H-M    P1
_symmetry_Int_Tables_number       1
_space_group_crystal_system       triclinic
_cell_length_a                    15.119043
_cell_length_b                    14.020588
_cell_length_c                    10.724417
_cell_angle_alpha                 89.981271
_cell_angle_beta                  91.331443
_cell_angle_gamma                 90.008892
_cell_volume                      2272.7251745

loop_
_atom_site_label
_atom_site_type_symbol
_atom_type_description
_atom_site_fract_x
_atom_site_fract_y
_atom_site_fract_z
_atom_type_partial_charge
C1    C     C_R   0.330098 0.499987 0.499861 0.782524
C2    C     C_R   0.669811 0.500003 0.500567 0.753531
C3    C     C_R   0.233453 0.500035 0.499849 -0.022495
C4    C     C_R   0.766268 0.500101 0.500704 -0.021019
C5    C     C_R   0.186332 0.417318 0.466890 -0.189218
C6    C     C_R   0.813414 0.420380 0.544558 -0.193275
C7    C     C_R   0.094393 0.417531 0.466333 -0.175502
C8    C     C_R   0.905341 0.420624 0.545087 -0.177084
C9    C     C_R   0.048364 0.500155 0.500038 0.105278
C10   C     C_R   0.951208 0.500169 0.500336 0.105468
C11   C     C_R   0.539821 0.106971 0.598607 0.075841
C12   C     C_R   0.459847 0.107438 0.400596 0.074947
C13   C     C_R   0.543410 0.208813 0.593856 0.322291
C14   C     C_R   0.456111 0.209232 0.406249 0.323396
C15   C     C_R   0.499999 0.054475 0.499273 -0.012972
C16   C     C_R   0.428219 0.891706 0.450624 -0.288782
C17   C     C_R   0.572069 0.891887 0.547364 -0.286916
C18   C     C_R   0.432559 0.791543 0.442214 0.134207
C19   C     C_R   0.567685 0.791788 0.556816 0.134212
C20   C     C_R   0.500110 0.945038 0.498934 0.174341
C21   C     C_R   0.500486 0.500248 0.262835 0.796011
C22   C     C_R   0.500591 0.500243 0.737148 0.789246
C23   C     C_R   0.668064 0.503963 0.135630 -0.175600
C24   C     C_R   0.668046 0.506678 0.875211 -0.159998
C25   C     C_R   0.747880 0.506235 0.072973 -0.141748
C26   C     C_R   0.747865 0.507634 0.943089 -0.125623
C27   C     C_R   0.586540 0.504400 0.937008 0.071719
C28   C     C_R   0.586554 0.503211 0.068588 0.088816
C29   C     C_R   0.504687 0.501510 0.129152 -0.090280
C30   C     C_R   0.504686 0.501581 0.871013 -0.088040
C31   C     C_R   0.424760 0.503419 0.061705 -0.211889
C32   C     C_R   0.424739 0.502112 0.933022 -0.206278
C33   C     C_R   0.095639 0.582742 0.533559 -0.170595
C34   C     C_R   0.903770 0.579724 0.455890 -0.174095
C35   C     C_R   0.187551 0.582828 0.532860 -0.167993
C36   C     C_R   0.811872 0.579910 0.456795 -0.175346
Cu1   Cu    Cu3+1 0.500000 0.596430 0.500000 0.964210
Cu2   Cu    Cu3+1 0.500000 0.403570 0.500000 0.966269
H1    H     H_    0.362220 0.504020 0.109173 0.147288
H2    H     H_    0.362220 0.501599 0.881422 0.136956
H3    H     H_    0.368904 0.927061 0.416434 0.166244
H4    H     H_    0.631442 0.927438 0.581027 0.166439
H5    H     H_    0.670704 0.502974 0.236403 0.120942
H6    H     H_    0.670651 0.507065 0.774505 0.138546
H7    H     H_    0.809933 0.506901 0.125420 0.141668
H8    H     H_    0.809901 0.509218 0.894713 0.143135
H9    H     H_    0.061605 0.646868 0.561847 0.128461
H10   H     H_    0.937663 0.641269 0.419012 0.129351
H11   H     H_    0.222624 0.647285 0.559642 0.149848
H12   H     H_    0.776502 0.641815 0.421436 0.149979
H13   H     H_    0.220404 0.352815 0.440160 0.141937
H14   H     H_    0.779306 0.358464 0.579998 0.141515
H15   H     H_    0.059310 0.353439 0.438152 0.124975
H16   H     H_    0.940538 0.359097 0.581817 0.125402
N1    N     N_R   0.500000 0.258690 0.500000 -0.222758
N2    N     N_R   0.500000 0.741330 0.500000 -0.212448
O1    O     O_R   0.371460 0.581430 0.500010 -0.586295
O2    O     O_R   0.628540 0.581430 0.499990 -0.587015
O3    O     O_R   0.371470 0.418560 0.500010 -0.572410
O4    O     O_R   0.628530 0.418560 0.499990 -0.572651
O5    O     O_R   0.500000 0.581450 0.319650 -0.573062
O6    O     O_R   0.500000 0.581450 0.680350 -0.574541
O7    O     O_R   0.500010 0.418580 0.319650 -0.548885
O8    O     O_R   0.499990 0.418580 0.680350 -0.548806
C37   C     C_1   0.366214 0.744569 0.366016 0.293184
N3    N     N_1   0.312800 0.707803 0.303642 -0.309152
C38   C     C_1   0.634690 0.745210 0.632279 0.294857
N4    N     N_1   0.688785 0.708922 0.693960 -0.307047
N5    N     N_2   0.576284 0.057161 0.703596 -0.433695
H17   H     H_    0.634867 0.082887 0.741079 0.250050
C39   C     C_3   0.512990 0.023362 0.792941 -0.676224
H18   H     H_    0.548224 0.983909 0.868886 0.221944
H19   H     H_    0.464527 0.974187 0.747663 0.241855
H20   H     H_    0.476504 0.083884 0.834078 0.218458
N6    N     N_2   0.423019 0.058127 0.295529 -0.434135
H21   H     H_    0.363940 0.083547 0.259330 0.249584
C40   C     C_3   0.485936 0.026084 0.204688 -0.675199
H22   H     H_    0.520891 0.087592 0.163261 0.219012
H23   H     H_    0.450627 0.986306 0.129129 0.221321
H24   H     H_    0.535629 0.977663 0.248744 0.242086
N7    N     N_2   0.596267 0.259575 0.683305 -0.371637
H25   H     H_    0.663075 0.246419 0.676692 0.212748
C41   C     C_3   0.566527 0.259862 0.811114 -0.638321
H26   H     H_    0.493116 0.261659 0.814678 0.232497
H27   H     H_    0.593463 0.323396 0.859272 0.227403
H28   H     H_    0.592673 0.198128 0.864533 0.199236
N8    N     N_2   0.401339 0.260248 0.319331 -0.370695
H29   H     H_    0.334812 0.246426 0.328250 0.212027
C42   C     C_3   0.428514 0.262367 0.190387 -0.638568
H30   H     H_    0.501775 0.264439 0.183939 0.234578
H31   H     H_    0.400377 0.326616 0.144947 0.225048
H32   H     H_    0.401597 0.201128 0.136711 0.197414

loop_
_geom_bond_atom_site_label_1
_geom_bond_atom_site_label_2
_ccdc_geom_bond_type
C19   N2    A    
N8    H29   S    
C4    C36   A    
C24   C27   A    
Cu1   O6    S    
C40   H22   S    
C18   C37   S    
C28   C29   A    
C24   C26   A    
C14   N8    S    
C1    O3    A    
C2    O4    A    
C13   N7    S    
C17   C20   A    
C23   H5    S    
N5    C39   S    
C17   H4    S    
C17   C19   A    
Cu1   N2    S    
C11   C15   A    
Cu2   N1    S    
C41   H26   S    
C35   H11   S    
C19   C38   S    
C42   H31   S    
C9    C10   S    
C21   O5    A    
Cu1   O2    S    
C18   N2    A    
C23   C25   A    
C14   N1    A    
C27   C30   A    
C9    C33   A    
N7    C41   S    
N7    H25   S    
Cu2   O8    S    
C40   H23   S    
C15   C20   S    
C38   N4    T    
C4    C6    A    
C8    H16   S    
C5    C7    A    
C6    C8    A    
C25   C26   A    
C21   C29   S    
C1    C3    S    
C2    C4    S    
N6    H21   S    
Cu1   Cu2   S    
C1    O1    A    
C22   O6    A    
C31   C32   A    
C12   C15   A    
C3    C35   A    
C16   C20   A    
C11   N5    S    
C10   C34   A    
C23   C28   A    
C42   H32   S    
N6    C40   S    
Cu2   O4    S    
C16   C18   A    
C41   H27   S    
C12   C14   A    
N8    C42   S    
C24   H6    S    
C34   H10   S    
C7    H15   S    
C25   H7    S    
C36   H12   S    
C39   H19   S    
Cu2   O7    S    
C40   H24   S    
C7    C9    A    
C22   C30   S    
C3    C5    A    
C39   H20   S    
Cu1   O5    S    
C2    O2    A    
C39   H18   S    
C29   C31   A    
C30   C32   A    
C11   C13   A    
C33   H9    S    
C33   C35   A    
C31   H1    S    
C34   C36   A    
C32   H2    S    
N5    H17   S    
C21   O7    A    
C26   H8    S    
C22   O8    A    
Cu2   O3    S    
C41   H28   S    
C8    C10   A    
C37   N3    T    
C12   N6    S    
C27   C28   A    
C5    H13   S    
C6    H14   S    
C42   H30   S    
C16   H3    S    
Cu1   O1    S    
C13   N1    A    
