data_mof_unit_26609.cif
_audit_creation_date              2012-12-11T21:01:54-0500
_audit_creation_method            fapswitch 2.2
_symmetry_space_group_name_H-M    P1
_symmetry_Int_Tables_number       1
_space_group_crystal_system       triclinic
_cell_length_a                    8.220327
_cell_length_b                    18.731429
_cell_length_c                    22.869247
_cell_angle_alpha                 99.654046
_cell_angle_beta                  89.687526
_cell_angle_gamma                 91.707805
_cell_volume                      3469.96066982

loop_
_atom_site_label
_atom_site_type_symbol
_atom_type_description
_atom_site_fract_x
_atom_site_fract_y
_atom_site_fract_z
_atom_type_partial_charge
Ba1   Ba    Ba6+2 0.157800 0.534120 0.474430 1.642619
Ba2   Ba    Ba6+2 0.652390 0.465870 0.525520 1.640215
C1    C     C_3   0.378381 0.700533 0.261686 -0.329128
C2    C     C_R   0.080894 0.905464 0.558362 0.031257
C3    C     C_R   0.231908 0.928931 0.584132 -0.082391
C4    C     C_3   0.894936 0.727765 0.349049 0.380965
C5    C     C_R   0.293288 0.998897 0.582292 -0.086980
C6    C     C_R   0.203730 0.047132 0.555378 0.031529
C7    C     C_R   0.052524 0.024077 0.528942 0.014639
C8    C     C_R   0.262449 0.118162 0.555351 -0.106828
C9    C     C_R   0.170450 0.168046 0.530592 -0.038353
C10   C     C_R   0.020724 0.144324 0.502164 -0.006278
C11   C     C_R   0.962736 0.072079 0.501363 -0.007062
C12   C     C_3   0.396692 0.682367 0.323505 0.331142
C13   C     C_R   0.222281 0.241250 0.533907 -0.008156
C14   C     C_R   0.122970 0.289758 0.511696 -0.299915
C15   C     C_R   0.981329 0.266467 0.479839 0.048110
C16   C     C_3   0.961053 0.805229 0.350434 -0.004434
C17   C     C_R   0.929537 0.192412 0.474086 -0.050860
C18   C     C_R   0.840912 0.929166 0.503351 -0.008323
C19   C     C_R   0.781788 0.857167 0.503126 -0.006778
C20   C     C_R   0.875165 0.808565 0.529787 -0.043012
C21   C     C_R   0.019915 0.835073 0.559822 -0.044591
C22   C     C_R   0.788199 0.165001 0.442234 -0.041507
C23   C     C_3   0.480711 0.687210 0.625165 0.317431
C24   C     C_R   0.726402 0.094804 0.444147 0.033539
C25   C     C_R   0.813512 0.048078 0.473844 0.006127
C26   C     C_R   0.751778 0.977007 0.475376 0.014801
C27   C     C_R   0.576742 0.070939 0.417483 -0.081877
C28   C     C_3   0.821547 0.374225 0.343263 0.280217
C29   C     C_R   0.513802 0.001463 0.420239 -0.094517
C30   C     C_R   0.601038 0.953858 0.448601 0.029909
C31   C     C_R   0.630778 0.833725 0.475370 -0.045169
C32   C     C_R   0.540481 0.883331 0.449674 -0.106899
C33   C     C_R   0.577037 0.760806 0.472878 -0.001348
C34   C     C_3   0.481928 0.768661 0.645820 -0.392881
C35   C     C_R   0.675043 0.712484 0.495932 -0.303665
C36   C     C_R   0.822225 0.734800 0.524390 0.045600
C37   C     C_R   0.644447 0.525799 0.335876 -0.301114
C38   C     C_R   0.400977 0.551682 0.943151 -0.025377
C39   C     C_R   0.348267 0.546853 0.883866 0.592748
C40   C     C_3   0.821592 0.355219 0.275667 -0.284266
C41   C     C_R   0.245149 0.425428 0.883865 0.576276
C42   C     C_R   0.291658 0.429534 0.943609 -0.015659
C43   C     C_R   0.371848 0.492685 0.973128 -0.053802
C44   C     C_R   0.481977 0.614338 0.973233 -0.076083
C45   C     C_3   0.860419 0.267921 0.645034 0.382454
C46   C     C_R   0.531811 0.618495 0.032013 -0.074108
C47   C     C_R   0.501813 0.560186 0.062672 -0.017140
C48   C     C_R   0.422234 0.496992 0.033003 -0.054238
C49   C     C_R   0.260813 0.371326 0.974331 -0.075927
C50   C     C_R   0.309956 0.375640 0.033140 -0.074581
C51   C     C_R   0.391735 0.438245 0.063086 -0.024289
C52   C     C_3   0.983438 0.618110 0.653795 0.296034
C53   C     C_R   0.442285 0.443348 0.122527 0.591318
C54   C     C_R   0.547352 0.564437 0.122596 0.576306
C55   C     C_2   0.090901 0.445152 0.768884 -0.086585
C56   C     C_3   0.831665 0.194503 0.663981 -0.365394
C57   C     C_3   0.074515 0.420899 0.702652 -0.050633
C58   C     C_1   0.306358 0.502956 0.692280 0.005632
C59   C     C_2   0.350739 0.503257 0.748051 -0.094953
C60   C     C_2   0.232736 0.477404 0.791117 0.195144
C61   C     C_R   0.713425 0.543706 0.236183 -0.093867
C62   C     C_R   0.752087 0.551892 0.296511 -0.035455
C63   C     C_R   0.500318 0.489420 0.315439 0.030707
C64   C     C_3   0.998432 0.634612 0.720970 -0.362070
C65   C     C_R   0.455082 0.485967 0.255945 -0.100925
C66   C     C_R   0.561770 0.512357 0.215005 0.187604
C67   C     C_3   0.392213 0.303759 0.676662 0.344695
C68   C     C_2   0.180247 0.464617 0.666884 -0.287563
C69   C     C_3   0.317538 0.313244 0.391847 0.320347
C70   C     C_3   0.307284 0.231638 0.371707 -0.387186
C71   C     C_1   0.987940 0.344401 0.252865 0.327740
C72   C     C_3   0.796090 0.860943 0.281839 -0.206729
C73   C     C_3   0.410619 0.278115 0.735798 -0.357459
C74   C     C_R   0.991477 0.952810 0.530061 0.006206
H1    H     H_    0.309854 0.637255 0.327780 0.113820
H2    H     H_    0.400116 0.325469 0.430699 0.063662
H3    H     H_    0.255979 0.722240 0.256417 0.155239
H4    H     H_    0.216277 0.217829 0.335544 0.132813
H5    H     H_    0.270596 0.203888 0.409066 0.054858
H6    H     H_    0.427961 0.212083 0.355123 0.118153
H7    H     H_    0.522317 0.664728 0.328869 -0.055234
H8    H     H_    0.391387 0.650751 0.228373 0.117864
H9    H     H_    0.608051 0.670664 0.615743 0.016924
H10   H     H_    0.407244 0.674796 0.583868 0.053656
H11   H     H_    0.558290 0.783304 0.686206 0.133662
H12   H     H_    0.746682 0.305007 0.261409 0.114522
H13   H     H_    0.532673 0.796799 0.610426 0.053175
H14   H     H_    0.355895 0.786632 0.656079 0.119275
H15   H     H_    0.472838 0.741474 0.253751 0.118068
H16   H     H_    0.894668 0.842860 0.384676 0.026614
H17   H     H_    0.811284 0.265522 0.599557 0.080829
H18   H     H_    0.994150 0.277955 0.644052 -0.081693
H19   H     H_    0.700107 0.179399 0.662536 0.150070
H20   H     H_    0.897631 0.152487 0.633591 0.069789
H21   H     H_    0.877372 0.196367 0.709839 0.119794
H22   H     H_    0.260405 0.305250 0.667186 -0.056732
H23   H     H_    0.768077 0.399386 0.256176 0.039343
H24   H     H_    0.449162 0.358901 0.680157 0.076188
H25   H     H_    0.357239 0.318037 0.771366 0.130448
H26   H     H_    0.541075 0.272778 0.745992 0.152918
H27   H     H_    0.893695 0.718021 0.395971 -0.022156
H28   H     H_    0.346270 0.224872 0.734464 0.114124
H29   H     H_    0.303286 0.892993 0.605428 0.063575
H30   H     H_    0.410349 0.015508 0.602448 0.071695
H31   H     H_    0.162296 0.346020 0.515883 0.068403
H32   H     H_    0.378945 0.134085 0.575837 0.109384
H33   H     H_    0.089001 0.801265 0.583764 0.094916
H34   H     H_    0.100020 0.598301 0.634302 0.011876
H35   H     H_    0.721341 0.198218 0.417054 0.099580
H36   H     H_    0.507303 0.106268 0.394947 0.064401
H37   H     H_    0.397456 0.984689 0.399581 0.070208
H38   H     H_    0.423695 0.867527 0.429340 0.108661
H39   H     H_    0.768174 0.722843 0.331565 -0.031085
H40   H     H_    0.634622 0.656438 0.492529 0.075669
H41   H     H_    0.283174 0.329602 0.055067 0.127768
H42   H     H_    0.198109 0.322120 0.953026 0.124417
H43   H     H_    0.593417 0.667903 0.053413 0.123457
H44   H     H_    0.802235 0.561040 0.205974 0.122745
H45   H     H_    0.888059 0.575213 0.642139 0.089621
H46   H     H_    0.507052 0.660553 0.951408 0.124033
H47   H     H_    0.473008 0.521152 0.762341 0.127186
H48   H     H_    0.998005 0.428009 0.797842 0.122351
H49   H     H_    0.337754 0.461884 0.241714 0.148094
H50   H     H_    0.677789 0.529889 0.382040 0.083274
H51   H     H_    0.091445 0.808373 0.364267 0.123021
H52   H     H_    0.171467 0.451699 0.618869 0.078651
H53   H     H_    0.696181 0.386313 0.358396 0.012491
H54   H     H_    0.902261 0.422719 0.357219 0.057595
H55   H     H_    0.048761 0.855016 0.280423 0.199212
H56   H     H_    0.100257 0.674348 0.733886 0.145023
H57   H     H_    0.789832 0.867509 0.234264 0.119675
H58   H     H_    0.791257 0.915254 0.310385 0.097109
H59   H     H_    0.688993 0.827172 0.291897 0.113782
H60   H     H_    0.021846 0.584402 0.738721 0.069225
H61   H     H_    0.883449 0.657402 0.740687 0.130679
H62   H     H_    0.194767 0.332783 0.404253 0.004995
N1    N     N_R   0.273598 0.483696 0.854102 -0.424018
N2    N     N_R   0.517483 0.506452 0.152462 -0.425115
N3    N     N_1   0.119074 0.335859 0.234910 -0.241783
N4    N     N_2   0.946966 0.826740 0.292313 -0.401101
O1    O     O_2   0.110690 0.676100 0.539200 -0.464111
O2    O     O_2   0.743512 0.462313 0.706683 -0.496332
O3    O     O_3   0.781718 0.321708 0.684870 -0.585672
O4    O     O_3   0.863220 0.586720 0.534720 -0.487814
O5    O     O_3   0.450900 0.461390 0.429220 -0.491577
O6    O     O_2   0.599830 0.538970 0.641850 -0.461215
O7    O     O_3   0.413034 0.652466 0.669887 -0.627368
O8    O     O_2   0.558449 0.242665 0.522603 -0.492452
O9    O     O_3   0.470298 0.255615 0.632664 -0.600856
O10   O     O_2   0.367465 0.599330 0.858930 -0.594423
O11   O     O_2   0.181251 0.369245 0.858156 -0.616248
O12   O     O_3   0.376732 0.345370 0.344807 -0.614789
O13   O     O_2   0.420436 0.391010 0.147439 -0.587730
O14   O     O_2   0.610848 0.620590 0.148455 -0.610772
O15   O     O_3   0.368310 0.629070 0.432760 -0.486127
O16   O     O_2   0.235276 0.756061 0.470671 -0.488087
O17   O     O_3   0.942889 0.681609 0.633297 -0.641371
O18   O     O_3   0.362606 0.743774 0.365400 -0.620989
O19   O     O_2   0.210480 0.460990 0.358130 -0.463715
O20   O     O_3   0.959520 0.592090 0.401630 -0.476362
O21   O     O_2   0.088736 0.544668 0.295939 -0.504844
O22   O     O_3   0.994886 0.678940 0.312358 -0.589966
O23   O     O_2   0.699610 0.323860 0.460780 -0.468329
O24   O     O_3   0.947090 0.413280 0.465240 -0.488351
O25   O     O_3   0.442000 0.370930 0.567190 -0.478923
O26   O     O_3   0.873803 0.314566 0.366740 -0.645404
O27   O     O_3   0.359410 0.538600 0.570730 -0.478381
O28   O     O_3   0.850780 0.407910 0.598320 -0.480126
P1    P     P_3+3 0.935930 0.665430 0.555670 0.979067
P2    P     P_3+3 0.382700 0.439650 0.365620 1.003636
P3    P     P_3+3 0.948551 0.591035 0.325315 0.945388
P4    P     P_3+3 0.874370 0.334570 0.444280 0.975085
P5    P     P_3+3 0.861596 0.406118 0.674207 0.953892
P6    P     P_3+3 0.385285 0.722896 0.436660 0.933498
P7    P     P_3+3 0.415430 0.558771 0.645658 0.960886
P8    P     P_3+3 0.422351 0.277245 0.563545 0.936264

loop_
_geom_bond_atom_site_label_1
_geom_bond_atom_site_label_2
_ccdc_geom_bond_type
C34   H13   S    
C45   O3    S    
O6    P7    D    
C37   C63   A    
C27   H36   S    
C8    H32   S    
C54   O14   D    
C1    H3    S    
C36   P1    S    
C35   H40   S    
C71   N3    T    
C50   C51   A    
C53   O13   D    
C37   C62   A    
C56   H21   S    
C52   H34   S    
C24   C25   A    
O17   P1    S    
C33   P6    S    
C43   C48   A    
C23   O7    S    
C33   C35   A    
C22   C24   A    
C57   P5    S    
C65   H49   S    
C54   N2    Am   
C55   C57   S    
C19   C31   A    
Ba2   O6    S    
C13   C14   A    
C20   C36   A    
C72   H57   S    
C49   H42   S    
C18   C74   A    
C1    H15   S    
Ba1   Ba2   S    
C12   H1    S    
Ba1   O5    S    
C56   H20   S    
C7    C11   A    
C14   H31   S    
C15   C17   A    
C52   O17   S    
O19   P2    D    
C9    C13   A    
O3    P5    S    
C14   C15   A    
C63   C65   A    
C73   H26   S    
C41   N1    Am   
C34   H14   S    
C7    C74   A    
C60   N1    S    
C46   H43   S    
Ba2   O24   S    
C70   H5    S    
O8    P8    D    
C50   H41   S    
C72   N4    S    
Ba1   O19   S    
C37   H50   S    
O4    P1    S    
O18   P6    S    
Ba1   O4    S    
C22   H35   S    
C12   H7    S    
C21   H33   S    
C26   C30   A    
O27   P7    S    
C70   H4    S    
C31   C32   A    
C69   H62   S    
C64   H56   S    
O28   P5    S    
C51   C53   A    
C34   H11   S    
C38   C43   A    
C4    C16   S    
C44   C46   A    
O24   P4    S    
C48   C51   A    
O2    P5    D    
C63   P2    S    
C49   C50   A    
C67   O9    S    
C16   N4    S    
C39   O10   D    
C2    C21   A    
C6    C7    A    
O9    P8    S    
C3    H29   S    
C57   C68   S    
C55   C60   D    
C58   P7    S    
C28   H54   S    
C69   O12   S    
Ba1   P1    S    
C53   N2    Am   
C65   C66   A    
C12   O18   S    
C58   C59   D    
C30   C32   A    
O26   P4    S    
C56   H19   S    
C35   C36   A    
Ba1   O1    S    
C16   H51   S    
C29   C30   A    
C58   C68   D    
O20   P3    S    
C72   H59   S    
C23   H9    S    
O7    P7    S    
C45   H17   S    
C5    H30   S    
O12   P2    S    
O22   P3    S    
C4    H27   S    
C10   C11   A    
H55   N4    S    
Ba2   O23   S    
C1    C12   S    
Ba2   O28   S    
C64   H60   S    
C42   C49   A    
O16   P6    D    
C46   C47   A    
C52   H45   S    
C4    O22   S    
Ba1   O20   S    
C41   C42   A    
C73   H28   S    
C2    C74   A    
C66   N2    S    
Ba2   O4    S    
C38   C44   A    
O23   P4    D    
O21   P3    D    
C25   C26   A    
C15   P4    S    
C3    C5    A    
C68   H52   S    
C61   C66   A    
C38   C39   A    
C40   C71   S    
C23   C34   S    
C44   H46   S    
C42   C43   A    
C2    C3    A    
O15   P6    S    
C9    C10   A    
C52   C64   S    
C32   H38   S    
C28   H53   S    
C18   C26   A    
Ba1   P2    S    
C59   H47   S    
C16   H16   S    
Ba1   O15   S    
C17   C22   A    
Ba2   O5    S    
O1    P1    D    
C69   C70   S    
C27   C29   A    
C47   C54   A    
C41   O11   D    
C40   H23   S    
C67   H22   S    
C45   C56   S    
C61   H44   S    
C64   H61   S    
Ba1   O24   S    
C72   H58   S    
C10   C17   A    
Ba1   O27   S    
C23   H10   S    
C31   C33   A    
C45   H18   S    
C67   C73   S    
C28   C40   S    
C59   C60   S    
C70   H6    S    
C4    H39   S    
C39   N1    Am   
C5    C6    A    
C8    C9    A    
Ba2   O27   S    
C28   O26   S    
C61   C62   A    
C67   H24   S    
O25   P8    S    
C40   H12   S    
C18   C19   A    
O5    P2    S    
C24   C27   A    
C6    C8    A    
C47   C48   A    
C13   P8    S    
C1    H8    S    
C73   H25   S    
C20   C21   A    
C11   C25   A    
C62   P3    S    
C19   C20   A    
Ba2   O25   S    
C29   H37   S    
C69   H2    S    
Ba2   P4    S    
C55   H48   S    
