data_mof_unit_19184.cif
_audit_creation_date              2012-12-10T18:19:08-0500
_audit_creation_method            fapswitch 2.2
_symmetry_space_group_name_H-M    P1
_symmetry_Int_Tables_number       1
_space_group_crystal_system       triclinic
_cell_length_a                    14.893918
_cell_length_b                    14.144899
_cell_length_c                    11.517289
_cell_angle_alpha                 89.999073
_cell_angle_beta                  90.096229
_cell_angle_gamma                 89.919618
_cell_volume                      2426.37562153

loop_
_atom_site_label
_atom_site_type_symbol
_atom_type_description
_atom_site_fract_x
_atom_site_fract_y
_atom_site_fract_z
_atom_type_partial_charge
C1    C     C_R   0.327341 0.500024 0.498151 0.902541
C2    C     C_R   0.672623 0.499746 0.502220 0.913597
C3    C     C_R   0.904395 0.490779 0.397203 0.121648
C4    C     C_R   0.095465 0.501553 0.603613 0.125694
C5    C     C_R   0.958283 0.503771 0.713926 -0.177287
C6    C     C_R   0.041608 0.486016 0.287032 -0.172511
C7    C     C_R   0.051201 0.505936 0.710155 -0.197171
C8    C     C_R   0.948648 0.486622 0.290638 -0.198676
C9    C     C_R   0.576594 0.799714 0.471837 0.515723
C10   C     C_R   0.428717 0.201511 0.546319 0.533060
C11   C     C_R   0.423130 0.800492 0.525704 0.533548
C12   C     C_R   0.571528 0.201251 0.454568 0.530977
C13   C     C_R   0.425950 0.900278 0.543556 -0.147857
C14   C     C_R   0.577559 0.101117 0.466656 -0.148166
C15   C     C_R   0.574450 0.900257 0.457825 -0.156969
C16   C     C_R   0.423031 0.101235 0.535648 -0.145962
C17   C     C_R   0.500460 0.950520 0.501615 -0.008425
C18   C     C_R   0.500394 0.051015 0.501550 -0.006335
C19   C     C_R   0.352982 0.951873 0.591858 -0.115518
C20   C     C_R   0.656226 0.049110 0.438618 -0.120326
C21   C     C_R   0.646893 0.952046 0.408851 -0.103242
C22   C     C_R   0.344227 0.049451 0.563412 -0.124312
C23   C     C_R   0.500860 0.499941 0.282046 0.907380
C24   C     C_R   0.499199 0.499935 0.717959 0.906995
C25   C     C_1   0.501346 0.499611 0.161578 -0.176828
C26   C     C_1   0.498997 0.499583 0.838434 -0.178059
C27   C     C_1   0.500844 0.499258 0.059332 -0.000768
C28   C     C_1   0.499664 0.499242 0.940678 0.000434
C29   C     C_R   0.811868 0.493409 0.399895 -0.255504
C30   C     C_R   0.187967 0.504791 0.600574 -0.225420
C31   C     C_R   0.767827 0.498397 0.505730 -0.115974
C32   C     C_R   0.232056 0.499863 0.494818 -0.119211
C33   C     C_R   0.813810 0.497618 0.612251 -0.076040
C34   C     C_R   0.186098 0.491056 0.388858 -0.086491
C35   C     C_R   0.907989 0.497510 0.610697 0.039514
C36   C     C_R   0.091930 0.489764 0.390430 0.038542
C37   C     C_R   0.953051 0.493951 0.502304 0.058822
C38   C     C_R   0.046845 0.494677 0.498743 0.057160
H1    H     H_    0.773552 0.492028 0.319570 0.141794
H2    H     H_    0.226255 0.510359 0.680643 0.138138
H3    H     H_    0.926600 0.508875 0.798129 0.174429
H4    H     H_    0.073252 0.484059 0.202607 0.175250
H5    H     H_    0.088534 0.511535 0.790749 0.154607
H6    H     H_    0.911267 0.484479 0.209826 0.156868
N1    N     N_R   0.500000 0.750030 0.500000 -0.200049
N2    N     N_R   0.500000 0.249970 0.500000 -0.204810
O1    O     O_R   0.367850 0.580280 0.500030 -0.583258
O2    O     O_R   0.632150 0.419720 0.499970 -0.565215
O3    O     O_R   0.632150 0.580280 0.499970 -0.566171
O4    O     O_R   0.367850 0.419720 0.500030 -0.561095
O5    O     O_R   0.500010 0.580270 0.334450 -0.589005
O6    O     O_R   0.499990 0.419730 0.665550 -0.641313
O7    O     O_R   0.499990 0.580270 0.665550 -0.582476
O8    O     O_R   0.500010 0.419730 0.334450 -0.639698
Zn1   Zn    Zn3+2 0.500000 0.607200 0.500000 1.038198
Zn2   Zn    Zn3+2 0.500000 0.392800 0.500000 1.019600
C39   C     C_2   0.763298 0.496332 0.723273 0.857321
O9    O     O_2   0.771809 0.429601 0.789906 -0.610604
O10   O     O_R   0.706932 0.571738 0.751703 -0.840956
H7    H     H_    0.679722 0.564882 0.831822 0.342501
C40   C     C_2   0.236768 0.484554 0.278292 0.862878
O11   O     O_2   0.231751 0.413065 0.218958 -0.606928
O12   O     O_R   0.289273 0.560700 0.242003 -0.848801
H8    H     H_    0.316822 0.549880 0.162738 0.341644
O13   O     O_3   0.656629 0.752014 0.456757 -0.576981
C41   C     C_3   0.714183 0.769738 0.552536 0.079026
H9    H     H_    0.697080 0.720314 0.623929 0.213581
H10   H     H_    0.708982 0.843070 0.587524 0.114938
C42   C     C_3   0.811517 0.754122 0.515036 -0.316631
H11   H     H_    0.818203 0.684414 0.472103 0.240821
H12   H     H_    0.830672 0.809306 0.451077 0.246825
C43   C     C_3   0.875773 0.758342 0.618212 -0.882635
H13   H     H_    0.872940 0.829206 0.659598 0.279961
H14   H     H_    0.945428 0.745042 0.588000 0.271451
H15   H     H_    0.858056 0.703616 0.683372 0.269770
O14   O     O_3   0.362962 0.250682 0.605775 -0.581189
C44   C     C_3   0.386827 0.259170 0.724519 0.098874
H16   H     H_    0.365660 0.330779 0.753233 0.177537
H17   H     H_    0.460553 0.253476 0.741439 0.133159
C45   C     C_3   0.336841 0.186546 0.798732 -0.387938
H18   H     H_    0.264313 0.187055 0.775832 0.266533
H19   H     H_    0.364434 0.114966 0.781999 0.227291
C46   C     C_3   0.347239 0.207984 0.927971 -0.869779
H20   H     H_    0.419316 0.207415 0.952887 0.250948
H21   H     H_    0.311633 0.153340 0.979491 0.284580
H22   H     H_    0.317927 0.278224 0.948790 0.273688
O15   O     O_3   0.340550 0.756190 0.524934 -0.587226
C47   C     C_3   0.306181 0.753996 0.409816 0.137042
H23   H     H_    0.258104 0.694268 0.405164 0.210333
H24   H     H_    0.359077 0.739564 0.343517 0.154715
C48   C     C_3   0.253979 0.844195 0.379169 -0.442355
H25   H     H_    0.206772 0.861733 0.450649 0.267989
H26   H     H_    0.301328 0.903900 0.367138 0.222224
C49   C     C_3   0.200706 0.831842 0.266886 -0.839822
H27   H     H_    0.246560 0.814331 0.193978 0.266991
H28   H     H_    0.164893 0.898633 0.246019 0.279726
H29   H     H_    0.150347 0.774517 0.276647 0.265426
O16   O     O_3   0.637051 0.249992 0.394413 -0.579978
C50   C     C_3   0.612717 0.258111 0.275797 0.101768
H30   H     H_    0.634091 0.329408 0.246403 0.176792
H31   H     H_    0.538894 0.252950 0.259458 0.134010
C51   C     C_3   0.662031 0.184675 0.201827 -0.389215
H32   H     H_    0.734657 0.184702 0.224211 0.265306
H33   H     H_    0.634174 0.113418 0.219371 0.224778
C52   C     C_3   0.651165 0.205495 0.072498 -0.872245
H34   H     H_    0.578979 0.205349 0.048110 0.251401
H35   H     H_    0.686311 0.150298 0.021176 0.283851
H36   H     H_    0.680686 0.275393 0.050897 0.274120
C53   C     C_2   0.299297 0.910564 0.689832 0.981612
O17   O     O_2   0.242024 0.957710 0.739073 -0.600590
O18   O     O_R   0.320650 0.821395 0.734715 -0.763040
H37   H     H_    0.281341 0.802841 0.802785 0.342268
C54   C     C_2   0.747289 0.088262 0.467231 0.982589
O19   O     O_2   0.815275 0.043147 0.445600 -0.589445
O20   O     O_R   0.755278 0.172325 0.530448 -0.748270
H38   H     H_    0.820004 0.190049 0.546921 0.355890
C55   C     C_2   0.697518 0.912620 0.307131 0.956939
O21   O     O_2   0.760476 0.955786 0.264755 -0.602418
O22   O     O_R   0.667408 0.830451 0.251830 -0.765125
H39   H     H_    0.705681 0.812291 0.182583 0.343769
C56   C     C_2   0.253420 0.089808 0.535236 0.976128
O23   O     O_2   0.184855 0.047711 0.561689 -0.591013
O24   O     O_R   0.246188 0.171575 0.467409 -0.747125
H40   H     H_    0.181603 0.190523 0.451772 0.356936

loop_
_geom_bond_atom_site_label_1
_geom_bond_atom_site_label_2
_ccdc_geom_bond_type
C24   O6    A    
C41   H10   S    
O15   C47   S    
C9    N1    A    
C14   C18   A    
O18   H37   S    
O24   H40   S    
C44   H16   S    
C52   H35   S    
C22   C56   S    
C35   C37   A    
C24   C26   S    
C42   H11   S    
C55   O22   S    
C20   C54   S    
C39   O10   S    
C41   C42   S    
O20   H38   S    
C51   C52   S    
C42   H12   S    
C3    C29   A    
C21   C55   S    
C10   O14   S    
C46   H20   S    
C11   O15   S    
C50   C51   S    
C10   N2    A    
C33   C39   S    
C31   C33   A    
C7    H5    S    
C1    O4    A    
C12   O16   S    
C43   H13   S    
C19   C53   S    
C41   H9    S    
O10   H7    S    
C49   H27   S    
C4    C7    A    
C34   C36   A    
O7    Zn1   S    
C52   H36   S    
O8    Zn2   S    
C13   C19   A    
C51   H32   S    
C14   C20   A    
C19   C22   A    
O14   C44   S    
C43   H14   S    
C3    C8    A    
C48   H25   S    
C5    C7    A    
C1    O1    A    
C6    C8    A    
C49   H29   S    
C2    O2    A    
C24   O7    A    
O3    Zn1   S    
C1    C32   S    
O4    Zn2   S    
C2    C31   S    
C32   C34   A    
C42   C43   S    
C51   H33   S    
C37   C38   A    
C2    O3    A    
C48   H26   S    
C23   O5    A    
C50   H30   S    
C47   C48   S    
C29   H1    S    
C40   O12   S    
C17   C18   A    
C44   H17   S    
C30   H2    S    
C20   C21   A    
C49   H28   S    
N1    Zn1   S    
C56   O23   D    
C12   N2    A    
C50   H31   S    
C12   C14   A    
O16   C50   S    
C11   N1    A    
C23   O8    A    
O1    Zn1   S    
C54   O19   D    
C44   C45   S    
O2    Zn2   S    
C5    H3    S    
C16   C22   A    
C46   H21   S    
C8    H6    S    
C4    C38   A    
C45   H18   S    
O22   H39   S    
C15   C17   A    
C25   C27   T    
C52   H34   S    
C26   C28   T    
C13   C17   A    
C53   O18   S    
C47   H24   S    
C9    C15   A    
C29   C31   A    
C10   C16   A    
C53   O17   D    
C48   C49   S    
C30   C32   A    
C11   C13   A    
C43   H15   S    
C39   O9    D    
C23   C25   S    
C5    C35   A    
C36   C38   A    
C45   C46   S    
C33   C35   A    
C45   H19   S    
C6    C36   A    
O5    Zn1   S    
C34   C40   S    
C40   O11   D    
C9    O13   S    
C56   O24   S    
O12   H8    S    
C15   C21   A    
C46   H22   S    
C47   H23   S    
C3    C37   A    
C16   C18   A    
O13   C41   S    
C6    H4    S    
N2    Zn2   S    
C27   C28   S    
C55   O21   D    
C4    C30   A    
O6    Zn2   S    
C54   O20   S    
