data_mof_unit_27616.cif
_audit_creation_date              2013-03-05T16:46:35-0500
_audit_creation_method            fapswitch 2.2
_symmetry_space_group_name_H-M    P1
_symmetry_Int_Tables_number       1
_space_group_crystal_system       triclinic
_cell_length_a                    12.725671
_cell_length_b                    8.917905
_cell_length_c                    8.197082
_cell_angle_alpha                 89.997974
_cell_angle_beta                  96.795134
_cell_angle_gamma                 89.985626
_cell_volume                      923.722148999

loop_
_atom_site_label
_atom_site_type_symbol
_atom_site_description
_atom_site_fract_x
_atom_site_fract_y
_atom_site_fract_z
_atom_type_partial_charge
O1    O     O_R   0.499990 0.285340 0.636850 -0.615466
O2    O     O_R   0.500010 0.714660 0.363150 -0.615265
O3    O     O_R   0.500010 0.285340 0.363150 -0.601928
O4    O     O_R   0.499990 0.714660 0.636850 -0.601896
N1    N     N_1   0.500020 0.500000 0.073640 -0.007695
N2    N     N_1   0.499980 0.500000 0.926360 -0.007564
C1    C     C_R   0.499967 0.218378 0.499997 0.928592
C2    C     C_R   0.500032 0.781622 0.500003 0.928811
O5    O     O_R   0.346350 0.500000 0.614250 -0.589514
O6    O     O_R   0.653650 0.500000 0.385750 -0.589569
O7    O     O_R   0.346360 0.500000 0.340500 -0.619502
O8    O     O_R   0.653640 0.500000 0.659500 -0.619172
C3    C     C_R   0.297863 0.514701 0.468453 0.912672
C4    C     C_R   0.702122 0.485262 0.531547 0.912350
Zn1   Zn    Zn3+2 0.499990 0.500000 0.682780 1.031211
Zn2   Zn    Zn3+2 0.500010 0.500000 0.317220 1.031156
C5    C     C_R   0.815423 0.459207 0.549128 -0.166157
C6    C     C_R   0.184532 0.540590 0.450956 -0.166341
C7    C     C_R   0.014476 0.573931 0.290436 0.237897
C8    C     C_R   0.985395 0.426426 0.710047 0.238125
C9    C     C_R   0.125415 0.588809 0.304334 0.085157
C10   C     C_R   0.874476 0.411370 0.695935 0.084420
C11   C     C_R   0.135181 0.533120 0.592372 0.143755
C12   C     C_R   0.864857 0.466703 0.407847 0.143758
C13   C     C_R   0.030281 0.491499 0.577622 -0.045140
C14   C     C_R   0.969698 0.508544 0.422754 -0.045047
C15   C     C_1   0.499998 0.065306 0.500003 -0.151980
C16   C     C_1   0.500002 0.934694 0.499996 -0.152050
I1    I     I_    0.816963 0.295212 0.235868 -0.315695
I2    I     I_    0.183515 0.704303 0.764514 -0.316269
C17   C     C_3   0.819695 0.329163 0.821691 -0.699073
H1    H     H_    0.873926 0.255304 0.900032 0.272118
H2    H     H_    0.782140 0.411238 0.897971 0.277809
H3    H     H_    0.757697 0.253902 0.759955 0.222448
C18   C     C_3   0.180205 0.671249 0.178743 -0.699212
H4    H     H_    0.219650 0.589492 0.104342 0.277584
H5    H     H_    0.125478 0.742549 0.097858 0.272554
H6    H     H_    0.240636 0.748881 0.240842 0.222504
I3    I     I_    0.913126 0.667113 0.087767 -0.299258
I4    I     I_    0.086357 0.334074 0.913581 -0.299132

loop_
_geom_bond_atom_site_label_1
_geom_bond_atom_site_label_2
_geom_bond_distance
_ccdc_geom_bond_type
C17   H2    1.107100 S    
C9    C18   1.502178 S    
C6    C9    1.407550 A    
O2    Zn2   1.951002 S    
O7    Zn2   1.986934 S    
C5    C10   1.407366 A    
O8    Zn1   1.986934 S    
O4    C2    1.270831 A    
O4    Zn1   1.950976 S    
O5    Zn1   1.969353 S    
C17   H3    1.111231 S    
C13   C14   1.413279 A    
O6    Zn2   1.969353 S    
O7    C3    1.285022 A    
C4    C5    1.450622 S    
C7    I3    2.146209 S    
C3    C6    1.450780 S    
O1    Zn1   1.951003 S    
C7    C9    1.409159 A    
C12   C14   1.376907 A    
O3    C1    1.270831 A    
C11   C13   1.377113 A    
O6    C4    1.285131 A    
N1    N2    1.207206 T    
C8    I4    2.145840 S    
C5    C12   1.383401 A    
C10   C17   1.502103 S    
C8    C10   1.408993 A    
C6    C11   1.383799 A    
C11   I2    2.120182 S    
C18   H6    1.112416 S    
C1    C15   1.365082 S    
C2    C16   1.365082 S    
C8    C13   1.410034 A    
C15   C16   1.164785 T    
C7    C14   1.409785 A    
O5    C3    1.285161 A    
C12   I1    2.120129 S    
N1    Zn2   1.996659 S    
C18   H5    1.104272 S    
N2    Zn1   1.996661 S    
O1    C1    1.270825 A    
O2    C2    1.270825 A    
O3    Zn2   1.950977 S    
C17   H1    1.103343 S    
O8    C4    1.284943 A    
C18   H4    1.108057 S    
