data_mof_unit_17339.cif
_audit_creation_date              2012-12-10T18:09:44-0500
_audit_creation_method            fapswitch 2.2
_symmetry_space_group_name_H-M    P1
_symmetry_Int_Tables_number       1
_space_group_crystal_system       triclinic
_cell_length_a                    10.794313
_cell_length_b                    12.581687
_cell_length_c                    13.212365
_cell_angle_alpha                 83.132334
_cell_angle_beta                  88.363948
_cell_angle_gamma                 102.105322
_cell_volume                      1739.23145798

loop_
_atom_site_label
_atom_site_type_symbol
_atom_type_description
_atom_site_fract_x
_atom_site_fract_y
_atom_site_fract_z
_atom_type_partial_charge
C1    C     C_R   0.484562 0.439549 0.691780 0.974803
C2    C     C_R   0.554971 0.466259 0.964320 -0.093774
C3    C     C_R   0.494112 0.482628 0.872031 -0.061447
C4    C     C_R   0.741900 0.501857 0.494076 1.056756
C5    C     C_R   0.562294 0.547532 0.030826 0.052060
C6    C     C_R   0.545763 0.653752 0.993502 0.133601
C7    C     C_R   0.491032 0.669516 0.901019 -0.287575
C8    C     C_R   0.444760 0.578994 0.851850 0.442623
C9    C     C_R   0.560789 0.520280 0.135977 -0.186090
C10   C     C_R   0.563469 0.708194 0.161907 -0.030617
C11   C     C_R   0.488730 0.404860 0.801777 -0.056022
C12   C     C_3   0.121240 0.502221 0.487403 -0.242560
C13   C     C_R   0.309512 0.081334 0.361981 0.246507
C14   C     C_R   0.652603 0.801063 0.626363 0.518096
C15   C     C_R   0.685825 0.909374 0.651321 0.211249
C16   C     C_R   0.523843 0.560589 0.309386 0.993517
C17   C     C_R   0.624657 0.988450 0.604900 -0.349497
C18   C     C_R   0.534345 0.962851 0.531767 0.012956
C19   C     C_R   0.507707 0.854188 0.507594 0.127136
C20   C     C_R   0.470116 0.040697 0.480923 0.006655
C21   C     C_R   0.377392 0.006648 0.410193 0.006283
C22   C     C_R   0.357485 0.899741 0.386071 -0.193324
C23   C     C_3   0.094200 0.579670 0.390649 0.057798
C24   C     C_R   0.421747 0.826110 0.434125 -0.124254
C25   C     C_R   0.495137 0.151630 0.496244 -0.150919
C26   C     C_R   0.342636 0.191357 0.378769 0.568266
C27   C     C_R   0.258406 0.501532 0.494918 1.078672
C28   C     C_3   0.898936 0.382210 0.495737 0.241057
C29   C     C_3   0.041781 0.383037 0.487133 0.233049
C30   C     C_3   0.945977 0.569139 0.380196 0.400302
C31   C     C_3   0.938729 0.555698 0.580258 0.231239
C32   C     C_3   0.878737 0.503502 0.486484 -0.255931
C33   C     C_3   0.077253 0.546157 0.584037 -0.421397
C34   C     C_R   0.558685 0.736025 0.057488 -0.088724
C35   C     C_R   0.552399 0.598035 0.201310 -0.014470
C36   C     C_R   0.519130 0.303467 0.832572 -0.233440
C37   C     C_R   0.573275 0.285080 0.925331 -0.068007
C38   C     C_R   0.601099 0.368063 0.987560 0.463140
H1    H     H_    0.854038 0.339913 0.432474 0.140721
H2    H     H_    0.294555 0.872082 0.327923 0.186985
H3    H     H_    0.563700 0.185089 0.547897 0.166271
H4    H     H_    0.649544 0.069331 0.627211 0.194611
H5    H     H_    0.403645 0.747023 0.412070 0.241860
H6    H     H_    0.064385 0.354712 0.413438 0.184961
H7    H     H_    0.935106 0.643418 0.573302 0.199032
H8    H     H_    0.087291 0.489543 0.652384 0.330141
H9    H     H_    0.090741 0.799478 0.266083 0.357496
H10   H     H_    0.734911 0.425872 0.072315 0.378707
H11   H     H_    0.821468 0.243615 0.578465 0.343282
H12   H     H_    0.135538 0.628390 0.591643 0.222856
H13   H     H_    0.335654 0.745915 0.722408 0.345785
H14   H     H_    0.220736 0.237319 0.285780 0.384751
H15   H     H_    0.160482 0.978161 0.330874 0.366869
H16   H     H_    0.743790 0.737017 0.734955 0.369165
H17   H     H_    0.678113 0.917968 0.870381 0.337472
H18   H     H_    0.051323 0.236368 0.548308 0.358308
H19   H     H_    0.928065 0.374440 0.184708 0.410539
H20   H     H_    0.270083 0.467596 0.197414 0.387093
H21   H     H_    0.899202 0.552594 0.725610 0.371101
H22   H     H_    0.132668 0.663336 0.410413 0.126494
H23   H     H_    0.562433 0.770312 0.211872 0.179289
H24   H     H_    0.460668 0.745553 0.879163 0.152768
H25   H     H_    0.550400 0.818452 0.028798 0.141955
H26   H     H_    0.551236 0.435513 0.167658 0.224576
H27   H     H_    0.513047 0.242227 0.780772 0.184427
H28   H     H_    0.605403 0.209503 0.944228 0.184948
N1    N     N_R   0.433240 0.222190 0.444680 -0.145238
N2    N     N_R   0.566070 0.776970 0.554790 -0.143312
O1    O     O_R   0.468120 0.366740 0.627160 -0.630409
O2    O     O_2   0.959068 0.778094 0.436102 -0.365440
O3    O     O_3   0.003871 0.772313 0.244871 -0.413206
O4    O     O_3   0.681774 0.353241 0.064482 -0.738334
O5    O     O_3   0.842186 0.322191 0.588611 -0.614718
O6    O     O_2   0.244569 0.467242 0.765875 -0.303499
O7    O     O_2   0.206849 0.604735 0.871598 -0.241194
O8    O     O_3   0.321475 0.675253 0.694010 -0.566955
O9    O     O_3   0.283437 0.269768 0.332792 -0.699844
O10   O     O_3   0.211879 0.049760 0.299350 -0.743474
O11   O     O_3   0.705858 0.717599 0.670760 -0.709282
O12   O     O_R   0.510770 0.544830 0.662520 -0.554965
O13   O     O_2   0.923249 0.911930 0.706136 -0.215060
O14   O     O_2   0.838103 0.071968 0.734879 -0.252586
O15   O     O_3   0.755501 0.890672 0.855619 -0.521952
O16   O     O_3   0.073483 0.311480 0.568093 -0.650494
O17   O     O_2   0.746025 0.439137 0.294001 -0.369971
O18   O     O_2   0.886023 0.576455 0.176951 -0.172115
O19   O     O_3   0.963020 0.401753 0.247517 -0.531959
O20   O     O_2   0.129111 0.617961 0.178790 -0.143202
O21   O     O_2   0.311552 0.663063 0.276500 -0.427871
O22   O     O_3   0.221900 0.458596 0.263943 -0.499252
O23   O     O_R   0.663880 0.410950 0.482330 -0.605999
O24   O     O_3   0.871298 0.504679 0.672339 -0.645453
O25   O     O_R   0.706530 0.589040 0.517700 -0.545582
O26   O     O_R   0.489230 0.455170 0.337480 -0.571838
O27   O     O_R   0.531880 0.633260 0.372840 -0.631082
O28   O     O_R   0.293470 0.410960 0.482300 -0.531983
O29   O     O_R   0.336120 0.589050 0.517670 -0.624164
O30   O     O_2   0.782984 0.707408 0.334438 -0.255915
S1    S     S_3+6 0.919693 0.709150 0.352415 0.060277
S2    S     S_3+6 0.298745 0.578273 0.795748 0.025075
S3    S     S_3+6 0.805844 0.949552 0.736509 0.052268
S4    S     S_3+6 0.881914 0.496995 0.272170 0.059669
S5    S     S_3+6 0.189716 0.581650 0.273770 0.041338
Zn1   Zn    Zn3+2 0.471520 0.381090 0.476390 1.073863
Zn2   Zn    Zn3+2 0.528480 0.618910 0.523610 1.083683

loop_
_geom_bond_atom_site_label_1
_geom_bond_atom_site_label_2
_ccdc_geom_bond_type
C12   C29   S    
C9    H26   S    
C25   N1    A    
O23   Zn1   S    
C7    C8    A    
O13   S3    D    
C12   C23   S    
C28   C29   S    
C26   N1    A    
C11   C36   A    
C16   C35   S    
C5    C6    A    
C20   C25   A    
C18   C19   A    
C17   H4    S    
O7    S2    D    
O27   Zn2   S    
O25   Zn2   S    
C23   S5    S    
C1    C11   S    
C31   C33   S    
C10   C35   A    
C18   C20   A    
C4    O23   A    
O29   Zn2   S    
O26   Zn1   S    
C21   C22   A    
O21   S5    D    
C33   H8    S    
C27   O28   A    
H10   O4    S    
C28   O5    S    
N1    Zn1   S    
H18   O16   S    
C23   H22   S    
C38   O4    S    
C26   O9    S    
C12   C27   S    
C23   C30   S    
C28   C32   S    
H13   O8    S    
C29   O16   S    
C3    C8    A    
C25   H3    S    
C36   H27   S    
O6    S2    D    
C28   H1    S    
C33   H12   S    
O3    S1    S    
O12   Zn2   S    
C1    O1    A    
C6    C34   A    
C7    H24   S    
C5    C9    A    
C37   C38   A    
O19   S4    S    
C2    C38   A    
C31   C32   S    
C22   H2    S    
C37   H28   S    
C30   S4    S    
C17   C18   A    
C13   C21   A    
C19   N2    A    
C10   C34   A    
C14   O11   S    
C15   S3    S    
H20   O22   S    
H9    O3    S    
C4    C32   S    
C31   O24   S    
O28   Zn1   S    
C29   H6    S    
H11   O5    S    
C13   C26   A    
C10   H23   S    
N2    Zn2   S    
H17   O15   S    
H14   O9    S    
O18   S4    D    
O20   S5    D    
O2    S1    D    
H16   O11   S    
O1    Zn1   S    
C15   C17   A    
C13   O10   S    
C27   O29   A    
C16   O27   A    
O15   S3    S    
C6    C7    A    
O8    S2    S    
C16   O26   A    
C19   C24   A    
C8    S2    S    
C30   C32   S    
C30   S1    S    
C34   H25   S    
O14   S3    D    
C2    C3    A    
C22   C24   A    
H21   O24   S    
O22   S5    S    
C3    C11   A    
H15   O10   S    
C4    O25   A    
C2    C5    A    
H19   O19   S    
C20   C21   A    
C36   C37   A    
O30   S1    D    
C31   H7    S    
C9    C35   A    
C24   H5    S    
C14   N2    A    
C14   C15   A    
C1    O12   A    
C12   C33   S    
O17   S4    D    
