data_mof_unit_16256.cif
_audit_creation_date              2012-12-11T15:22:40-0500
_audit_creation_method            fapswitch 2.2
_symmetry_space_group_name_H-M    P1
_symmetry_Int_Tables_number       1
_space_group_crystal_system       triclinic
_cell_length_a                    22.812204
_cell_length_b                    7.255917
_cell_length_c                    20.846063
_cell_angle_alpha                 89.994021
_cell_angle_beta                  93.178018
_cell_angle_gamma                 89.998226
_cell_volume                      3445.2059106

loop_
_atom_site_label
_atom_site_type_symbol
_atom_type_description
_atom_site_fract_x
_atom_site_fract_y
_atom_site_fract_z
_atom_type_partial_charge
O1    O     O_R   0.438030 0.494310 0.439340 -0.529261
O2    O     O_R   0.561970 0.994310 0.560660 -0.529327
O3    O     O_R   0.556900 0.822900 0.435960 -0.539028
O4    O     O_R   0.443100 0.322900 0.564040 -0.539077
C1    C     C_R   0.575901 0.655728 0.421350 0.742255
C2    C     C_R   0.424102 0.155723 0.578655 0.742604
O5    O     O_R   0.438170 0.823950 0.431660 -0.526394
O6    O     O_R   0.561830 0.323950 0.568340 -0.526511
O7    O     O_R   0.442390 0.995390 0.556340 -0.519270
O8    O     O_R   0.557610 0.495390 0.443660 -0.519244
C3    C     C_R   0.418557 0.655514 0.416078 0.769225
C4    C     C_R   0.581445 0.155500 0.583914 0.769378
O9    O     O_3   0.501520 0.661170 0.540910 -0.369008
O10   O     O_3   0.498480 0.161170 0.459090 -0.368740
V1    V     V_3+5 0.499720 0.935580 0.492410 1.566495
V2    V     V_3+5 0.500280 0.435580 0.507590 1.566317
C5    C     C_R   0.814208 0.003033 0.878542 -0.101102
C6    C     C_R   0.185633 0.501269 0.121743 -0.100515
C7    C     C_R   0.869310 0.081708 0.866114 -0.161062
C8    C     C_R   0.130702 0.581648 0.133881 -0.161284
C9    C     C_R   0.876389 0.178025 0.807795 -0.049520
C10   C     C_R   0.123811 0.679592 0.191908 -0.050089
C11   C     C_R   0.828327 0.193631 0.761666 0.027929
C12   C     C_R   0.171885 0.695276 0.238005 0.027920
C13   C     C_R   0.773775 0.109996 0.773232 0.053214
C14   C     C_R   0.226252 0.610021 0.226737 0.053309
C15   C     C_R   0.766984 0.012622 0.831233 0.081750
C16   C     C_R   0.232853 0.510981 0.169046 0.081550
C17   C     C_R   0.833916 0.286480 0.702975 -0.188601
C18   C     C_R   0.166481 0.789857 0.296387 -0.188689
C19   C     C_R   0.787159 0.299010 0.657441 -0.117458
C20   C     C_R   0.213228 0.802335 0.341930 -0.117481
C21   C     C_R   0.732670 0.217644 0.667846 0.068571
C22   C     C_R   0.267525 0.719259 0.331835 0.068465
C23   C     C_R   0.725866 0.122028 0.726192 0.011545
C24   C     C_R   0.274159 0.622095 0.273772 0.011510
C25   C     C_R   0.671492 0.036984 0.737469 0.055911
C26   C     C_R   0.328358 0.535551 0.262774 0.055836
C27   C     C_R   0.666496 0.936534 0.794416 -0.138283
C28   C     C_R   0.333159 0.433513 0.206142 -0.138140
C29   C     C_R   0.713242 0.922948 0.839836 -0.128403
C30   C     C_R   0.286401 0.419828 0.160745 -0.128593
C31   C     C_R   0.685357 0.227579 0.620958 0.065915
C32   C     C_R   0.314804 0.729026 0.378761 0.066239
C33   C     C_R   0.630791 0.146119 0.633102 -0.137200
C34   C     C_R   0.369223 0.646169 0.366870 -0.137443
C35   C     C_R   0.623674 0.052061 0.691469 0.072926
C36   C     C_R   0.376196 0.550765 0.308737 0.073148
H1    H     H_    0.874717 0.349608 0.690771 0.123565
H2    H     H_    0.125834 0.854446 0.308339 0.123549
H3    H     H_    0.794874 0.373360 0.613868 0.166877
H4    H     H_    0.205664 0.878094 0.385247 0.166853
H5    H     H_    0.626734 0.864148 0.804595 0.178593
H6    H     H_    0.372760 0.359895 0.196214 0.178408
H7    H     H_    0.706653 0.837800 0.881347 0.179728
H8    H     H_    0.292818 0.333466 0.119496 0.179367
C37   C     C_3   0.259210 0.221672 0.818428 0.061782
C38   C     C_3   0.740852 0.721734 0.181638 0.061669
C39   C     C_3   0.230603 0.914604 0.775224 -0.386527
C40   C     C_3   0.769419 0.414591 0.224821 -0.386468
C41   C     C_3   0.281333 0.925939 0.728215 0.048058
C42   C     C_3   0.718717 0.425907 0.271865 0.048044
H9    H     H_    0.350193 0.217282 0.789296 0.192292
H10   H     H_    0.649858 0.717108 0.210724 0.192187
H11   H     H_    0.280345 0.141462 0.858974 0.159267
H12   H     H_    0.719735 0.641661 0.141055 0.159061
H13   H     H_    0.194985 0.824668 0.754467 0.209730
H14   H     H_    0.805028 0.324515 0.245532 0.209752
H15   H     H_    0.246897 0.851162 0.821125 0.218105
H16   H     H_    0.753084 0.351310 0.178913 0.218205
H17   H     H_    0.268835 0.842308 0.684824 0.150132
H18   H     H_    0.731251 0.342322 0.315263 0.150273
C43   C     C_1   0.378100 0.147866 0.623892 -0.077970
C44   C     C_1   0.621916 0.647871 0.376130 -0.077938
C45   C     C_3   0.205887 0.108469 0.789496 0.076526
C46   C     C_3   0.794160 0.608441 0.210569 0.076667
C47   C     C_3   0.305809 0.250387 0.767613 -0.305154
C48   C     C_3   0.694225 0.750329 0.232426 -0.305122
C49   C     C_3   0.291496 0.129200 0.707292 0.108655
C50   C     C_3   0.708540 0.629173 0.292760 0.108585
C51   C     C_3   0.232943 0.201800 0.675396 -0.345304
C52   C     C_3   0.767085 0.701824 0.324653 -0.345187
C53   C     C_3   0.182277 0.191102 0.723380 -0.119531
C54   C     C_3   0.817770 0.690965 0.276695 -0.119601
C55   C     C_1   0.339222 0.140725 0.661375 0.010803
C56   C     C_1   0.660807 0.640709 0.338665 0.010880
C57   C     C_1   0.158744 0.092013 0.836260 -0.030493
C58   C     C_1   0.841301 0.591998 0.163799 -0.030594
C59   C     C_1   0.120714 0.082729 0.874761 -0.088448
C60   C     C_1   0.879317 0.582717 0.125280 -0.088921
H19   H     H_    0.148857 0.093316 0.702326 0.113191
H20   H     H_    0.851145 0.593040 0.297771 0.113139
H21   H     H_    0.239999 0.344039 0.657630 0.209149
H22   H     H_    0.760023 0.844123 0.342350 0.209238
H23   H     H_    0.306719 0.397528 0.752973 0.202749
H24   H     H_    0.693267 0.897468 0.247053 0.202804
H25   H     H_    0.220631 0.117474 0.632105 0.155242
H26   H     H_    0.779378 0.617619 0.367985 0.155274
O11   O     O_R   0.942420 0.735670 0.056390 -0.531538
O12   O     O_R   0.057580 0.235670 0.943610 -0.531697
O13   O     O_R   0.061840 0.404850 0.068350 -0.551570
O14   O     O_R   0.938160 0.904850 0.931650 -0.551107
C61   C     C_R   0.081556 0.573245 0.083843 0.750527
C62   C     C_R   0.918462 0.073270 0.916142 0.750579
O15   O     O_R   0.943100 0.406010 0.064050 -0.533949
O16   O     O_R   0.056900 0.906010 0.935950 -0.533839
O17   O     O_R   0.938020 0.234710 0.939330 -0.532526
O18   O     O_R   0.061980 0.734710 0.060670 -0.532437
C63   C     C_R   0.924380 0.574305 0.078865 0.758183
C64   C     C_R   0.075631 0.074309 0.921149 0.758440
O19   O     O_3   0.998500 0.567790 0.959120 -0.381844
O20   O     O_3   0.001500 0.067790 0.040880 -0.381991
V3    V     V_3+5 0.000280 0.293330 0.007580 1.477893
V4    V     V_3+5 0.999720 0.793330 0.992420 1.478578
C65   C     C_2   0.805676 0.921548 0.942929 0.378464
H27   H     H_    0.838112 0.829173 0.965185 0.055537
O21   O     O_2   0.763155 0.963451 0.972849 -0.492468
C66   C     C_2   0.194038 0.417752 0.057647 0.378083
H28   H     H_    0.161552 0.324856 0.035795 0.055570
O22   O     O_2   0.236563 0.458330 0.027529 -0.492496
I1    I     I_    0.360210 0.798281 0.769764 -0.344087
I2    I     I_    0.639836 0.298129 0.230390 -0.344114
C67   C     C_2   0.149455 0.371123 0.730566 0.429876
H29   H     H_    0.112379 0.375643 0.760970 0.081362
O23   O     O_2   0.162666 0.511023 0.702230 -0.537731
C68   C     C_2   0.850666 0.870861 0.269534 0.430005
H30   H     H_    0.887786 0.875224 0.239188 0.081692
O24   O     O_2   0.837467 0.010827 0.297835 -0.537625
I3    I     I_    0.236564 0.474769 0.864376 -0.351112
I4    I     I_    0.763549 0.974953 0.135796 -0.351603
C69   C     C_2   0.934141 0.262551 0.795154 0.366065
H31   H     H_    0.936289 0.400542 0.775435 0.048977
O25   O     O_2   0.979794 0.177385 0.805844 -0.546125
C70   C     C_2   0.066222 0.765593 0.204303 0.367248
H32   H     H_    0.064326 0.904267 0.223479 0.048588
O26   O     O_2   0.020422 0.680913 0.194011 -0.545979
I5    I     I_    0.696292 0.354704 0.529128 -0.436906
I6    I     I_    0.303947 0.857800 0.470324 -0.436804
I7    I     I_    0.538720 0.942736 0.710547 -0.330070
I8    I     I_    0.460987 0.439771 0.289861 -0.329483

loop_
_geom_bond_atom_site_label_1
_geom_bond_atom_site_label_2
_ccdc_geom_bond_type
C18   C20   A    
O12   C64   A    
C68   H30   S    
C52   H22   S    
O13   V3    S    
O1    C3    A    
C42   I2    S    
O2    C4    A    
C46   C54   S    
O11   V4    S    
C38   C46   S    
C67   H29   S    
C27   C29   A    
C8    C61   S    
C17   H1    S    
C14   C16   A    
O5    C3    A    
C9    C69   S    
C10   C70   S    
C11   C17   A    
O15   V3    S    
C23   C25   A    
C12   C14   A    
H9    C47   S    
C48   C50   S    
C67   O23   D    
C65   H27   S    
O11   C63   A    
C14   C24   A    
C40   C42   S    
O18   V4    S    
C1    C44   S    
C66   H28   S    
C20   H4    S    
C50   C56   S    
C30   H8    S    
C38   H12   S    
O17   V3    S    
C48   H24   S    
C65   O21   D    
C32   I6    S    
C19   C21   A    
C61   O18   A    
C25   C35   A    
C6    C66   S    
C26   C36   A    
C39   H13   S    
C41   H17   S    
C28   C30   A    
C18   H2    S    
O6    V2    S    
C52   H26   S    
C2    O7    A    
O20   V3    S    
C51   C53   S    
C32   C34   A    
C12   C18   A    
C33   C35   A    
C54   C68   S    
C34   C36   A    
C39   C41   S    
C36   I8    S    
C21   C31   A    
C37   C47   S    
C6    C16   A    
C50   C52   S    
C19   H3    S    
C49   C51   S    
C5    C7    A    
C70   O26   D    
O5    V1    S    
C69   O25   D    
C59   C64   S    
C40   C46   S    
C5    C15   A    
O4    V2    S    
O14   V4    S    
C51   H21   S    
C7    C62   S    
C15   C29   A    
C41   C49   S    
C40   H16   S    
O6    C4    A    
O15   C63   A    
C47   C49   S    
C42   H18   S    
O1    V2    S    
C44   C56   T    
O14   C62   A    
O2    V1    S    
C31   C33   A    
C43   C55   T    
C13   C23   A    
C45   C57   S    
C58   C60   T    
C42   C50   S    
C28   H6    S    
C39   H15   S    
C10   C12   A    
O4    C2    A    
C8    C10   A    
C69   H31   S    
C39   C45   S    
C49   C55   S    
O3    V1    S    
C5    C65   S    
C2    C43   S    
O16   C64   A    
C37   I3    S    
C22   C32   A    
C46   C58   S    
C68   O24   D    
C7    C9    A    
H10   C48   S    
O16   V4    S    
O12   V3    S    
C41   I1    S    
C37   H11   S    
C4    C33   S    
O3    C1    A    
C70   H32   S    
C13   C15   A    
C53   H19   S    
C52   C54   S    
O13   C61   A    
C37   C45   S    
C9    C11   A    
O7    V1    S    
C1    O8    A    
C25   C27   A    
O8    V2    S    
C24   C26   A    
C26   C28   A    
C45   C53   S    
C27   H5    S    
C51   H25   S    
C38   I4    S    
C29   H7    S    
C16   C30   A    
C21   C23   A    
C22   C24   A    
C47   H23   S    
C31   I5    S    
O19   V4    S    
C6    C8    A    
C11   C13   A    
C66   O22   D    
C38   C48   S    
C40   H14   S    
C17   C19   A    
O9    V2    S    
C35   I7    S    
C57   C59   T    
O10   V1    S    
C3    C34   S    
C54   H20   S    
C60   C63   S    
C53   C67   S    
C62   O17   A    
C20   C22   A    
