data_mof_unit_18542.cif
_audit_creation_date              2013-03-05T15:40:26-0500
_audit_creation_method            fapswitch 2.2
_symmetry_space_group_name_H-M    P1
_symmetry_Int_Tables_number       1
_space_group_crystal_system       triclinic
_cell_length_a                    7.804921
_cell_length_b                    8.547391
_cell_length_c                    10.639028
_cell_angle_alpha                 92.38372
_cell_angle_beta                  86.323718
_cell_angle_gamma                 93.487747
_cell_volume                      706.469115144

loop_
_atom_site_label
_atom_site_type_symbol
_atom_site_description
_atom_site_fract_x
_atom_site_fract_y
_atom_site_fract_z
_atom_type_partial_charge
O1    O     O_R   0.389250 0.738570 0.508280 -0.636809
O2    O     O_R   0.678390 0.711630 0.486650 -0.595081
C1    C     C_R   0.544806 0.793637 0.488269 0.975792
O3    O     O_R   0.355400 0.513470 0.694050 -0.623663
O4    O     O_R   0.644540 0.486530 0.672420 -0.590307
C2    C     C_R   0.505046 0.511373 0.739406 0.915662
Zn1   Zn    Zn3+2 0.306930 0.517990 0.514440 0.953870
Zn2   Zn    Zn3+2 0.693070 0.482010 0.485560 0.975324
O5    O     O_R   0.321610 0.288370 0.513350 -0.624287
O6    O     O_R   0.610750 0.261430 0.491720 -0.624507
O7    O     O_R   0.355460 0.513470 0.327580 -0.638913
O8    O     O_R   0.644600 0.486530 0.305950 -0.622024
C3    C     C_R   0.454352 0.205334 0.498442 0.964128
C4    C     C_R   0.497005 0.499847 0.260698 0.848102
H1    H     H_    0.595302 0.285528 0.871349 0.146692
C5    C     C_R   0.461738 0.811889 0.893711 -0.001540
C6    C     C_R   0.383723 0.931062 0.966966 -0.204061
H2    H     H_    0.369619 0.044744 0.928505 0.134175
C7    C     C_R   0.339535 0.911054 0.093814 -0.130412
H3    H     H_    0.286070 0.006078 0.151110 0.159383
C8    C     C_R   0.376948 0.773823 0.149251 -0.188143
H4    H     H_    0.351699 0.769252 0.249889 0.166147
C9    C     C_R   0.444560 0.647438 0.075443 0.071315
C10   C     C_R   0.473514 0.661325 0.944553 0.089995
C11   C     C_R   0.517205 0.524373 0.872193 -0.061315
C12   C     C_R   0.559076 0.388347 0.927822 -0.217791
H5    H     H_    0.587251 0.277495 0.099436 0.154050
C13   C     C_R   0.551253 0.382553 0.056292 -0.200106
C14   C     C_R   0.491902 0.509333 0.128912 -0.069916
C15   C     C_2   0.568003 0.956654 0.475838 -0.373992
H6    H     H_    0.698971 0.007170 0.462951 0.192698
C16   C     C_2   0.429639 0.041398 0.490205 -0.419156
H7    H     H_    0.298552 0.990887 0.502137 0.190527
N1    N     N_2   0.950330 0.457950 0.466250 -0.149463
N2    N     N_2   0.049670 0.542050 0.533750 -0.183492
H8    H     H_    0.987694 0.618809 0.595628 0.219577
C17   C     C_2   0.561297 0.863168 0.779166 0.345419
H9    H     H_    0.518944 0.960108 0.729057 0.064973
O9    O     O_2   0.700054 0.810098 0.747845 -0.572520
C18   C     C_1   0.025345 0.352065 0.380618 0.426479
N3    N     N_1   0.085913 0.262928 0.308563 -0.266808

loop_
_geom_bond_atom_site_label_1
_geom_bond_atom_site_label_2
_geom_bond_distance
_ccdc_geom_bond_type
O4    Zn2   1.998992 S    
C15   C16   1.333813 D    
C9    C10   1.405154 A    
C17   H9    1.082910 S    
C1    C15   1.404744 S    
C5    C10   1.426849 A    
C3    C16   1.402632 S    
C12   C13   1.367068 A    
C7    H3    1.082972 S    
C5    C17   1.470568 S    
Zn2   O8    1.974000 S    
C16   H7    1.087866 S    
C6    H2    1.084245 S    
C17   O9    1.220897 D    
Zn2   N1    2.027304 S    
C8    H4    1.078064 S    
Zn1   O7    1.998992 S    
C15   H6    1.087828 S    
O3    Zn1   1.974000 S    
N1    C18   1.385417 S    
C9    C14   1.410471 A    
O3    C2    1.293396 A    
C18   N3    1.157741 T    
C6    C7    1.386282 A    
O8    C4    1.289732 A    
O2    C1    1.290072 A    
C8    C9    1.416932 A    
O4    C2    1.286225 A    
O7    C4    1.283857 A    
C2    C11   1.421268 S    
C4    C14   1.411026 S    
C10   C11   1.420967 A    
Zn2   O6    1.956851 S    
N1    N2    1.262634 D    
H5    C13   1.085128 S    
Zn1   O5    1.972452 S    
O5    C3    1.288909 A    
C13   C14   1.389713 A    
H1    C12   1.085261 S    
C7    C8    1.389351 A    
C11   C12   1.391813 A    
O1    Zn1   1.956851 S    
Zn1   N2    2.027304 S    
O2    Zn2   1.972452 S    
N2    H8    1.029405 S    
C5    C6    1.401544 A    
O1    C1    1.283185 A    
O6    C3    1.282774 A    
