data_mof_unit_42949.cif
_audit_creation_date              2012-12-10T19:15:12-0500
_audit_creation_method            fapswitch 2.2
_symmetry_space_group_name_H-M    P1
_symmetry_Int_Tables_number       1
_space_group_crystal_system       triclinic
_cell_length_a                    10.920725
_cell_length_b                    10.025307
_cell_length_c                    23.033798
_cell_angle_alpha                 89.434924
_cell_angle_beta                  93.592165
_cell_angle_gamma                 90.069186
_cell_volume                      2516.74614931

loop_
_atom_site_label
_atom_site_type_symbol
_atom_type_description
_atom_site_fract_x
_atom_site_fract_y
_atom_site_fract_z
_atom_type_partial_charge
C1    C     C_R   0.259008 0.501041 0.500561 0.867756
C2    C     C_R   0.232576 0.340916 0.962981 -0.171245
C3    C     C_R   0.245028 0.335419 0.023508 -0.173555
C4    C     C_R   0.312719 0.433448 0.054661 0.020480
C5    C     C_R   0.364409 0.540930 0.024668 -0.084188
C6    C     C_R   0.432482 0.640311 0.055522 -0.149305
C7    C     C_R   0.478791 0.750692 0.024908 0.540056
C8    C     C_R   0.467029 0.753633 0.964151 -0.256112
C9    C     C_R   0.331361 0.426005 0.115220 0.495784
C10   C     C_R   0.452575 0.624972 0.116024 0.541309
C11   C     C_R   0.491513 0.407576 0.231433 -0.135480
C12   C     C_R   0.497652 0.500829 0.389331 0.854946
C13   C     C_R   0.518558 0.403210 0.291350 -0.245447
C14   C     C_R   0.476349 0.504772 0.326192 -0.141294
C15   C     C_R   0.405211 0.608731 0.300932 -0.206340
C16   C     C_R   0.372849 0.611196 0.241747 0.499695
C17   C     C_R   0.419352 0.511307 0.206284 0.178833
C18   C     C_R   0.339968 0.617259 0.741713 -0.127709
C19   C     C_R   0.381947 0.606748 0.686378 -0.284291
C20   C     C_R   0.461097 0.503381 0.672057 -0.161942
C21   C     C_R   0.497701 0.407598 0.715188 0.508780
C22   C     C_R   0.450446 0.416735 0.770482 -0.249442
C23   C     C_R   0.742661 0.497738 0.501773 0.843646
C24   C     C_R   0.375005 0.522764 0.784060 0.255424
C25   C     C_3   0.071184 0.608911 0.546206 0.362655
C26   C     C_3   0.080494 0.356753 0.517705 0.364088
C27   C     C_3   0.937334 0.567881 0.557629 0.323634
C28   C     C_3   0.939238 0.343825 0.507030 0.424412
C29   C     C_3   0.063339 0.538502 0.442944 -0.634176
C30   C     C_3   0.123660 0.501992 0.504183 -0.166059
C31   C     C_3   0.881125 0.489631 0.504278 -0.104720
C32   C     C_3   0.922805 0.554114 0.446712 -0.614049
C33   C     C_3   0.387051 0.080758 0.462649 0.840664
C34   C     C_3   0.378163 0.917162 0.473535 0.733602
C35   C     C_3   0.602972 0.077352 0.466695 -0.515485
C36   C     C_3   0.589161 0.919835 0.458475 -0.394678
C37   C     C_3   0.489570 0.076671 0.560264 0.808945
C38   C     C_3   0.536914 0.925539 0.558895 0.810463
C39   C     C_R   0.496133 0.499692 0.610931 0.828512
C40   C     C_R   0.403640 0.646869 0.872584 0.543038
C41   C     C_R   0.286634 0.445233 0.871707 0.504615
C42   C     C_R   0.287545 0.444580 0.932524 0.002426
C43   C     C_R   0.351110 0.546583 0.963494 -0.021735
C44   C     C_R   0.405729 0.651204 0.933256 -0.091841
H1    H     H_    0.182652 0.261863 0.940148 0.188594
H2    H     H_    0.352526 0.680630 0.654242 0.247690
H3    H     H_    0.475367 0.344089 0.804180 0.155304
H4    H     H_    0.066955 0.705000 0.520895 0.101458
H5    H     H_    0.112671 0.295454 0.481959 0.099355
H6    H     H_    0.890248 0.660568 0.561426 0.005767
H7    H     H_    0.916446 0.301113 0.462909 0.022109
H8    H     H_    0.100728 0.633457 0.427066 0.230850
H9    H     H_    0.083101 0.461077 0.410486 0.195625
H10   H     H_    0.898223 0.661926 0.445065 0.211285
H11   H     H_    0.874839 0.506566 0.408169 0.218539
H12   H     H_    0.203747 0.252600 0.045693 0.187735
H13   H     H_    0.609902 0.126866 0.423640 0.245314
H14   H     H_    0.561984 0.898666 0.412133 0.240417
H15   H     H_    0.693742 0.096415 0.486363 0.210636
H16   H     H_    0.679273 0.870199 0.464023 0.210701
H17   H     H_    0.508587 0.835490 0.941417 0.205074
H18   H     H_    0.527577 0.331149 0.204339 0.169669
H19   H     H_    0.573171 0.321879 0.310354 0.178003
H20   H     H_    0.371003 0.686702 0.327526 0.208875
H21   H     H_    0.282518 0.700466 0.752173 0.153026
N1    N     N_R   0.348533 0.542361 0.843372 -0.338765
N2    N     N_R   0.401008 0.520254 0.144319 -0.367615
N3    N     N_3   0.499750 0.138610 0.498760 -0.192383
N4    N     N_3   0.499750 0.861390 0.498760 -0.200205
O1    O     O_R   0.314910 0.616040 0.499990 -0.578403
O2    O     O_R   0.314910 0.383960 0.499990 -0.561890
O3    O     O_R   0.500080 0.616070 0.416130 -0.572617
O4    O     O_R   0.500080 0.383930 0.416130 -0.613676
O5    O     O_R   0.685320 0.616040 0.499970 -0.660290
O6    O     O_R   0.685320 0.383960 0.499970 -0.624291
O7    O     O_R   0.500150 0.616010 0.583820 -0.591471
O8    O     O_R   0.500150 0.383990 0.583820 -0.542332
O9    O     O_2   0.461301 0.742954 0.843154 -0.581716
O10   O     O_2   0.228085 0.347481 0.841115 -0.571519
O11   O     O_2   0.280536 0.325600 0.144910 -0.564675
O12   O     O_2   0.523778 0.712838 0.146685 -0.472963
Zn1   Zn    Zn3+2 0.500150 0.654960 0.499970 0.981572
Zn2   Zn    Zn3+2 0.500150 0.345040 0.499970 1.010901
O13   O     O_3   0.575013 0.304538 0.702087 -0.598645
C45   C     C_3   0.667623 0.281856 0.746825 -0.380471
H22   H     H_    0.633840 0.213362 0.780464 0.192307
H23   H     H_    0.703506 0.376161 0.766714 0.163494
H24   H     H_    0.746070 0.231479 0.727997 0.188557
O14   O     O_3   0.143659 0.632278 0.598334 -0.621638
C46   C     C_3   0.109952 0.754607 0.623427 -0.362826
H25   H     H_    0.012866 0.755342 0.634467 0.164854
H26   H     H_    0.127570 0.841004 0.594589 0.187087
H27   H     H_    0.164456 0.769318 0.664899 0.175465
O15   O     O_3   0.128517 0.288700 0.569818 -0.571967
C47   C     C_3   0.184904 0.363394 0.615892 0.067595
H28   H     H_    0.256948 0.430519 0.602450 0.145337
H29   H     H_    0.234320 0.296076 0.647155 0.103526
H30   H     H_    0.118426 0.411322 0.642727 0.224764
O16   O     O_3   0.933309 0.490103 0.609333 -0.555895
C48   C     C_3   0.835761 0.526840 0.643147 -0.289280
H31   H     H_    0.746403 0.520789 0.617936 0.131335
H32   H     H_    0.850001 0.627925 0.661455 0.136490
H33   H     H_    0.832977 0.456061 0.680281 0.196216
O17   O     O_3   0.895266 0.257249 0.549737 -0.567765
C49   C     C_3   0.924427 0.122000 0.537083 -0.346335
H34   H     H_    0.890596 0.092185 0.492695 0.122404
H35   H     H_    0.883626 0.055362 0.568942 0.198702
H36   H     H_    0.023743 0.099763 0.541268 0.230020
O18   O     O_3   0.399282 0.104725 0.401327 -0.636739
C50   C     C_3   0.313323 0.194753 0.373458 -0.199802
H37   H     H_    0.304236 0.288813 0.397442 0.199131
H38   H     H_    0.220807 0.150119 0.367156 0.108700
H39   H     H_    0.343941 0.219719 0.329709 0.194491
O19   O     O_3   0.351606 0.848700 0.420013 -0.573266
C51   C     C_3   0.230867 0.863929 0.394809 -0.225558
H40   H     H_    0.159893 0.888669 0.425347 0.154909
H41   H     H_    0.203374 0.769027 0.373782 0.156132
H42   H     H_    0.230431 0.936334 0.358492 0.187420
O20   O     O_3   0.278260 0.140598 0.479855 -0.709314
H43   H     H_    0.206707 0.091271 0.462422 0.305921
O21   O     O_3   0.283478 0.888873 0.511209 -0.804839
H44   H     H_    0.311914 0.824304 0.541622 0.385901
O22   O     O_3   0.550592 0.152119 0.606316 -0.602524
C52   C     C_3   0.674622 0.186578 0.603153 0.014509
H45   H     H_    0.693209 0.286262 0.621309 0.200302
H46   H     H_    0.697792 0.196949 0.559394 0.203695
H47   H     H_    0.734855 0.117401 0.629560 0.146771
O23   O     O_3   0.666246 0.942192 0.567275 -0.707010
C53   C     C_3   0.738235 0.830231 0.577347 -0.360479
H48   H     H_    0.798682 0.846808 0.617108 0.144997
H49   H     H_    0.797315 0.827197 0.540315 0.179242
H50   H     H_    0.686484 0.738193 0.583776 0.251694
O24   O     O_3   0.362385 0.079690 0.573551 -0.569480
C54   C     C_3   0.330800 0.051883 0.631204 -0.128724
H51   H     H_    0.318402 0.944295 0.638822 0.149791
H52   H     H_    0.236208 0.087130 0.635553 0.168424
H53   H     H_    0.391288 0.099851 0.665423 0.199607
O25   O     O_3   0.489955 0.849959 0.605350 -0.647315
C55   C     C_3   0.550801 0.867680 0.661490 -0.259919
H54   H     H_    0.603406 0.961245 0.666950 0.209660
H55   H     H_    0.611883 0.781663 0.672560 0.170707
H56   H     H_    0.482284 0.867579 0.694970 0.167443
O26   O     O_3   0.542733 0.852111 0.053602 -0.558130
C56   C     C_3   0.463204 0.961891 0.057857 -0.203731
H57   H     H_    0.512613 0.041178 0.083132 0.203028
H58   H     H_    0.380715 0.934323 0.081451 0.169996
H59   H     H_    0.435321 0.004396 0.014210 0.132124
O27   O     O_3   0.296483 0.712455 0.220458 -0.753394
H60   H     H_    0.264866 0.690992 0.180434 0.333935

loop_
_geom_bond_atom_site_label_1
_geom_bond_atom_site_label_2
_ccdc_geom_bond_type
C26   O15   S    
C11   C13   A    
C41   C42   A    
C19   C20   A    
C11   H18   S    
O23   C53   S    
C54   H53   S    
C7    O26   S    
O19   C51   S    
C47   H30   S    
C7    C8    A    
C10   N2    A    
C18   H21   S    
C49   H35   S    
C27   O16   S    
C1    O2    A    
C18   C24   A    
C39   O8    A    
O26   C56   S    
C29   C32   S    
C36   H14   S    
C5    C6    A    
C55   H56   S    
O8    Zn2   S    
C15   C16   A    
C37   N3    S    
C35   H15   S    
C18   C19   A    
C50   H37   S    
C1    C30   S    
N4    Zn1   S    
C37   O22   S    
C47   H28   S    
C16   C17   A    
C51   H41   S    
C12   O4    A    
C15   H20   S    
C29   C30   S    
C32   H11   S    
C27   H6    S    
C24   N1    S    
C8    H17   S    
C53   H50   S    
C22   H3    S    
C12   O3    A    
C38   N4    S    
C40   N1    A    
C13   C14   A    
O5    Zn1   S    
C56   H59   S    
C32   H10   S    
O17   C49   S    
O2    Zn2   S    
C45   H23   S    
C2    H1    S    
C49   H36   S    
C17   N2    S    
C27   C31   S    
O22   C52   S    
O13   C45   S    
C56   H58   S    
C26   H5    S    
O7    Zn1   S    
C20   C39   S    
C56   H57   S    
C54   H52   S    
C25   O14   S    
C45   H22   S    
C48   H33   S    
C35   C36   S    
C23   C31   S    
C43   C44   A    
C9    N2    A    
C41   O10   S    
C37   C38   S    
C3    H12   S    
C28   O17   S    
C46   H26   S    
C31   C32   S    
C13   H19   S    
C21   O13   S    
O20   H43   S    
C51   H42   S    
C48   H32   S    
C33   C34   S    
C38   O25   S    
C39   O7    A    
O27   H60   S    
C25   H4    S    
O21   H44   S    
C41   N1    A    
C52   H47   S    
C40   O9    S    
C12   C14   S    
C33   O20   S    
C34   O21   S    
O24   C54   S    
C22   C24   A    
C34   O19   S    
C42   C43   A    
C23   O5    A    
C3    C4    A    
C36   N4    S    
C46   H27   S    
C52   H46   S    
C53   H48   S    
C45   H24   S    
C25   C30   S    
C11   C17   A    
C10   O12   S    
N3    Zn2   S    
C34   N4    S    
C28   C31   S    
C8    C44   A    
C23   O6    A    
C4    C5    A    
C36   H16   S    
C6    C10   A    
C38   O23   S    
C55   H54   S    
C47   H29   S    
C26   C30   S    
C6    C7    A    
C25   C27   S    
C49   H34   S    
C54   H51   S    
C26   C28   S    
C1    O1    A    
O16   C48   S    
C35   H13   S    
C16   O27   S    
C2    C3    A    
C4    C9    A    
O18   C50   S    
C19   H2    S    
C55   H55   S    
O6    Zn2   S    
C46   H25   S    
C29   H9    S    
C35   N3    S    
C2    C42   A    
C48   H31   S    
C28   H7    S    
O4    Zn2   S    
C37   O24   S    
C5    C43   A    
O15   C47   S    
O1    Zn1   S    
C50   H38   S    
O25   C55   S    
C40   C44   A    
C33   O18   S    
C20   C21   A    
C50   H39   S    
C14   C15   A    
O14   C46   S    
C21   C22   A    
C9    O11   S    
O3    Zn1   S    
C51   H40   S    
C33   N3    S    
C52   H45   S    
C53   H49   S    
C29   H8    S    
