data_mof_unit_26057.cif
_audit_creation_date              2013-03-05T15:43:08-0500
_audit_creation_method            fapswitch 2.2
_symmetry_space_group_name_H-M    P1
_symmetry_Int_Tables_number       1
_space_group_crystal_system       triclinic
_cell_length_a                    6.969208
_cell_length_b                    14.047373
_cell_length_c                    18.029587
_cell_angle_alpha                 113.297472
_cell_angle_beta                  95.261485
_cell_angle_gamma                 90.588511
_cell_volume                      1612.23982906

loop_
_atom_site_label
_atom_site_type_symbol
_atom_site_description
_atom_site_fract_x
_atom_site_fract_y
_atom_site_fract_z
_atom_type_partial_charge
O1    O     O_R   0.484560 0.544530 0.414330 -0.558821
O2    O     O_R   0.197040 0.638810 0.585080 -0.545705
O3    O     O_R   0.026800 0.455470 0.585670 -0.543172
C1    C     C_R   0.374177 0.683249 0.606507 0.852234
O4    O     O_R   0.155000 0.556150 0.414940 -0.565444
O5    O     O_R   0.984450 0.372220 0.414320 -0.522392
C2    C     C_R   0.318258 0.564567 0.386923 0.856748
O6    O     O_R   0.526900 0.627780 0.585680 -0.564279
O7    O     O_3   0.339170 0.439750 0.499990 -0.246253
V1    V     V_3+5 0.064350 0.511180 0.500000 1.179827
O8    O     O_R   0.654880 0.361190 0.414920 -0.518562
C3    C     C_R   0.818022 0.324348 0.386712 0.848171
O9    O     O_R   0.696930 0.443850 0.585060 -0.575710
C4    C     C_R   0.868492 0.404276 0.588382 0.795433
V2    V     V_3+5 0.564340 0.488820 0.500000 1.187743
O10   O     O_3   0.839390 0.560250 0.500010 -0.311295
C5    C     C_R   0.036168 0.850337 0.816153 -0.089479
C6    C     C_R   0.897550 0.356040 0.648503 -0.135797
C7    C     C_R   0.908622 0.798765 0.674644 -0.093531
C8    C     C_R   0.957949 0.774156 0.741676 -0.003952
C9    C     C_R   0.054108 0.953296 0.822405 -0.119156
C10   C     C_R   0.005378 0.980440 0.754465 0.032221
C11   C     C_R   0.931573 0.900705 0.680161 0.039462
C12   C     C_R   0.020637 0.084426 0.758692 0.011184
C13   C     C_R   0.954098 0.108506 0.690179 0.050396
C14   C     C_R   0.885951 0.025217 0.617286 -0.091483
C15   C     C_R   0.876591 0.923459 0.612398 -0.096955
C16   C     C_R   0.100185 0.165358 0.830003 -0.093410
C17   C     C_R   0.091098 0.266954 0.839203 -0.049326
C18   C     C_R   0.012094 0.294027 0.776532 -0.049821
C19   C     C_R   0.954320 0.215329 0.698289 0.029610
C20   C     C_R   0.996648 0.399236 0.790035 0.302723
C21   C     C_R   0.936420 0.427297 0.726596 -0.093089
C22   C     C_R   0.901988 0.248428 0.632981 -0.139720
H1    H     H_    0.820050 0.862012 0.555349 0.065759
H2    H     H_    0.868915 0.193421 0.571054 0.063665
H3    H     H_    0.923236 0.508620 0.737729 0.130331
H4    H     H_    0.149541 0.323858 0.897155 0.205947
H5    H     H_    0.849783 0.737869 0.618153 0.124905
H6    H     H_    0.934408 0.694825 0.735221 0.130238
H7    H     H_    0.099825 0.010681 0.881637 0.163723
H8    H     H_    0.834327 0.037162 0.563522 0.074119
H9    H     H_    0.170085 0.153174 0.881064 0.151689
H10   H     H_    0.836155 0.036825 0.192363 0.096769
C23   C     C_2   0.137515 0.035057 0.183912 -0.130853
C24   C     C_2   0.976235 0.077098 0.217203 -0.117995
H11   H     H_    0.680397 0.180521 0.290650 0.095833
C25   C     C_2   0.818890 0.221124 0.318360 -0.256551
C26   C     C_2   0.984237 0.177696 0.288067 0.334377
H12   H     H_    0.278032 0.074837 0.207956 0.125132
C27   C     C_R   0.408845 0.797177 0.671313 -0.203292
C28   C     C_R   0.539131 0.475812 0.818977 -0.119495
C29   C     C_R   0.507668 0.915800 0.814520 0.272562
C30   C     C_R   0.455289 0.815284 0.753814 0.258483
C31   C     C_R   0.409968 0.887943 0.652727 -0.163842
C32   C     C_R   0.466037 0.991507 0.714110 -0.004936
C33   C     C_R   0.528318 0.001797 0.794695 -0.157751
C34   C     C_R   0.458288 0.087411 0.701141 0.053699
C35   C     C_R   0.523792 0.184598 0.766507 -0.023340
C36   C     C_R   0.628534 0.181749 0.833333 -0.111037
C37   C     C_R   0.612572 0.099045 0.853620 0.355055
C38   C     C_R   0.388574 0.091756 0.627016 -0.076898
C39   C     C_R   0.382769 0.187040 0.618942 -0.096706
C40   C     C_R   0.436254 0.281559 0.685475 0.015940
C41   C     C_R   0.498097 0.282935 0.762413 0.030131
C42   C     C_R   0.432125 0.374811 0.675274 -0.078625
C43   C     C_R   0.495772 0.468481 0.739254 -0.084475
C44   C     C_R   0.529681 0.382830 0.831583 0.162745
H13   H     H_    0.514019 0.534301 0.724508 0.185175
H14   H     H_    0.332653 0.187035 0.560236 0.101131
H15   H     H_    0.370735 0.876448 0.590352 0.069677
H16   H     H_    0.721461 0.246635 0.873643 0.167066
H17   H     H_    0.339100 0.022529 0.574557 0.073200
H18   H     H_    0.388156 0.374519 0.616129 0.140599
H19   H     H_    0.612952 0.591118 0.306405 0.094082
C45   C     C_2   0.314175 0.600773 0.319889 -0.170928
C46   C     C_2   0.473690 0.609848 0.284727 -0.131393
H20   H     H_    0.766130 0.639850 0.207632 0.091826
C47   C     C_2   0.628225 0.656784 0.183414 -0.221022
C48   C     C_2   0.464840 0.645007 0.216343 0.342297
H21   H     H_    0.174669 0.619499 0.298598 0.123339
O11   O     O_R   0.421600 0.630430 0.917010 -0.484104
O12   O     O_R   0.793840 0.702190 0.087630 -0.522264
O13   O     O_R   0.964010 0.886170 0.088190 -0.572123
C49   C     C_R   0.629765 0.693277 0.115818 0.868489
O14   O     O_R   0.751460 0.619510 0.917500 -0.501543
O15   O     O_R   0.921330 0.802900 0.916840 -0.501013
C50   C     C_R   0.573957 0.581174 0.888937 0.989876
O16   O     O_R   0.464290 0.713700 0.088350 -0.538211
O17   O     O_3   0.609200 0.818520 0.002630 -0.236095
V3    V     V_3+5 0.884140 0.747190 0.002530 1.368094
O18   O     O_R   0.251150 0.814630 0.917340 -0.499332
C51   C     C_R   0.073870 0.822577 0.888507 0.942491
O19   O     O_R   0.293530 0.897310 0.087470 -0.561850
C52   C     C_R   0.131523 0.933332 0.115615 0.866688
V4    V     V_3+5 0.384070 0.769710 0.002370 1.366496
O20   O     O_3   0.109180 0.698190 0.002460 -0.184233
N1    N     N_R   0.049333 0.482154 0.866628 0.069862
O21   O     O_R   0.089564 0.571576 0.865156 -0.340524
O22   O     O_R   0.000858 0.478601 0.933548 -0.311749
N2    N     N_R   0.171036 0.226851 0.324030 0.098175
O23   O     O_R   0.264785 0.203675 0.379959 -0.394575
O24   O     O_R   0.257252 0.282990 0.293109 -0.339046
N3    N     N_R   0.677366 0.121600 0.936905 0.150500
O25   O     O_R   0.567749 0.175288 0.991889 -0.251266
O26   O     O_R   0.861555 0.126574 0.958460 -0.348984
Br1   Br    Br    0.526500 0.402992 0.944726 -0.508373
N4    N     N_R   0.528934 0.932563 0.898489 0.120257
O27   O     O_R   0.402802 0.986794 0.944589 -0.362280
O28   O     O_R   0.701559 0.937207 0.932886 -0.303420
N5    N     N_R   0.456624 0.729973 0.776899 0.047835
O29   O     O_R   0.304246 0.668156 0.760611 -0.434816
O30   O     O_R   0.614147 0.712786 0.812551 -0.420039
N6    N     N_R   0.279288 0.665655 0.185924 0.094799
O31   O     O_R   0.166191 0.589269 0.134592 -0.287867
O32   O     O_R   0.213739 0.757997 0.217924 -0.408616

loop_
_geom_bond_atom_site_label_1
_geom_bond_atom_site_label_2
_geom_bond_distance
_ccdc_geom_bond_type
C34   C38   1.404247 A    
C18   C20   1.406611 A    
C31   C32   1.459246 A    
C13   C19   1.448966 A    
N2    O23   1.301110 A    
O15   V3    2.022902 S    
C4    C6    1.489504 S    
O2    C1    1.329994 A    
C7    C8    1.398224 A    
C1    O6    1.319053 A    
N3    O26   1.299562 A    
N6    O31   1.300953 A    
C23   C24   1.352540 D    
N4    O27   1.300307 A    
C24   C26   1.479732 S    
C14   C15   1.397384 A    
C17   C18   1.398096 A    
C16   C17   1.372884 A    
O14   V3    1.988246 S    
O5    C3    1.287873 A    
C18   C19   1.423855 A    
C8    H6    1.082809 S    
O14   C50   1.317429 A    
C36   H16   1.075159 S    
V2    O10   2.154422 S    
C42   H18   1.080562 S    
C23   C52   1.468825 S    
O18   V4    2.030591 S    
C5    C8    1.400918 A    
C32   C33   1.427292 A    
C33   C37   1.435531 A    
O8    V2    1.997720 S    
N5    O29   1.300074 A    
C20   N1    1.422823 S    
C17   H4    1.072933 S    
C38   H17   1.079301 S    
O1    V2    2.028526 S    
C44   Br1   1.947661 S    
C11   C15   1.402573 A    
O7    V1    2.171292 S    
C22   H2    1.078662 S    
C28   C44   1.413457 A    
C3    C25   1.486388 S    
C42   C43   1.397259 A    
C35   C36   1.365128 A    
N2    O24   1.301227 A    
O9    C4    1.330064 A    
N3    O25   1.301730 A    
H10   C24   1.087077 S    
O11   V4    1.991844 S    
C1    C27   1.563955 S    
C28   C50   1.516650 S    
C37   N3    1.433673 S    
C12   C13   1.443610 A    
O4    C2    1.309033 A    
C49   O16   1.293033 A    
H20   C47   1.086653 S    
C15   H1    1.083828 S    
C34   C35   1.441168 A    
C29   C30   1.420771 A    
V3    O20   1.719117 S    
C47   C48   1.369020 D    
C36   C37   1.355292 A    
C43   H13   1.067693 S    
O13   C52   1.290512 A    
C40   C42   1.393191 A    
C7    C11   1.402057 A    
C38   C39   1.403049 A    
C6    C22   1.425597 A    
H11   C25   1.086907 S    
C39   H14   1.083701 S    
C41   C44   1.460105 A    
V4    O20   2.154495 S    
C19   C22   1.446861 A    
N5    O30   1.294389 A    
C45   C46   1.358048 D    
O19   V4    1.997627 S    
H19   C46   1.086716 S    
C28   C43   1.403762 A    
C7    H5    1.079024 S    
C9    H7    1.069189 S    
C25   C26   1.365525 D    
O12   C49   1.317372 A    
C48   N6    1.435488 S    
O6    V2    1.990966 S    
N1    O22   1.301694 A    
O9    V2    2.030579 S    
C10   C12   1.434619 A    
C5    C51   1.504824 S    
O2    V1    1.988192 S    
C47   C49   1.498233 S    
C14   H8    1.078502 S    
C46   C48   1.495398 S    
C29   C33   1.398306 A    
O1    C2    1.295510 A    
C12   C16   1.397488 A    
C45   H21   1.085588 S    
O5    V1    1.985313 S    
N6    O32   1.301039 A    
O8    C3    1.314964 A    
N4    O28   1.290641 A    
O17   V4    1.704652 S    
C2    C45   1.483370 S    
O3    C4    1.325973 A    
O12   V3    2.021355 S    
C16   H9    1.076212 S    
C27   C30   1.411654 A    
C20   C21   1.382667 A    
O16   V4    2.037042 S    
C13   C14   1.406942 A    
O4    V1    2.021363 S    
O3    V1    2.023056 S    
V1    O10   1.719090 S    
C35   C41   1.424443 A    
C26   N2    1.436860 S    
C29   N4    1.430223 S    
O17   V3    2.171208 S    
C23   H12   1.085584 S    
O13   V3    1.985328 S    
O11   C50   1.303465 A    
O15   C51   1.293354 A    
C40   C41   1.406877 A    
O18   C51   1.319131 A    
C32   C34   1.456318 A    
C30   N5    1.415462 S    
C27   C31   1.440937 A    
O7    V2    1.707435 S    
O19   C52   1.304622 A    
C6    C21   1.366533 A    
C21   H3    1.085323 S    
C39   C40   1.410238 A    
N1    O21   1.295273 A    
C10   C11   1.410204 A    
C9    C10   1.434227 A    
C31   H15   1.079171 S    
C5    C9    1.408843 A    
