data_mof_unit_52233.cif
_audit_creation_date              2012-12-10T17:27:51-0500
_audit_creation_method            fapswitch 2.2
_symmetry_space_group_name_H-M    P1
_symmetry_Int_Tables_number       1
_space_group_crystal_system       triclinic
_cell_length_a                    10.627378
_cell_length_b                    12.067291
_cell_length_c                    12.92135
_cell_angle_alpha                 92.932057
_cell_angle_beta                  90.253339
_cell_angle_gamma                 86.638534
_cell_volume                      1652.06298224

loop_
_atom_site_label
_atom_site_type_symbol
_atom_type_description
_atom_site_fract_x
_atom_site_fract_y
_atom_site_fract_z
_atom_type_partial_charge
Br1   Br    Br    0.465276 0.209126 0.971691 -0.501618
Br2   Br    Br    0.337877 0.207592 0.361065 -0.393640
Br3   Br    Br    0.173984 0.014286 0.435483 -0.449233
Br4   Br    Br    0.607964 0.698315 0.195366 -0.525763
C1    C     C_R   0.499426 0.521559 0.699985 0.839946
C2    C     C_R   0.533148 0.636403 0.858356 -0.205812
C3    C     C_R   0.498519 0.440357 0.867825 -0.248555
C4    C     C_R   0.739320 0.500579 0.500220 0.869399
C5    C     C_R   0.511390 0.447791 0.974254 0.047949
C6    C     C_R   0.537868 0.551696 0.023670 0.075423
C7    C     C_R   0.549703 0.560652 0.131096 0.196196
C8    C     C_R   0.500716 0.365538 0.138764 -0.230412
C9    C     C_R   0.497035 0.354020 0.032148 0.258991
C10   C     C_R   0.348477 0.957875 0.444324 0.232347
C11   C     C_R   0.372499 0.841981 0.434554 0.268252
C12   C     C_R   0.935266 0.475154 0.597395 0.017506
C13   C     C_R   0.562265 0.856692 0.530687 -0.049985
C14   C     C_R   0.549610 0.975125 0.530859 -0.012641
C15   C     C_R   0.444185 0.025848 0.480943 -0.119267
C16   C     C_R   0.508960 0.479119 0.299892 0.938516
C17   C     C_R   0.439292 0.142528 0.468502 0.405291
C18   C     C_R   0.618729 0.161174 0.575995 -0.022311
C19   C     C_R   0.637237 0.044615 0.580609 0.125261
C20   C     C_R   0.260924 0.499864 0.503550 0.885604
C21   C     C_R   0.870155 0.453006 0.688554 -0.234202
C22   C     C_R   0.934502 0.426708 0.779654 0.234684
C23   C     C_R   0.872002 0.502352 0.504854 -0.077304
C24   C     C_R   0.067619 0.422447 0.780570 0.232557
C25   C     C_R   0.132284 0.445994 0.690413 -0.196961
C26   C     C_R   0.066776 0.472497 0.598692 0.050654
C27   C     C_3   0.868336 0.559597 0.317178 -0.787832
C28   C     C_3   0.749158 0.997268 0.639147 -0.847454
C29   C     C_3   0.278820 0.776354 0.373081 -0.709354
C30   C     C_3   0.856542 0.405095 0.873122 -0.871196
C31   C     C_3   0.142075 0.394089 0.876106 -0.841988
C32   C     C_R   0.935992 0.529428 0.415531 0.140662
C33   C     C_R   0.065172 0.527946 0.418453 -0.174094
C34   C     C_R   0.128840 0.499121 0.507941 -0.094621
C35   C     C_R   0.522096 0.468264 0.188537 -0.203055
C36   C     C_R   0.508311 0.534029 0.810530 -0.060822
C37   C     C_R   0.548738 0.645214 0.964246 -0.129848
H1    H     H_    0.542307 0.709292 0.813965 0.174139
H2    H     H_    0.934859 0.571617 0.253170 0.239708
H3    H     H_    0.806032 0.492806 0.291241 0.231981
H4    H     H_    0.811514 0.638677 0.332096 0.283534
H5    H     H_    0.806857 0.063691 0.673492 0.250109
H6    H     H_    0.716537 0.948086 0.703137 0.241555
H7    H     H_    0.810382 0.943052 0.585887 0.256055
H8    H     H_    0.246354 0.822323 0.304625 0.238327
H9    H     H_    0.319147 0.696950 0.340008 0.264917
H10   H     H_    0.195539 0.763177 0.421562 0.241376
H11   H     H_    0.795776 0.335041 0.854024 0.252690
H12   H     H_    0.479169 0.361822 0.828733 0.208439
H13   H     H_    0.913651 0.383856 0.941945 0.255481
H14   H     H_    0.795207 0.480359 0.894599 0.249507
H15   H     H_    0.118261 0.456468 0.940218 0.243084
H16   H     H_    0.120713 0.309993 0.899590 0.266330
H17   H     H_    0.244948 0.393592 0.862428 0.246097
H18   H     H_    0.683697 0.215233 0.614955 0.156351
H19   H     H_    0.640205 0.815229 0.570003 0.153447
H20   H     H_    0.768253 0.457051 0.690422 0.154960
H21   H     H_    0.234145 0.444320 0.692766 0.146126
H22   H     H_    0.117188 0.548419 0.350523 0.146099
H23   H     H_    0.483563 0.293986 0.182749 0.238104
H24   H     H_    0.566831 0.726498 0.997796 0.205960
N1    N     N_R   0.523130 0.207800 0.519340 -0.152800
N2    N     N_R   0.476870 0.792180 0.480660 -0.108220
O1    O     O_R   0.506170 0.421690 0.658830 -0.638794
O2    O     O_R   0.491330 0.609320 0.646410 -0.620335
O3    O     O_R   0.690660 0.406170 0.506210 -0.621290
O4    O     O_R   0.675810 0.593790 0.493790 -0.615659
O5    O     O_R   0.508670 0.390680 0.353590 -0.588521
O6    O     O_R   0.493830 0.578310 0.341170 -0.590137
O7    O     O_R   0.324190 0.406210 0.506210 -0.570535
O8    O     O_R   0.309340 0.593830 0.493790 -0.636540
Zn1   Zn    Zn3+2 0.509910 0.374720 0.508290 0.997318
Zn2   Zn    Zn3+2 0.490090 0.625280 0.491710 0.969865

loop_
_geom_bond_atom_site_label_1
_geom_bond_atom_site_label_2
_ccdc_geom_bond_type
C17   N1    A    
O2    Zn2   S    
N2    Zn2   S    
O5    Zn1   S    
C25   C26   A    
C27   H2    S    
C31   H17   S    
C24   C25   A    
C15   C17   A    
C8    H23   S    
C12   C26   A    
C4    O3    A    
C26   C34   A    
C14   C15   A    
C5    C9    A    
C18   N1    A    
C1    O2    A    
C2    H1    S    
C22   C30   S    
C24   C31   S    
C2    C37   A    
C20   C34   S    
C3    C36   A    
C5    C6    A    
C12   C23   A    
N1    Zn1   S    
C30   H14   S    
C6    C37   A    
C28   H7    S    
C28   H5    S    
C1    O1    A    
C33   H22   S    
C18   C19   A    
C13   N2    A    
C27   H3    S    
C14   C19   A    
C18   H18   S    
C16   C35   S    
C37   H24   S    
C29   H9    S    
C29   H10   S    
C33   C34   A    
C11   N2    A    
Br2   C17   S    
C13   C14   A    
C21   H20   S    
Br4   C7    S    
C7    C35   A    
O8    Zn2   S    
Br3   C10   S    
O7    Zn1   S    
C30   H13   S    
O3    Zn1   S    
C28   H6    S    
C2    C36   A    
Br1   C9    S    
C3    H12   S    
O4    Zn2   S    
C12   C21   A    
C3    C5    A    
C25   H21   S    
C32   C33   A    
C4    O4    A    
C31   H15   S    
C10   C11   A    
C22   C24   A    
C10   C15   A    
C20   O8    A    
C23   C32   A    
O1    Zn1   S    
C30   H11   S    
C31   H16   S    
C19   C28   S    
C8    C35   A    
C21   C22   A    
C20   O7    A    
C16   O6    A    
C6    C7    A    
C13   H19   S    
C8    C9    A    
C27   H4    S    
C1    C36   S    
C4    C23   S    
O6    Zn2   S    
C27   C32   S    
C16   O5    A    
C29   H8    S    
C11   C29   S    
