data_mof_unit_31818.cif
_audit_creation_date              2012-12-11T16:26:21-0500
_audit_creation_method            fapswitch 2.2
_symmetry_space_group_name_H-M    P1
_symmetry_Int_Tables_number       1
_space_group_crystal_system       monoclinic
_cell_length_a                    14.011581
_cell_length_b                    14.011581
_cell_length_c                    31.941977
_cell_angle_alpha                 90.0
_cell_angle_beta                  90.0
_cell_angle_gamma                 120.000253
_cell_volume                      5430.82240054

loop_
_atom_site_label
_atom_site_type_symbol
_atom_type_description
_atom_site_fract_x
_atom_site_fract_y
_atom_site_fract_z
_atom_type_partial_charge
C1    C     C_R   0.567391 0.444264 0.810367 0.515127
C2    C     C_R   0.876873 0.432609 0.689633 0.515126
C3    C     C_R   0.555735 0.123127 0.810367 0.515126
C4    C     C_R   0.567391 0.444264 0.689633 0.515128
C5    C     C_R   0.876873 0.432609 0.810367 0.515126
C6    C     C_R   0.555735 0.123127 0.689633 0.515127
C7    C     C_R   0.444264 0.567391 0.310367 0.515127
C8    C     C_R   0.432609 0.876873 0.189633 0.515126
C9    C     C_R   0.123127 0.555735 0.310367 0.515126
C10   C     C_R   0.444264 0.567391 0.189633 0.515128
C11   C     C_R   0.432609 0.876873 0.310367 0.515126
C12   C     C_R   0.123127 0.555735 0.189633 0.515126
C13   C     C_1   0.006492 0.538131 0.018608 -0.018070
C14   C     C_1   0.531639 0.993507 0.481392 -0.018070
C15   C     C_1   0.461869 0.468361 0.018608 -0.018071
C16   C     C_1   0.006492 0.538131 0.481392 -0.018070
C17   C     C_1   0.531639 0.993508 0.018608 -0.018070
C18   C     C_1   0.461869 0.468361 0.481392 -0.018070
C19   C     C_1   0.538131 0.006492 0.518608 -0.018070
C20   C     C_1   0.993508 0.531639 0.981392 -0.018070
C21   C     C_1   0.468361 0.461869 0.518608 -0.018070
C22   C     C_1   0.538131 0.006492 0.981392 -0.018070
C23   C     C_1   0.993508 0.531639 0.518608 -0.018070
C24   C     C_1   0.468361 0.461869 0.981392 -0.018071
C25   C     C_R   0.928275 0.468017 0.852060 -0.018723
C26   C     C_R   0.539741 0.071724 0.647940 -0.018723
C27   C     C_R   0.531983 0.460258 0.852060 -0.018724
C28   C     C_R   0.928275 0.468017 0.647940 -0.018724
C29   C     C_R   0.539742 0.071725 0.852060 -0.018723
C30   C     C_R   0.531982 0.460258 0.647940 -0.018724
C31   C     C_R   0.468017 0.928275 0.352060 -0.018724
C32   C     C_R   0.071725 0.539742 0.147940 -0.018722
C33   C     C_R   0.460258 0.531983 0.352060 -0.018724
C34   C     C_R   0.468017 0.928275 0.147940 -0.018723
C35   C     C_R   0.071725 0.539741 0.352060 -0.018723
C36   C     C_R   0.460258 0.531982 0.147940 -0.018724
C37   C     C_R   0.974313 0.578076 0.866829 -0.003215
C38   C     C_R   0.603762 0.025686 0.633171 -0.003215
C39   C     C_R   0.421924 0.396236 0.866829 -0.003216
C40   C     C_R   0.974313 0.578076 0.633171 -0.003215
C41   C     C_R   0.603760 0.025685 0.866828 -0.003215
C42   C     C_R   0.421924 0.396236 0.633171 -0.003216
C43   C     C_R   0.578076 0.974313 0.366829 -0.003215
C44   C     C_R   0.025685 0.603760 0.133172 -0.003215
C45   C     C_R   0.396236 0.421924 0.366829 -0.003215
C46   C     C_R   0.578076 0.974314 0.133171 -0.003215
C47   C     C_R   0.025686 0.603762 0.366828 -0.003215
C48   C     C_R   0.396236 0.421924 0.133171 -0.003216
C49   C     C_R   0.996732 0.599113 0.909881 -0.076752
C50   C     C_R   0.602380 0.003267 0.590119 -0.076753
C51   C     C_R   0.400887 0.397618 0.909881 -0.076753
C52   C     C_R   0.996732 0.599113 0.590119 -0.076753
C53   C     C_R   0.602379 0.003266 0.909881 -0.076752
C54   C     C_R   0.400887 0.397618 0.590119 -0.076753
C55   C     C_R   0.599113 0.996732 0.409881 -0.076752
C56   C     C_R   0.003266 0.602379 0.090119 -0.076752
C57   C     C_R   0.397618 0.400887 0.409881 -0.076752
C58   C     C_R   0.599113 0.996732 0.090119 -0.076752
C59   C     C_R   0.003268 0.602380 0.409881 -0.076752
C60   C     C_R   0.397617 0.400887 0.090119 -0.076753
C61   C     C_R   0.976376 0.513350 0.937349 0.005724
C62   C     C_R   0.536974 0.023624 0.562651 0.005724
C63   C     C_R   0.486650 0.463026 0.937349 0.005724
C64   C     C_R   0.976376 0.513350 0.562651 0.005724
C65   C     C_R   0.536974 0.023625 0.937349 0.005724
C66   C     C_R   0.486650 0.463026 0.562651 0.005724
C67   C     C_R   0.513350 0.976375 0.437349 0.005724
C68   C     C_R   0.023625 0.536975 0.062651 0.005724
C69   C     C_R   0.463026 0.486650 0.437349 0.005724
C70   C     C_R   0.513350 0.976375 0.062651 0.005724
C71   C     C_R   0.023624 0.536974 0.437349 0.005724
C72   C     C_R   0.463026 0.486650 0.062651 0.005724
C73   C     C_R   0.938446 0.407189 0.922255 -0.112042
C74   C     C_R   0.468742 0.061553 0.577745 -0.112042
C75   C     C_R   0.592811 0.531259 0.922254 -0.112042
C76   C     C_R   0.938448 0.407189 0.577746 -0.112042
C77   C     C_R   0.468745 0.061557 0.922255 -0.112042
C78   C     C_R   0.592811 0.531259 0.577746 -0.112042
C79   C     C_R   0.407189 0.938446 0.422254 -0.112042
C80   C     C_R   0.061557 0.468745 0.077745 -0.112042
C81   C     C_R   0.531258 0.592811 0.422254 -0.112042
C82   C     C_R   0.407189 0.938445 0.077745 -0.112042
C83   C     C_R   0.061554 0.468743 0.422255 -0.112042
C84   C     C_R   0.531260 0.592811 0.077746 -0.112042
C85   C     C_R   0.914745 0.384628 0.880066 -0.115329
C86   C     C_R   0.469883 0.085255 0.619934 -0.115329
C87   C     C_R   0.615372 0.530118 0.880065 -0.115328
C88   C     C_R   0.914746 0.384628 0.619934 -0.115329
C89   C     C_R   0.469885 0.085258 0.880066 -0.115328
C90   C     C_R   0.615371 0.530118 0.619935 -0.115328
C91   C     C_R   0.384628 0.914745 0.380066 -0.115329
C92   C     C_R   0.085258 0.469885 0.119934 -0.115328
C93   C     C_R   0.530118 0.615372 0.380066 -0.115329
C94   C     C_R   0.384628 0.914744 0.119934 -0.115329
C95   C     C_R   0.085256 0.469883 0.380066 -0.115329
C96   C     C_R   0.530119 0.615371 0.119935 -0.115328
Cr1   Cr    Cr6+3 0.504240 0.249200 0.750000 1.049994
Cr2   Cr    Cr6+3 0.744960 0.495760 0.750000 1.049994
Cr3   Cr    Cr6+3 0.750800 0.255040 0.750000 1.049993
Cr4   Cr    Cr6+3 0.249200 0.504240 0.250000 1.049994
Cr5   Cr    Cr6+3 0.495760 0.744960 0.250000 1.049994
Cr6   Cr    Cr6+3 0.255040 0.750800 0.250000 1.049993
H1    H     H_    0.970303 0.652168 0.077876 0.164914
H2    H     H_    0.681865 0.029693 0.422124 0.164914
H3    H     H_    0.347826 0.318135 0.077875 0.164914
H4    H     H_    0.970306 0.652170 0.422124 0.164914
H5    H     H_    0.681865 0.029694 0.077876 0.164914
H6    H     H_    0.347827 0.318135 0.422124 0.164914
H7    H     H_    0.652171 0.970306 0.577876 0.164914
H8    H     H_    0.029693 0.681865 0.922124 0.164914
H9    H     H_    0.318135 0.347826 0.577875 0.164914
H10   H     H_    0.652168 0.970303 0.922124 0.164915
H11   H     H_    0.029692 0.681865 0.577876 0.164914
H12   H     H_    0.318135 0.347826 0.922124 0.164914
O1    O     O_R   0.480350 0.140770 0.796330 -0.494277
O2    O     O_R   0.660420 0.519650 0.703670 -0.494277
O3    O     O_R   0.859230 0.339580 0.796330 -0.494277
O4    O     O_R   0.480350 0.140770 0.703670 -0.494277
O5    O     O_R   0.660420 0.519650 0.796330 -0.494277
O6    O     O_R   0.859230 0.339580 0.703670 -0.494277
O7    O     O_R   0.140770 0.480350 0.296330 -0.494277
O8    O     O_R   0.519650 0.660420 0.203670 -0.494277
O9    O     O_R   0.339580 0.859230 0.296330 -0.494277
O10   O     O_R   0.140770 0.480350 0.203670 -0.494276
O11   O     O_R   0.519650 0.660420 0.296330 -0.494277
O12   O     O_R   0.339580 0.859230 0.203670 -0.494277
O13   O     O_R   0.514930 0.348530 0.793250 -0.511433
O14   O     O_R   0.833600 0.485070 0.706750 -0.511433
O15   O     O_R   0.651470 0.166400 0.793250 -0.511432
O16   O     O_R   0.514930 0.348530 0.706750 -0.511432
O17   O     O_R   0.833600 0.485070 0.793250 -0.511432
O18   O     O_R   0.651470 0.166400 0.706750 -0.511432
O19   O     O_R   0.348530 0.514930 0.293250 -0.511433
O20   O     O_R   0.485070 0.833600 0.206750 -0.511433
O21   O     O_R   0.166400 0.651470 0.293250 -0.511432
O22   O     O_R   0.348530 0.514930 0.206750 -0.511433
O23   O     O_R   0.485070 0.833600 0.293250 -0.511433
O24   O     O_R   0.166400 0.651470 0.206750 -0.511432
O25   O     O_3   0.666667 0.333333 0.750000 -0.234852
O26   O     O_3   0.333333 0.666667 0.250000 -0.234852
C97   C     C_2   0.001843 0.671520 0.838012 0.245894
H13   H     H_    0.004639 0.661567 0.804457 0.120416
O27   O     O_2   0.023730 0.761809 0.851481 -0.483938
C98   C     C_2   0.669675 0.998156 0.661988 0.245894
H14   H     H_    0.656927 0.995361 0.695543 0.120417
O28   O     O_2   0.738077 0.976269 0.648519 -0.483938
C99   C     C_2   0.328480 0.330321 0.838012 0.245894
H15   H     H_    0.338433 0.343069 0.804457 0.120417
O29   O     O_2   0.238192 0.261918 0.851482 -0.483938
C100  C     C_2   0.001842 0.671520 0.661988 0.245894
H16   H     H_    0.004638 0.661567 0.695543 0.120417
O30   O     O_2   0.023728 0.761808 0.648518 -0.483938
C101  C     C_2   0.669671 0.998153 0.838011 0.245894
H17   H     H_    0.656923 0.995359 0.804456 0.120416
O31   O     O_2   0.738071 0.976262 0.851481 -0.483939
C102  C     C_2   0.328480 0.330321 0.661988 0.245894
H18   H     H_    0.338433 0.343069 0.695543 0.120417
O32   O     O_2   0.238192 0.261917 0.648518 -0.483938
C103  C     C_2   0.671520 0.001843 0.338012 0.245894
H19   H     H_    0.661567 0.004638 0.304457 0.120416
O33   O     O_2   0.761808 0.023729 0.351482 -0.483938
C104  C     C_2   0.998152 0.669671 0.161989 0.245894
H20   H     H_    0.995359 0.656923 0.195544 0.120416
O34   O     O_2   0.976262 0.738071 0.148519 -0.483938
C105  C     C_2   0.330322 0.328480 0.338012 0.245894
H21   H     H_    0.343070 0.338433 0.304457 0.120417
O35   O     O_2   0.261919 0.238191 0.351482 -0.483938
C106  C     C_2   0.671520 0.001844 0.161988 0.245894
H22   H     H_    0.661567 0.004639 0.195543 0.120416
O36   O     O_2   0.761809 0.023732 0.148518 -0.483938
C107  C     C_2   0.998156 0.669674 0.338012 0.245894
H23   H     H_    0.995361 0.656926 0.304456 0.120416
O37   O     O_2   0.976269 0.738076 0.351481 -0.483938
C108  C     C_2   0.330320 0.328480 0.161988 0.245894
H24   H     H_    0.343068 0.338432 0.195543 0.120417
O38   O     O_2   0.261916 0.238192 0.148518 -0.483938
H25   H     H_    0.120427 0.420284 0.130116 0.164558
H26   H     H_    0.299858 0.879578 0.369883 0.164558
H27   H     H_    0.579723 0.700141 0.130117 0.164559
H28   H     H_    0.120423 0.420281 0.369883 0.164558
H29   H     H_    0.299858 0.879576 0.130117 0.164557
H30   H     H_    0.579722 0.700142 0.369883 0.164559
H31   H     H_    0.420280 0.120422 0.630117 0.164559
H32   H     H_    0.879578 0.299858 0.869883 0.164557
H33   H     H_    0.700141 0.579723 0.630117 0.164559
H34   H     H_    0.420284 0.120427 0.869884 0.164558
H35   H     H_    0.879579 0.299858 0.630117 0.164558
H36   H     H_    0.700141 0.579723 0.869883 0.164559
H37   H     H_    0.076209 0.416903 0.056592 0.131290
H38   H     H_    0.340694 0.923796 0.443408 0.131290
H39   H     H_    0.583105 0.659305 0.056593 0.131291
H40   H     H_    0.076205 0.416899 0.443408 0.131291
H41   H     H_    0.340694 0.923794 0.056592 0.131290
H42   H     H_    0.583104 0.659306 0.443408 0.131291
H43   H     H_    0.416898 0.076203 0.556592 0.131291
H44   H     H_    0.923796 0.340695 0.943408 0.131290
H45   H     H_    0.659305 0.583105 0.556593 0.131291
H46   H     H_    0.416903 0.076209 0.943408 0.131290
H47   H     H_    0.923798 0.340695 0.556592 0.131291
H48   H     H_    0.659305 0.583105 0.943407 0.131291

loop_
_geom_bond_atom_site_label_1
_geom_bond_atom_site_label_2
_ccdc_geom_bond_type
C68   C80   A    
C39   C51   A    
C107  H23   S    
C105  H21   S    
C82   C94   A    
C21   C66   S    
C18   C21   T    
C33   C45   A    
C89   H34   S    
C99   H15   S    
Cr1   O13   S    
C35   C47   A    
C59   C71   A    
C29   C89   A    
C4    C30   S    
Cr2   O5    S    
C32   C92   A    
C75   H48   S    
C78   C90   A    
C15   C72   S    
C107  O37   D    
C40   C100  S    
C45   C57   A    
C54   C66   A    
C37   C97   S    
Cr3   O18   S    
C102  H18   S    
C99   O29   D    
C10   O22   A    
Cr1   O16   S    
Cr4   O7    S    
C43   C103  S    
C97   O27   D    
Cr6   O24   S    
C75   C87   A    
C24   C63   S    
C60   C72   A    
C19   C62   S    
C91   H26   S    
Cr1   O4    S    
C37   C49   A    
C55   C67   A    
C84   H39   S    
C58   H5    S    
C80   H37   S    
C20   C61   S    
C3    C29   S    
C44   C56   A    
C108  H24   S    
C82   H41   S    
Cr4   O26   S    
C25   C37   A    
Cr3   O6    S    
Cr6   O21   S    
Cr2   O2    S    
C15   C24   T    
C88   H35   S    
C27   C39   A    
C79   H38   S    
Cr2   O17   S    
C28   C88   A    
C9    O7    A    
C14   C67   S    
C103  O33   D    
C34   C46   A    
C78   H45   S    
Cr1   O1    S    
C53   C65   A    
C77   H46   S    
C76   C88   A    
C48   C108  S    
C30   C90   A    
C18   C69   S    
Cr2   O14   S    
C81   H42   S    
C11   C31   S    
C17   C70   S    
C105  O35   D    
C12   C32   S    
C38   C98   S    
C7    C33   S    
Cr3   O25   S    
C16   C71   S    
C44   C104  S    
Cr5   O26   S    
C48   C60   A    
C41   C101  S    
C32   C44   A    
C66   C78   A    
C11   O9    A    
C59   H4    S    
C49   C61   A    
Cr3   O15   S    
C8    O20   A    
C51   H12   S    
C1    O13   A    
C83   H40   S    
C51   C63   A    
C98   O28   D    
C52   C64   A    
C95   H28   S    
Cr5   O23   S    
C58   C70   A    
Cr6   O26   S    
C6    O18   A    
C61   C73   A    
Cr5   O20   S    
C55   H2    S    
C50   H7    S    
C7    O11   A    
C5    O3    A    
Cr4   O10   S    
C80   C92   A    
C42   C102  S    
C3    O1    A    
C22   C65   S    
C1    O5    A    
Cr4   O19   S    
Cr3   O3    S    
C65   C77   A    
C81   C93   A    
C93   H30   S    
C36   C96   A    
Cr5   O11   S    
C103  H19   S    
C12   O10   A    
C26   C86   A    
C62   C74   A    
C77   C89   A    
C25   C85   A    
C64   C76   A    
C67   C79   A    
C8    C34   S    
C83   C95   A    
C74   C86   A    
C27   C87   A    
C41   C53   A    
C72   C84   A    
C31   C43   A    
C69   C81   A    
C5    C25   S    
C9    O21   A    
C53   H10   S    
C43   C55   A    
C106  H22   S    
C94   H29   S    
C16   C23   T    
C31   C91   A    
C86   H31   S    
C50   C62   A    
C100  O30   D    
C101  O31   D    
Cr6   O9    S    
C84   C96   A    
C4    O16   A    
C1    C27   S    
C104  H20   S    
C73   C85   A    
C8    O12   A    
C74   H43   S    
C23   C64   S    
C2    O6    A    
C13   C20   T    
C29   C41   A    
C3    O15   A    
C79   C91   A    
C14   C19   T    
C4    O2    A    
C26   C38   A    
C34   C94   A    
C56   H1    S    
C98   H14   S    
Cr6   O12   S    
C76   H47   S    
C33   C93   A    
C47   C107  S    
C7    O19   A    
C87   H36   S    
C38   C50   A    
C90   H33   S    
C35   C95   A    
C85   H32   S    
Cr5   O8    S    
Cr2   O25   S    
C56   C68   A    
C102  O32   D    
C46   C106  S    
C104  O34   D    
C40   C52   A    
C97   H13   S    
C42   C54   A    
C6    C26   S    
C63   C75   A    
C52   H11   S    
C106  O36   D    
C10   C36   S    
C54   H9    S    
C36   C48   A    
C12   O24   A    
C96   H27   S    
C11   O23   A    
C70   C82   A    
C108  O38   D    
C2    C28   S    
C92   H25   S    
C47   C59   A    
C10   O8    A    
C5    O17   A    
C57   H6    S    
C17   C22   T    
C73   H44   S    
C39   C99   S    
C9    C35   S    
C28   C40   A    
C100  H16   S    
C30   C42   A    
C71   C83   A    
C57   C69   A    
C101  H17   S    
C45   C105  S    
Cr1   O25   S    
C46   C58   A    
C60   H3    S    
Cr4   O22   S    
C6    O4    A    
C49   H8    S    
C13   C68   S    
C2    O14   A    
