data_mof_unit_27270.cif
_audit_creation_date              2012-12-10T18:11:53-0500
_audit_creation_method            fapswitch 2.2
_symmetry_space_group_name_H-M    P1
_symmetry_Int_Tables_number       1
_space_group_crystal_system       triclinic
_cell_length_a                    15.839029
_cell_length_b                    10.740864
_cell_length_c                    9.468168
_cell_angle_alpha                 89.874904
_cell_angle_beta                  89.012722
_cell_angle_gamma                 90.276635
_cell_volume                      1610.50868537

loop_
_atom_site_label
_atom_site_type_symbol
_atom_type_description
_atom_site_fract_x
_atom_site_fract_y
_atom_site_fract_z
_atom_type_partial_charge
C1    C     C_R   0.499089 0.260035 0.500288 0.830609
C2    C     C_3   0.082866 0.498146 0.501835 0.147460
C3    C     C_3   0.970428 0.570831 0.605434 -0.177331
C4    C     C_3   0.917378 0.499369 0.497839 0.150832
C5    C     C_3   0.028999 0.614850 0.482883 0.200681
C6    C     C_3   0.974524 0.544252 0.375140 -0.175421
C7    C     C_1   0.174582 0.497753 0.503301 -0.028161
C8    C     C_1   0.825612 0.499659 0.496515 -0.063422
C9    C     C_3   0.481026 0.072984 0.654733 -0.440001
C10   C     C_3   0.483352 0.928999 0.656439 0.390833
C11   C     C_3   0.425961 0.072721 0.403589 0.361437
C12   C     C_R   0.339934 0.499339 0.501032 0.853926
C13   C     C_3   0.582950 0.071580 0.446811 -0.493345
C14   C     C_3   0.496910 0.122014 0.501526 0.040966
C15   C     C_3   0.495331 0.877899 0.502173 0.024209
C16   C     C_3   0.424515 0.928060 0.406402 -0.424934
C17   C     C_3   0.581004 0.927984 0.442386 -0.506854
C18   C     C_3   0.556141 0.601903 0.082434 -0.249266
C19   C     C_3   0.558479 0.600699 0.914663 -0.339710
C20   C     C_3   0.532697 0.380393 0.082273 0.532549
C21   C     C_3   0.415933 0.522222 0.090140 -0.356937
C22   C     C_3   0.534904 0.384112 0.913454 -0.301375
C23   C     C_R   0.497306 0.739896 0.500392 0.807500
C24   C     C_3   0.415583 0.529637 0.924672 0.503170
C25   C     C_R   0.660109 0.499959 0.498947 0.826049
C26   C     C_3   0.970957 0.381934 0.516898 -0.147478
C27   C     C_3   0.029696 0.426810 0.394333 -0.191248
C28   C     C_1   0.250196 0.498285 0.503138 -0.133981
C29   C     C_1   0.749944 0.499819 0.496779 -0.194843
C30   C     C_3   0.025599 0.453375 0.624383 -0.181503
Cu1   Cu    Cu3+1 0.500040 0.499860 0.642410 0.948897
Cu2   Cu    Cu3+1 0.499960 0.500140 0.357590 0.941321
H1    H     H_    0.055385 0.367536 0.307991 0.141374
H2    H     H_    0.361988 0.890959 0.440817 0.192232
H3    H     H_    0.597523 0.108448 0.339099 0.211247
H4    H     H_    0.634397 0.103368 0.517009 0.183249
H5    H     H_    0.634230 0.890555 0.504667 0.169365
H6    H     H_    0.590820 0.896357 0.331413 0.197100
H7    H     H_    0.443093 0.103077 0.293492 0.080174
H8    H     H_    0.434439 0.893660 0.296542 0.136957
H9    H     H_    0.621060 0.595702 0.123783 0.180519
H10   H     H_    0.945671 0.286029 0.530789 0.142984
H11   H     H_    0.532299 0.694036 0.118122 0.154021
H12   H     H_    0.540482 0.694269 0.875406 0.179064
H13   H     H_    0.624385 0.586364 0.876050 0.170643
H14   H     H_    0.597867 0.368463 0.864714 0.163494
H15   H     H_    0.371934 0.449448 0.130496 0.170993
H16   H     H_    0.391018 0.610904 0.134711 0.158192
H17   H     H_    0.401981 0.629277 0.901454 0.128732
H18   H     H_    0.484898 0.307932 0.110099 0.050526
H19   H     H_    0.952362 0.581855 0.273031 0.145888
H20   H     H_    0.499268 0.303321 0.874522 0.122494
H21   H     H_    0.944892 0.630318 0.691703 0.146532
H22   H     H_    0.047882 0.416028 0.726537 0.145994
H23   H     H_    0.421438 0.112269 0.696455 0.181821
H24   H     H_    0.531278 0.108371 0.725361 0.131426
H25   H     H_    0.542988 0.905686 0.711217 0.092316
N1    N     N_3   0.501840 0.500250 0.143650 -0.166849
N2    N     N_3   0.501160 0.503300 0.856280 -0.166350
O1    O     O_R   0.500050 0.317570 0.620260 -0.610883
O2    O     O_R   0.499980 0.317810 0.379740 -0.564010
O3    O     O_R   0.379110 0.499870 0.620240 -0.508736
O4    O     O_R   0.379040 0.500110 0.379720 -0.608550
O5    O     O_R   0.500020 0.682190 0.620260 -0.561442
O6    O     O_R   0.499950 0.682430 0.379740 -0.607096
O7    O     O_R   0.620960 0.499890 0.620280 -0.598988
O8    O     O_R   0.620890 0.500130 0.379760 -0.532410
O9    O     O_3   0.419589 0.864587 0.737565 -0.591580
C31   C     C_3   0.339276 0.920613 0.744915 -0.308291
H26   H     H_    0.320335 0.965416 0.645464 0.216613
H27   H     H_    0.336834 0.988388 0.833287 0.151572
H28   H     H_    0.291760 0.847085 0.769141 0.198394
O10   O     O_3   0.346731 0.120876 0.449153 -0.600023
C32   C     C_3   0.294392 0.142771 0.332744 -0.347955
H29   H     H_    0.286199 0.057136 0.268356 0.170484
H30   H     H_    0.320053 0.220171 0.266272 0.154308
H31   H     H_    0.231163 0.171237 0.372800 0.205497
O11   O     O_3   0.606040 0.339041 0.154405 -0.548936
C33   C     C_3   0.683091 0.345072 0.078007 -0.357469
H32   H     H_    0.693328 0.435790 0.024376 0.148224
H33   H     H_    0.687807 0.266221 0.002630 0.150530
H34   H     H_    0.735190 0.334113 0.153775 0.196859
O12   O     O_3   0.344090 0.468324 0.866927 -0.559611
C34   C     C_3   0.340195 0.337731 0.881655 -0.279033
H35   H     H_    0.368495 0.300399 0.978515 0.082170
H36   H     H_    0.367871 0.293521 0.786496 0.195814
H37   H     H_    0.272708 0.309749 0.885643 0.173161
I1    I     I_    0.076497 0.800104 0.456387 -0.457383

loop_
_geom_bond_atom_site_label_1
_geom_bond_atom_site_label_2
_ccdc_geom_bond_type
Cu1   O7    S    
C3    C30   S    
O10   C32   S    
C2    C7    S    
C25   O8    A    
C34   H37   S    
Cu2   N1    S    
C4    C8    S    
C27   H1    S    
C30   H22   S    
C26   C27   S    
C32   H30   S    
C12   C28   S    
C8    C29   T    
C24   O12   S    
C34   H36   S    
Cu2   O2    S    
C13   H3    S    
C10   C15   S    
C5    C6    S    
C11   C14   S    
C15   C16   S    
C18   C19   S    
Cu1   N2    S    
C31   H27   S    
C20   H18   S    
C16   H2    S    
C5    I1    S    
C18   N1    S    
C6    C27   S    
O9    C31   S    
C32   H31   S    
C2    C27   S    
C9    H23   S    
C6    H19   S    
C9    C10   S    
C21   H16   S    
C15   C23   S    
C13   C14   S    
Cu1   O3    S    
C25   C29   S    
C32   H29   S    
C10   H25   S    
C34   H35   S    
C13   H4    S    
C4    C6    S    
C11   O10   S    
C1    O1    A    
C22   N2    S    
C33   H33   S    
C12   O4    A    
O11   C33   S    
C19   N2    S    
C7    C28   T    
Cu1   O1    S    
C31   H28   S    
C9    C14   S    
C12   O3    A    
C11   C16   S    
O12   C34   S    
C9    H24   S    
C17   H5    S    
C11   H7    S    
C16   H8    S    
Cu2   O8    S    
C23   O5    A    
C22   H14   S    
C20   C22   S    
C26   C30   S    
C18   H9    S    
C2    C5    S    
C20   N1    S    
C3    C4    S    
C19   H12   S    
C26   H10   S    
C22   H20   S    
C24   H17   S    
C15   C17   S    
Cu1   O5    S    
Cu1   Cu2   S    
C25   O7    A    
Cu2   O4    S    
C3    C5    S    
C1    O2    A    
C33   H34   S    
C4    C26   S    
C19   H13   S    
C10   O9    S    
C13   C17   S    
C2    C30   S    
C23   O6    A    
C21   N1    S    
C18   H11   S    
C3    H21   S    
C20   O11   S    
C24   N2    S    
C17   H6    S    
C31   H26   S    
C33   H32   S    
C21   C24   S    
C1    C14   S    
Cu2   O6    S    
C21   H15   S    
