data_mof_unit_53693.cif
_audit_creation_date              2013-03-05T15:59:21-0500
_audit_creation_method            fapswitch 2.2
_symmetry_space_group_name_H-M    P1
_symmetry_Int_Tables_number       1
_space_group_crystal_system       triclinic
_cell_length_a                    10.515991
_cell_length_b                    12.599926
_cell_length_c                    13.21097
_cell_angle_alpha                 82.164824
_cell_angle_beta                  90.927356
_cell_angle_gamma                 101.456562
_cell_volume                      1699.4628135

loop_
_atom_site_label
_atom_site_type_symbol
_atom_site_description
_atom_site_fract_x
_atom_site_fract_y
_atom_site_fract_z
_atom_type_partial_charge
O1    O     O_R   0.467970 0.366730 0.627150 -0.617812
O2    O     O_R   0.510820 0.544830 0.662520 -0.621243
C1    C     C_R   0.479445 0.439187 0.691036 0.859945
O3    O     O_R   0.664630 0.410960 0.482340 -0.614061
O4    O     O_R   0.707470 0.589060 0.517710 -0.588590
C2    C     C_R   0.741701 0.500579 0.498200 0.951170
Zn1   Zn    Zn3+2 0.471390 0.381080 0.476380 0.972529
Zn2   Zn    Zn3+2 0.528610 0.618920 0.523620 0.970521
O5    O     O_R   0.489180 0.455170 0.337480 -0.631274
O6    O     O_R   0.532030 0.633270 0.372850 -0.609734
O7    O     O_R   0.292530 0.410940 0.482290 -0.609656
O8    O     O_R   0.335370 0.589040 0.517660 -0.654130
C3    C     C_R   0.514548 0.561081 0.309189 0.889557
C4    C     C_R   0.258192 0.499945 0.501106 0.869095
C5    C     C_3   0.937251 0.407178 0.468848 -0.100586
C6    C     C_3   0.022111 0.415232 0.565684 -0.135532
H1    H     H_    0.043750 0.345849 0.619954 0.184591
H2    H     H_    0.882374 0.331473 0.442848 0.241838
C7    C     C_3   0.123637 0.501676 0.501464 -0.095259
C8    C     C_3   0.041557 0.493267 0.404602 -0.248344
C9    C     C_3   0.979308 0.585231 0.434336 0.306830
C10   C     C_3   0.062797 0.594997 0.529470 -0.089514
C11   C     C_3   0.959983 0.509105 0.592414 -0.083447
C12   C     C_3   0.876525 0.500881 0.496998 -0.163078
H3    H     H_    0.078598 0.487753 0.327647 0.171640
C13   C     C_R   0.468260 0.722824 0.057170 -0.176138
H4    H     H_    0.485019 0.760932 0.210592 0.163782
H5    H     H_    0.373393 0.723277 0.869717 0.158015
H6    H     H_    0.438380 0.798737 0.028342 0.151118
C14   C     C_R   0.518335 0.598472 0.200372 -0.036274
C15   C     C_R   0.508381 0.303391 0.837612 -0.230376
C16   C     C_R   0.567712 0.290179 0.931947 0.010848
C17   C     C_R   0.587535 0.376012 0.991884 -0.058937
C18   C     C_R   0.522892 0.466039 0.965821 0.021253
C19   C     C_R   0.464982 0.478295 0.868834 0.082106
C20   C     C_R   0.514177 0.545151 0.031021 0.084739
C21   C     C_R   0.470005 0.642500 0.993571 0.164207
C22   C     C_R   0.415449 0.652962 0.897250 -0.231645
C23   C     C_R   0.404098 0.568132 0.839200 -0.167516
C24   C     C_R   0.530572 0.522994 0.135548 -0.236982
C25   C     C_R   0.494478 0.701375 0.160747 -0.153615
C26   C     C_R   0.473558 0.402828 0.801119 -0.129160
H7    H     H_    0.538694 0.441855 0.169064 0.171387
H8    H     H_    0.502354 0.240684 0.788576 0.178835
H9    H     H_    0.348375 0.574274 0.769745 0.166649
C27   C     C_R   0.324682 0.092104 0.342536 -0.260450
H10   H     H_    0.295574 0.256792 0.332848 0.149289
H11   H     H_    0.290667 0.885076 0.313302 0.198391
H12   H     H_    0.252245 0.070673 0.285563 0.171053
N1    N     N_R   0.432930 0.222190 0.444670 -0.132899
C28   C     C_R   0.667264 0.801031 0.618314 -0.071886
C29   C     C_R   0.733906 0.908501 0.615969 -0.161103
C30   C     C_R   0.689043 0.992298 0.551796 0.273271
C31   C     C_R   0.564830 0.967099 0.506178 -0.116060
C32   C     C_R   0.515335 0.856214 0.497443 0.206381
C33   C     C_R   0.492198 0.046296 0.462411 0.008050
C34   C     C_R   0.394232 0.015951 0.390408 0.168139
C35   C     C_R   0.363606 0.908755 0.369229 -0.232391
C36   C     C_R   0.419896 0.829255 0.424922 -0.154079
C37   C     C_R   0.503662 0.151367 0.492559 0.083387
C38   C     C_R   0.347291 0.196346 0.369981 0.016033
N2    N     N_R   0.566370 0.776980 0.554790 -0.131076
H13   H     H_    0.705510 0.734814 0.661014 0.166232
H14   H     H_    0.388159 0.747665 0.408464 0.204993
C39   C     C_1   0.688263 0.377103 0.068457 0.180142
N3    N     N_1   0.768861 0.377785 0.129259 -0.157454
C40   C     C_1   0.618395 0.191878 0.961208 0.191948
N4    N     N_1   0.658872 0.113184 0.984586 -0.171250
C41   C     C_1   0.579626 0.183948 0.578869 0.267802
N5    N     N_1   0.641992 0.209895 0.647649 -0.185008
N6    N     N_R   0.778695 0.091812 0.514243 0.198886
O9    O     O_R   0.776118 0.133037 0.418549 -0.404152
O10   O     O_R   0.869185 0.136972 0.572118 -0.418386
C42   C     C_1   0.854511 0.927730 0.670519 0.304061
N7    N     N_1   0.951220 0.942798 0.714335 -0.160395
N8    N     N_R   0.958267 0.677643 0.361147 0.214202
O11   O     O_R   0.057193 0.743529 0.314472 -0.414164
O12   O     O_R   0.841568 0.690476 0.336470 -0.373449
C43   C     C_1   0.128301 0.698070 0.563713 0.250216
N9    N     N_1   0.179417 0.779145 0.591027 -0.189307
C44   C     C_1   0.911428 0.516311 0.694442 0.183884
N10   N     N_1   0.872835 0.521924 0.774675 -0.190603

loop_
_geom_bond_atom_site_label_1
_geom_bond_atom_site_label_2
_geom_bond_distance
_ccdc_geom_bond_type
C5    H2    1.106861 S    
C1    C26   1.462435 S    
C15   C26   1.395761 A    
C32   C36   1.400979 A    
C7    C8    1.535782 S    
C44   N10   1.157135 T    
C17   C39   1.452197 S    
C30   C31   1.425535 A    
Zn1   O7    1.994813 S    
C9    N8    1.458801 S    
C36   H14   1.066680 S    
C20   C21   1.420741 A    
N8    O12   1.299982 A    
C10   C43   1.469874 S    
C29   C42   1.443101 S    
O4    C2    1.296022 A    
O7    C4    1.299856 A    
C8    H3    1.110395 S    
C5    C6    1.551041 S    
C32   N2    1.360940 A    
C33   C34   1.422442 A    
C18   C19   1.412294 A    
C19   C26   1.407544 A    
O5    C3    1.310531 A    
C24   H7    1.076372 S    
C6    H1    1.110365 S    
C11   C12   1.527627 S    
C14   C25   1.399282 A    
C23   H9    1.082831 S    
C9    C10   1.526135 S    
C28   N2    1.354490 A    
O3    Zn1   1.994089 S    
C5    C8    1.551320 S    
C31   C33   1.429910 A    
C15   H8    1.079941 S    
C27   C38   1.384238 A    
C28   C29   1.392114 A    
C3    C14   1.449103 S    
C20   C24   1.385954 A    
C7    C10   1.534252 S    
C28   H13   1.083375 S    
N8    O11   1.299904 A    
O3    C2    1.292792 A    
C42   N7    1.157406 T    
N6    O10   1.301481 A    
C35   C36   1.384064 A    
C40   N4    1.157428 T    
O1    C1    1.312774 A    
C19   C23   1.415425 A    
C21   C22   1.387965 A    
H4    C25   1.083104 S    
C15   C16   1.389128 A    
C27   H12   1.083900 S    
H5    C22   1.084173 S    
Zn2   O8    1.994091 S    
C2    C12   1.417405 S    
C17   C18   1.435141 A    
C14   C24   1.388753 A    
C16   C40   1.446591 S    
C5    C12   1.538486 S    
O8    C4    1.290733 A    
C6    C11   1.542371 S    
C27   C34   1.397841 A    
C30   N6    1.443292 S    
C29   C30   1.413152 A    
Zn1   O5    1.936078 S    
C31   C32   1.410447 A    
C11   C44   1.469632 S    
O1    Zn1   1.975567 S    
C4    C7    1.419567 S    
O2    Zn2   1.936076 S    
Zn1   N1    2.061214 S    
O6    C3    1.305983 A    
H10   C38   1.081905 S    
O4    Zn2   1.994810 S    
C13   C21   1.403670 A    
H11   C35   1.083553 S    
N1    C37   1.358063 A    
C16   C17   1.406639 A    
O2    C1    1.309748 A    
N6    O9    1.301630 A    
C34   C35   1.390542 A    
C22   C23   1.383720 A    
C37   C41   1.440380 S    
C6    C7    1.536690 S    
C18   C20   1.420181 A    
C41   N5    1.157224 T    
C43   N9    1.157050 T    
C33   C37   1.415858 A    
C8    C9    1.535975 S    
C13   H6    1.083910 S    
Zn2   O6    1.975569 S    
C39   N3    1.157840 T    
C9    C12   1.521796 S    
N1    C38   1.353890 A    
C10   C11   1.533164 S    
C13   C25   1.392129 A    
Zn2   N2    2.048816 S    
