data_mof_unit_13455.cif
_audit_creation_date              2013-03-05T15:49:32-0500
_audit_creation_method            fapswitch 2.2
_symmetry_space_group_name_H-M    P1
_symmetry_Int_Tables_number       1
_space_group_crystal_system       triclinic
_cell_length_a                    10.592048
_cell_length_b                    12.250632
_cell_length_c                    12.894872
_cell_angle_alpha                 92.013759
_cell_angle_beta                  95.613911
_cell_angle_gamma                 88.749237
_cell_volume                      1663.89106566

loop_
_atom_site_label
_atom_site_type_symbol
_atom_site_description
_atom_site_fract_x
_atom_site_fract_y
_atom_site_fract_z
_atom_type_partial_charge
O1    O     O_R   0.506170 0.421700 0.658830 -0.643881
O2    O     O_R   0.493830 0.578300 0.341170 -0.640334
O3    O     O_R   0.491330 0.609310 0.646410 -0.637597
O4    O     O_R   0.508670 0.390690 0.353590 -0.644557
C1    C     C_R   0.496229 0.520235 0.699398 0.876755
C2    C     C_R   0.499873 0.479394 0.300378 0.889281
O5    O     O_R   0.690650 0.406190 0.506220 -0.636840
O6    O     O_R   0.309350 0.593810 0.493780 -0.637729
O7    O     O_R   0.675800 0.593810 0.493800 -0.635126
O8    O     O_R   0.324200 0.406190 0.506200 -0.629083
C3    C     C_R   0.739579 0.500456 0.489553 0.880858
C4    C     C_R   0.264029 0.500157 0.517617 0.875342
Zn1   Zn    Zn3+2 0.509910 0.374730 0.508290 0.919064
Zn2   Zn    Zn3+2 0.490090 0.625270 0.491710 0.918301
H1    H     H_    0.918792 0.870423 0.435841 0.242560
H2    H     H_    0.091652 0.140316 0.622859 0.238439
C5    C     C_R   0.893812 0.297557 0.464272 -0.228261
C6    C     C_R   0.121011 0.699822 0.575202 -0.197105
C7    C     C_R   0.943255 0.202973 0.511800 0.376231
C8    C     C_R   0.069779 0.798483 0.538674 0.384966
C9    C     C_R   0.053205 0.210821 0.581609 -0.232432
C10   C     C_R   0.956401 0.797147 0.472498 -0.202810
C11   C     C_R   0.120663 0.308132 0.591223 -0.221845
C12   C     C_R   0.890007 0.700147 0.452706 -0.237110
C13   C     C_R   0.068580 0.402840 0.543558 0.087623
C14   C     C_R   0.941334 0.600642 0.491690 0.077395
C15   C     C_R   0.945512 0.400554 0.493948 0.011698
C16   C     C_R   0.065063 0.600322 0.540542 0.020129
C17   C     C_R   0.133732 0.501073 0.547069 -0.200147
C18   C     C_R   0.876533 0.500647 0.479645 -0.193682
H3    H     H_    0.811159 0.291182 0.408126 0.202970
H4    H     H_    0.209986 0.699866 0.624391 0.185066
H5    H     H_    0.210504 0.310391 0.639157 0.189968
H6    H     H_    0.803082 0.702847 0.401265 0.194892
C19   C     C_R   0.503570 0.467476 0.189890 -0.113740
C20   C     C_R   0.481621 0.529347 0.808768 -0.115649
C21   C     C_R   0.383040 0.613850 0.952566 0.343086
C22   C     C_R   0.586126 0.374063 0.043241 0.337309
C23   C     C_R   0.397676 0.606530 0.846734 -0.265072
C24   C     C_R   0.576608 0.383312 0.149451 -0.258925
C25   C     C_R   0.546408 0.455087 0.874070 -0.231414
C26   C     C_R   0.435117 0.540829 0.125270 -0.231884
C27   C     C_R   0.526459 0.454311 0.978322 0.020596
C28   C     C_R   0.447749 0.537369 0.019229 0.012009
H7    H     H_    0.371694 0.599493 0.158147 0.173669
H8    H     H_    0.614471 0.399565 0.843431 0.171331
H9    H     H_    0.625340 0.324081 0.200445 0.198418
H10   H     H_    0.344700 0.661969 0.794450 0.179726
N1    N     N_R   0.523130 0.207800 0.519340 -0.140851
N2    N     N_R   0.476870 0.792200 0.480660 -0.133841
C29   C     C_R   0.413974 0.949406 0.378502 -0.248059
C30   C     C_R   0.607530 0.049888 0.611426 -0.199650
C31   C     C_R   0.407886 0.837183 0.395892 0.236316
C32   C     C_R   0.600588 0.163540 0.600172 0.239514
C33   C     C_R   0.546388 0.860799 0.551736 0.193867
C34   C     C_R   0.455174 0.138791 0.447470 0.195732
C35   C     C_R   0.540851 0.977370 0.540497 0.054719
C36   C     C_R   0.469185 0.022319 0.454811 0.081335
H11   H     H_    0.375545 0.978685 0.303877 0.159762
H12   H     H_    0.666168 0.019134 0.676894 0.158200
N3    N     N_R   0.879166 0.101097 0.491657 0.205555
O9    O     O_R   0.893973 0.024161 0.558898 -0.446853
O10   O     O_R   0.798030 0.087500 0.409907 -0.423628
N4    N     N_R   0.138835 0.897309 0.561778 0.215900
O11   O     O_R   0.127146 0.976356 0.496933 -0.462219
O12   O     O_R   0.224312 0.904249 0.641314 -0.414086
N5    N     N_R   0.305412 0.700643 0.990703 0.182695
O13   O     O_R   0.192619 0.718846 0.944247 -0.388269
O14   O     O_R   0.357979 0.776419 0.052497 -0.421981
N6    N     N_R   0.649955 0.279979 0.002358 0.183405
O15   O     O_R   0.755905 0.244555 0.050550 -0.396595
O16   O     O_R   0.587918 0.215861 0.933739 -0.419252
C37   C     C_3   0.363583 0.186958 0.361644 -0.446369
C38   C     C_3   0.224758 0.154215 0.363546 -0.347716
C39   C     C_3   0.134597 0.228170 0.296453 -0.810536
H13   H     H_    0.138446 0.313671 0.328138 0.255055
H14   H     H_    0.160448 0.225988 0.214968 0.271024
H15   H     H_    0.035916 0.199293 0.295968 0.279117
H16   H     H_    0.207519 0.069450 0.334626 0.249504
H17   H     H_    0.201354 0.160851 0.444677 0.279822
H18   H     H_    0.359983 0.274904 0.372835 0.286351
H19   H     H_    0.396963 0.167486 0.283950 0.206846
C40   C     C_3   0.632562 0.813174 0.640334 -0.415173
C41   C     C_3   0.574808 0.826769 0.745222 -0.320635
C42   C     C_3   0.661391 0.776175 0.833062 -0.794171
H20   H     H_    0.680890 0.688586 0.814634 0.254215
H21   H     H_    0.752671 0.819990 0.844598 0.270976
H22   H     H_    0.614966 0.782681 0.906687 0.274640
H23   H     H_    0.557845 0.913790 0.766764 0.235236
H24   H     H_    0.480794 0.788280 0.739168 0.262607
H25   H     H_    0.653834 0.726811 0.624349 0.264167
H26   H     H_    0.727443 0.850939 0.645197 0.206339
C43   C     C_3   0.665191 0.236056 0.686539 -0.397711
C44   C     C_3   0.784167 0.188584 0.749499 -0.384234
C45   C     C_3   0.868269 0.277737 0.803414 -0.768746
H27   H     H_    0.901274 0.332299 0.744943 0.245973
H28   H     H_    0.816490 0.327158 0.859578 0.277138
H29   H     H_    0.952774 0.239516 0.846590 0.270322
H30   H     H_    0.755798 0.133428 0.809392 0.275712
H31   H     H_    0.842808 0.140932 0.697993 0.268722
H32   H     H_    0.693951 0.311793 0.654033 0.260519
H33   H     H_    0.593045 0.254775 0.741095 0.241644
C46   C     C_3   0.331832 0.767806 0.314285 -0.396749
C47   C     C_3   0.200169 0.816271 0.277947 -0.380719
C48   C     C_3   0.111378 0.729211 0.226516 -0.777082
H34   H     H_    0.152923 0.688938 0.159012 0.292779
H35   H     H_    0.094066 0.666546 0.283504 0.244467
H36   H     H_    0.018982 0.767799 0.198714 0.264709
H37   H     H_    0.155782 0.853213 0.345079 0.260339
H38   H     H_    0.209428 0.880891 0.220989 0.256895
H39   H     H_    0.388145 0.757803 0.246716 0.235554
H40   H     H_    0.315915 0.687611 0.344348 0.264996

loop_
_geom_bond_atom_site_label_1
_geom_bond_atom_site_label_2
_geom_bond_distance
_ccdc_geom_bond_type
C24   H9    1.084493 S    
C22   C24   1.383592 A    
C22   N6    1.434028 S    
C43   C44   1.544817 S    
C4    C17   1.466504 S    
C37   C38   1.535316 S    
C45   H27   1.111159 S    
C39   H13   1.110968 S    
C45   H29   1.110362 S    
C42   H20   1.110181 S    
O5    C3    1.309099 A    
C40   H26   1.110806 S    
C48   H35   1.111360 S    
H2    C9    1.081364 S    
C26   C28   1.385973 A    
O1    C1    1.304877 A    
C16   C17   1.403937 A    
C7    C9    1.403411 A    
C12   C14   1.412401 A    
C47   H37   1.103640 S    
C7    N3    1.437215 S    
N1    C32   1.380768 A    
C1    C20   1.433973 S    
C2    C19   1.431342 S    
C46   H39   1.104950 S    
O4    Zn1   2.009962 S    
N3    O10   1.301621 A    
C19   C26   1.390517 A    
C32   C43   1.518442 S    
C30   H12   1.072341 S    
H1    C10   1.079503 S    
C3    C18   1.468697 S    
C11   H5    1.083151 S    
C25   H8    1.074210 S    
N6    O15   1.301985 A    
N3    O9    1.299660 A    
C38   H17   1.098366 S    
C15   C18   1.421916 A    
C25   C27   1.381473 A    
C20   C25   1.386036 A    
O2    C2    1.306642 A    
C41   H24   1.105782 S    
C37   H18   1.082311 S    
C47   C48   1.527706 S    
C30   C32   1.404501 A    
C42   H21   1.110819 S    
C13   C17   1.397421 A    
C48   H36   1.110335 S    
N2    C31   1.378720 A    
C38   C39   1.528726 S    
N5    O13   1.301399 A    
C5    C15   1.411954 A    
C6    C16   1.406485 A    
C41   C42   1.526266 S    
O4    C2    1.302248 A    
C43   H32   1.092711 S    
C12   H6    1.081441 S    
C46   H40   1.091190 S    
N5    O14   1.300180 A    
C26   H7    1.077371 S    
N4    O12   1.301681 A    
C8    N4    1.435336 S    
O1    Zn1   2.009093 S    
O7    Zn2   1.993943 S    
C39   H14   1.110747 S    
C40   C41   1.540399 S    
C44   H31   1.097865 S    
O6    C4    1.311083 A    
C29   C36   1.398763 A    
O7    C3    1.317730 A    
O3    Zn2   2.009963 S    
O8    C4    1.314319 A    
Zn1   N1    2.055723 S    
C8    C10   1.403562 A    
C14   C18   1.413627 A    
C38   H16   1.103847 S    
C33   C35   1.439796 A    
C27   C28   1.421238 A    
C5    H3    1.082463 S    
C10   C12   1.397090 A    
C29   H11   1.077761 S    
C41   H23   1.107482 S    
C33   C40   1.516031 S    
C37   H19   1.111064 S    
C42   H22   1.110765 S    
O6    Zn2   1.963959 S    
C34   C37   1.524805 S    
C20   C23   1.392927 A    
O3    C1    1.305116 A    
O8    Zn1   1.993942 S    
C43   H33   1.103471 S    
C45   H28   1.106462 S    
C13   C15   1.395146 A    
N1    C34   1.390207 A    
C40   H25   1.093604 S    
C48   H34   1.109069 S    
C14   C16   1.397424 A    
N2    C33   1.388989 A    
N4    O11   1.297561 A    
C21   C28   1.414167 A    
C9    C11   1.398762 A    
C19   C24   1.392774 A    
C22   C27   1.412043 A    
C21   C23   1.388037 A    
C47   H38   1.110896 S    
C35   C36   1.400240 A    
Zn2   N2    2.055724 S    
C44   H30   1.110977 S    
C31   C46   1.509912 S    
C21   N5    1.432710 S    
C5    C7    1.397539 A    
C34   C36   1.436802 A    
C6    C8    1.392317 A    
C11   C13   1.408578 A    
C44   C45   1.528946 S    
O2    Zn2   2.009092 S    
C39   H15   1.110135 S    
C30   C35   1.403040 A    
O5    Zn1   1.963960 S    
C6    H4    1.083294 S    
C46   C47   1.540289 S    
N6    O16   1.300631 A    
C29   C31   1.404593 A    
C23   H10   1.082680 S    
