data_mof_unit_6923.cif
_audit_creation_date              2012-12-10T19:48:03-0500
_audit_creation_method            fapswitch 2.2
_symmetry_space_group_name_H-M    P1
_symmetry_Int_Tables_number       1
_space_group_crystal_system       triclinic
_cell_length_a                    15.009795
_cell_length_b                    14.157706
_cell_length_c                    10.742419
_cell_angle_alpha                 90.282318
_cell_angle_beta                  90.822107
_cell_angle_gamma                 91.351761
_cell_volume                      2281.90797403

loop_
_atom_site_label
_atom_site_type_symbol
_atom_type_description
_atom_site_fract_x
_atom_site_fract_y
_atom_site_fract_z
_atom_type_partial_charge
C1    C     C_R   0.327377 0.498560 0.502034 0.812759
C2    C     C_R   0.568042 0.797320 0.556782 0.023310
C3    C     C_R   0.537953 0.205830 0.597123 0.036281
C4    C     C_R   0.431976 0.793611 0.443319 0.046703
C5    C     C_R   0.500005 0.053363 0.500061 0.132037
C6    C     C_R   0.500032 0.946619 0.500107 0.131341
C7    C     C_R   0.501359 0.500371 0.260314 0.869279
C8    C     C_R   0.501689 0.500696 0.739449 0.851969
C9    C     C_R   0.631408 0.614455 0.131798 -0.144976
C10   C     C_R   0.356329 0.413540 0.866151 -0.168258
C11   C     C_R   0.631861 0.614086 0.874322 -0.143249
C12   C     C_R   0.671960 0.500668 0.500976 0.798242
C13   C     C_R   0.356164 0.413613 0.124273 -0.166875
C14   C     C_R   0.694431 0.668968 0.069066 -0.065084
C15   C     C_R   0.286193 0.370014 0.928772 -0.127971
C16   C     C_R   0.694738 0.668677 0.940348 -0.076606
C17   C     C_R   0.286078 0.370086 0.057791 -0.128126
C18   C     C_R   0.565693 0.558922 0.936253 0.081436
C19   C     C_R   0.429381 0.456422 0.062468 0.087158
C20   C     C_R   0.565597 0.558834 0.066472 0.072995
C21   C     C_R   0.429377 0.456636 0.932331 0.078743
C22   C     C_R   0.500095 0.503666 0.871490 -0.198628
C23   C     C_R   0.047248 0.512972 0.513688 0.010641
C24   C     C_R   0.500117 0.503062 0.127676 -0.199378
C25   C     C_R   0.099251 0.574206 0.587078 -0.129967
C26   C     C_R   0.905420 0.511835 0.622575 -0.122506
C27   C     C_R   0.906673 0.516752 0.396731 -0.127051
C28   C     C_R   0.084967 0.439108 0.448826 -0.118169
C29   C     C_R   0.191318 0.565330 0.591223 -0.022376
C30   C     C_R   0.813143 0.500461 0.620508 -0.033501
C31   C     C_R   0.814711 0.504261 0.391712 -0.032948
C32   C     C_R   0.176642 0.428118 0.448634 -0.000889
C33   C     C_R   0.230974 0.495920 0.514886 -0.219583
C34   C     C_R   0.951473 0.519726 0.511346 0.017596
C35   C     C_R   0.767784 0.501782 0.504432 -0.180850
C36   C     C_2   0.243967 0.625286 0.681270 0.427690
C37   C     C_2   0.766237 0.479079 0.738213 0.383223
C38   C     C_2   0.769930 0.485051 0.269783 0.391351
C39   C     C_2   0.210963 0.345232 0.378748 0.348179
C40   C     C_R   0.461548 0.103887 0.400875 -0.253864
C41   C     C_R   0.569529 0.896669 0.557557 -0.263385
C42   C     C_R   0.538405 0.106563 0.599231 -0.262296
C43   C     C_R   0.430516 0.892844 0.442682 -0.255634
C44   C     C_R   0.461997 0.203201 0.402921 0.025189
H1    H     H_    0.230626 0.337923 0.106277 0.186578
H2    H     H_    0.942279 0.508603 0.709951 0.184877
H3    H     H_    0.944555 0.518672 0.311524 0.186090
H4    H     H_    0.041534 0.389364 0.398618 0.192564
H5    H     H_    0.432338 0.067313 0.321017 0.143067
H6    H     H_    0.625559 0.933752 0.601428 0.139768
H7    H     H_    0.567612 0.072057 0.679099 0.141323
H8    H     H_    0.374479 0.926840 0.398890 0.146927
H9    H     H_    0.432148 0.240947 0.326232 0.128170
H10   H     H_    0.621718 0.759930 0.601367 0.122517
H11   H     H_    0.567861 0.245647 0.673753 0.135614
H12   H     H_    0.744440 0.710086 0.891243 0.135983
H13   H     H_    0.378262 0.753362 0.398630 0.139832
H14   H     H_    0.310556 0.605879 0.710139 0.084642
H15   H     H_    0.696555 0.457207 0.736653 0.059641
H16   H     H_    0.700787 0.461248 0.265536 0.063350
H17   H     H_    0.280688 0.330485 0.372809 0.101299
H18   H     H_    0.230963 0.337761 0.876939 0.153205
H19   H     H_    0.743919 0.710603 0.120785 0.140906
H20   H     H_    0.636809 0.616500 0.231880 0.146900
H21   H     H_    0.350812 0.414983 0.765843 0.148663
H22   H     H_    0.637487 0.615749 0.774467 0.135930
H23   H     H_    0.350846 0.416027 0.224015 0.128589
H24   H     H_    0.067415 0.627769 0.642276 0.182234
N1    N     N_R   0.500000 0.252470 0.500000 -0.098855
N2    N     N_R   0.500000 0.747530 0.500000 -0.099786
O1    O     O_R   0.369060 0.579480 0.500010 -0.617898
O2    O     O_2   0.805310 0.483849 0.838666 -0.523865
O3    O     O_2   0.810293 0.493348 0.172349 -0.524838
O4    O     O_2   0.159703 0.289227 0.326266 -0.580369
O5    O     O_R   0.630940 0.420520 0.499990 -0.612348
O6    O     O_R   0.630940 0.579480 0.499990 -0.632194
O7    O     O_R   0.369060 0.420520 0.500010 -0.642104
O8    O     O_R   0.499990 0.579480 0.316780 -0.620368
O9    O     O_R   0.500010 0.420520 0.683220 -0.625430
O10   O     O_R   0.500010 0.579480 0.683220 -0.626696
O11   O     O_R   0.499990 0.420520 0.316780 -0.626477
O12   O     O_2   0.212814 0.696438 0.726348 -0.562548
Zn1   Zn    Zn3+2 0.500000 0.606140 0.500000 0.941971
Zn2   Zn    Zn3+2 0.500000 0.393860 0.500000 0.939185

loop_
_geom_bond_atom_site_label_1
_geom_bond_atom_site_label_2
_ccdc_geom_bond_type
C5    C42   A    
C3    C42   A    
C9    H20   S    
C1    O7    A    
C4    N2    A    
C1    C33   S    
C11   C18   A    
C29   C36   S    
C12   O5    A    
C1    O1    A    
C30   C35   A    
C3    N1    A    
C17   H1    S    
C36   H14   S    
C10   C15   A    
O9    Zn2   S    
C43   H8    S    
C39   O4    D    
C2    C41   A    
C40   H5    S    
C29   C33   A    
C32   C39   S    
C3    H11   S    
C44   H9    S    
C26   C34   A    
C20   C24   A    
C36   O12   D    
C6    C41   A    
C4    H13   S    
C8    O9    A    
C8    C22   S    
C18   C20   A    
C11   H22   S    
C42   H7    S    
C27   C34   A    
C21   C22   A    
C25   H24   S    
O10   Zn1   S    
O8    Zn1   S    
O6    Zn1   S    
O1    Zn1   S    
C10   C21   A    
C25   C29   A    
C39   H17   S    
C13   C19   A    
C27   C31   A    
C28   C32   A    
C2    H10   S    
O7    Zn2   S    
C30   C37   S    
C9    C14   A    
C16   H12   S    
C11   C16   A    
C9    C20   A    
C23   C34   S    
C44   N1    A    
C23   C28   A    
C12   C35   S    
N2    Zn1   S    
C37   H15   S    
C7    O8    A    
C38   H16   S    
C7    O11   A    
C26   C30   A    
C6    C43   A    
C12   O6    A    
C14   C16   A    
C5    C40   A    
C41   H6    S    
O11   Zn2   S    
C13   H23   S    
C10   H21   S    
C27   H3    S    
C15   C17   A    
C28   H4    S    
C19   C21   A    
C18   C22   A    
C4    C43   A    
C31   C38   S    
C13   C17   A    
C32   C33   A    
C19   C24   A    
N1    Zn2   S    
C5    C6    S    
C14   H19   S    
C15   H18   S    
C31   C35   A    
C23   C25   A    
O5    Zn2   S    
C26   H2    S    
C40   C44   A    
C37   O2    D    
C8    O10   A    
C2    N2    A    
C7    C24   S    
C38   O3    D    
