data_mof_unit_53167.cif
_audit_creation_date              2012-12-11T15:46:46-0500
_audit_creation_method            fapswitch 2.2
_symmetry_space_group_name_H-M    P1
_symmetry_Int_Tables_number       1
_space_group_crystal_system       triclinic
_cell_length_a                    11.558515
_cell_length_b                    11.53958
_cell_length_c                    19.587395
_cell_angle_alpha                 90.424407
_cell_angle_beta                  90.019149
_cell_angle_gamma                 59.865629
_cell_volume                      2259.40706633

loop_
_atom_site_label
_atom_site_type_symbol
_atom_type_description
_atom_site_fract_x
_atom_site_fract_y
_atom_site_fract_z
_atom_type_partial_charge
C1    C     C_R   0.640308 0.117231 0.599357 0.553787
C2    C     C_1   0.641019 0.704218 0.668091 0.005835
C3    C     C_1   0.126438 0.198942 0.859217 0.008324
C4    C     C_1   0.171681 0.170279 0.727746 -0.028372
C5    C     C_1   0.150036 0.182409 0.798923 -0.028202
C6    C     C_1   0.195605 0.160812 0.667474 0.006678
C7    C     C_1   0.678887 0.191414 0.860672 0.006812
C8    C     C_1   0.658532 0.167113 0.729046 -0.028588
C9    C     C_1   0.665898 0.180942 0.800299 -0.027912
C10   C     C_1   0.652800 0.149525 0.668721 0.005711
C11   C     C_R   0.652897 0.674861 0.191274 0.013421
C12   C     C_R   0.612303 0.746292 0.598733 0.542520
C13   C     C_R   0.565533 0.653164 0.231551 0.035209
C14   C     C_R   0.562292 0.666435 0.300375 0.025743
C15   C     C_R   0.724607 0.738573 0.293179 -0.112194
C16   C     C_R   0.725767 0.729406 0.221940 0.184771
C17   C     C_3   0.549415 0.532436 0.236697 -0.234253
C18   C     C_3   0.543680 0.549989 0.313166 -0.265878
C19   C     C_R   0.647794 0.699261 0.332636 -0.044834
C20   C     C_R   0.133513 0.202553 0.194156 -0.007274
C21   C     C_R   0.078831 0.308879 0.240944 -0.012349
C22   C     C_R   0.103842 0.289322 0.309466 -0.039088
C23   C     C_R   0.241248 0.145205 0.598283 0.549925
C24   C     C_R   0.222356 0.050525 0.290348 -0.124598
C25   C     C_R   0.199941 0.069848 0.219625 -0.006732
C26   C     C_3   0.079203 0.438673 0.242943 0.139413
C27   C     C_3   0.105770 0.417243 0.319169 -0.223598
C28   C     C_R   0.182835 0.160780 0.334966 0.015811
C29   C     C_R   0.674388 0.174924 0.191205 0.011390
C30   C     C_R   0.775377 0.064347 0.225915 0.025563
C31   C     C_R   0.764086 0.044562 0.293733 0.033702
C32   C     C_R   0.542335 0.238814 0.294633 -0.155233
C33   C     C_R   0.552854 0.256257 0.224654 -0.176519
C34   C     C_R   0.642178 0.110019 0.401113 0.556078
C35   C     C_3   0.922380 0.015264 0.231682 -0.135727
C36   C     C_3   0.910444 0.990368 0.306607 0.254777
C37   C     C_R   0.653099 0.138011 0.330526 0.015395
C38   C     C_R   0.081549 0.231258 0.928510 0.555104
C39   C     C_R   0.684043 0.604117 0.929412 0.548445
C40   C     C_R   0.708586 0.206792 0.930021 0.547221
C41   C     C_R   0.084240 0.235311 0.124858 0.583134
C42   C     C_R   0.681082 0.614225 0.124485 0.536521
C43   C     C_R   0.708384 0.209737 0.126333 0.537346
C44   C     C_R   0.617007 0.740575 0.402281 0.539686
C45   C     C_R   0.244543 0.139865 0.401405 0.560604
C46   C     C_1   0.670495 0.646140 0.860045 0.008462
C47   C     C_1   0.654593 0.683830 0.728465 -0.028986
C48   C     C_1   0.663427 0.666508 0.799667 -0.028521
Cr1   Cr    Cr6+3 0.404720 0.198220 0.499960 1.030118
Cr2   Cr    Cr6+3 0.698290 0.897110 0.500380 1.036346
Cr3   Cr    Cr6+3 0.396970 0.904720 0.499610 1.075650
Cr4   Cr    Cr6+3 0.926290 0.152010 0.028150 1.067634
Cr5   Cr    Cr6+3 0.921440 0.451830 0.027490 1.069610
Cr6   Cr    Cr6+3 0.626370 0.446880 0.028730 1.045869
H1    H     H_    0.781223 0.779002 0.317212 0.183416
H2    H     H_    0.204825 0.402533 0.334339 0.167787
H3    H     H_    0.020128 0.491189 0.350782 0.120429
H4    H     H_    0.449775 0.306396 0.320731 0.139837
H5    H     H_    0.471269 0.338755 0.198314 0.144570
H6    H     H_    0.945707 0.096205 0.222178 0.123052
H7    H     H_    0.983167 0.922282 0.201142 0.214800
H8    H     H_    0.640582 0.439632 0.219389 0.156523
H9    H     H_    0.453534 0.550224 0.214456 0.171436
H10   H     H_    0.443582 0.580824 0.335160 0.173500
H11   H     H_    0.629792 0.466766 0.340008 0.165389
H12   H     H_    0.281903 0.949381 0.309435 0.185546
H13   H     H_    0.980991 0.526057 0.230145 0.208611
O1    O     O_R   0.267750 0.231960 0.575440 -0.505552
O2    O     O_R   0.685950 0.784660 0.430010 -0.521088
O3    O     O_R   0.502510 0.767000 0.423980 -0.501531
O4    O     O_R   0.288320 0.026340 0.429250 -0.470971
O5    O     O_3   0.499990 0.000020 0.499980 -0.268222
O6    O     O_R   0.821590 0.119350 0.952850 -0.501915
O7    O     O_R   0.037230 0.162540 0.957390 -0.484967
O8    O     O_R   0.056530 0.344750 0.951370 -0.502429
O9    O     O_R   0.798000 0.560370 0.957490 -0.497648
O10   O     O_R   0.596230 0.579400 0.952760 -0.495460
O11   O     O_R   0.639160 0.321170 0.958690 -0.491894
O12   O     O_R   0.527290 0.186640 0.570530 -0.493542
O13   O     O_R   0.821370 0.124220 0.104400 -0.519118
O14   O     O_R   0.037020 0.167050 0.097880 -0.487815
O15   O     O_R   0.056310 0.349620 0.102920 -0.472329
O16   O     O_R   0.797790 0.564880 0.097980 -0.499760
O17   O     O_R   0.596000 0.584270 0.104310 -0.509668
O18   O     O_R   0.638950 0.325690 0.099180 -0.509290
O19   O     O_3   0.824700 0.350240 0.028120 -0.276036
O20   O     O_R   0.728110 0.003450 0.576380 -0.494420
O21   O     O_R   0.682980 0.789190 0.570500 -0.495156
O22   O     O_R   0.499300 0.771880 0.575540 -0.502845
O23   O     O_R   0.285350 0.030870 0.569740 -0.484776
O24   O     O_R   0.270960 0.227070 0.423890 -0.534624
O25   O     O_R   0.530270 0.182120 0.430040 -0.509280
O26   O     O_R   0.731320 0.998570 0.424830 -0.525235
O27   O     O_3   0.185397 0.435575 0.206195 -0.661651
H14   H     H_    0.267598 0.348480 0.214863 0.321373
O28   O     O_3   0.979534 0.852426 0.320747 -0.665613
H15   H     H_    0.950106 0.841126 0.366489 0.345210
C49   C     C_2   0.941100 0.073414 0.355645 0.581255
O29   O     O_2   0.021262 0.019052 0.401836 -0.488667
O30   O     O_R   0.875807 0.212700 0.348664 -0.756674
H16   H     H_    0.901247 0.257585 0.385672 0.332577
O31   O     O_3   0.801540 0.769427 0.185429 -0.679307
H17   H     H_    0.772859 0.781423 0.137105 0.339545
C50   C     C_2   0.253597 0.950271 0.174320 0.566971
O32   O     O_2   0.294925 0.952630 0.117170 -0.505444
O33   O     O_R   0.258337 0.833748 0.197518 -0.699144
H18   H     H_    0.293023 0.760549 0.161364 0.346486

loop_
_geom_bond_atom_site_label_1
_geom_bond_atom_site_label_2
_ccdc_geom_bond_type
C26   O27   S    
C21   C26   S    
C1    O20   A    
Cr1   O1    S    
C45   O4    A    
C34   C37   S    
C14   C18   S    
C35   C36   S    
C34   O26   A    
C32   H4    S    
C2    C12   S    
C50   O33   S    
C20   C41   S    
C18   H11   S    
C15   C19   A    
C26   C27   S    
C30   C35   S    
C26   H13   S    
C39   O10   A    
Cr2   O2    S    
Cr4   O7    S    
Cr3   O23   S    
C30   C31   A    
O33   H18   S    
C6    C23   S    
C15   C16   A    
C29   C33   A    
C40   O6    A    
C11   C42   S    
Cr2   O5    S    
C3    C38   S    
C8    C9    S    
Cr1   O5    S    
C7    C40   S    
C44   O3    A    
Cr5   O19   S    
Cr3   O3    S    
C13   C14   A    
Cr2   O21   S    
Cr6   O10   S    
C33   H5    S    
C22   C28   A    
C21   C22   A    
C29   C43   S    
Cr5   O8    S    
Cr3   O4    S    
Cr1   O24   S    
Cr6   O17   S    
C50   O32   D    
C38   O8    A    
C46   C48   T    
C28   C45   S    
C12   O21   A    
O31   H17   S    
C43   O18   A    
C12   O22   A    
C42   O17   A    
C24   C25   A    
C4    C6    T    
Cr4   O6    S    
C27   H3    S    
Cr6   O19   S    
C27   H2    S    
C43   O13   A    
C39   O9    A    
Cr1   O12   S    
C35   H6    S    
C15   H1    S    
C23   O1    A    
C29   C30   A    
C17   H8    S    
C11   C16   A    
C36   O28   S    
C47   C48   S    
C41   O14   A    
O28   H15   S    
C17   C18   S    
C23   O23   A    
C44   O2    A    
Cr2   O26   S    
C32   C37   A    
Cr2   O20   S    
C39   C46   S    
C16   O31   S    
C49   O30   S    
C22   C27   S    
C1    O12   A    
C40   O11   A    
Cr5   O9    S    
Cr3   O5    S    
Cr1   O25   S    
C19   C44   S    
C38   O7    A    
C7    C9    T    
C14   C19   A    
C1    C10   S    
C24   C28   A    
C4    C5    S    
C3    C5    T    
Cr4   O14   S    
Cr6   O18   S    
C25   C50   S    
C24   H12   S    
C2    C47   T    
C13   C17   S    
Cr5   O16   S    
C32   C33   A    
Cr4   O19   S    
C42   O16   A    
C17   H9    S    
C11   C13   A    
C18   H10   S    
C35   H7    S    
C41   O15   A    
O30   H16   S    
O27   H14   S    
C45   O24   A    
C34   O25   A    
C31   C37   A    
C20   C21   A    
C8    C10   T    
C49   O29   D    
C20   C25   A    
C31   C36   S    
Cr5   O15   S    
C36   C49   S    
Cr4   O13   S    
Cr3   O22   S    
Cr6   O11   S    
