data_mof_unit_20639.cif
_audit_creation_date              2012-12-10T17:48:47-0500
_audit_creation_method            fapswitch 2.2
_symmetry_space_group_name_H-M    P1
_symmetry_Int_Tables_number       1
_space_group_crystal_system       triclinic
_cell_length_a                    15.726528
_cell_length_b                    10.623264
_cell_length_c                    9.927629
_cell_angle_alpha                 87.941854
_cell_angle_beta                  89.543054
_cell_angle_gamma                 92.499177
_cell_volume                      1655.85766004

loop_
_atom_site_label
_atom_site_type_symbol
_atom_type_description
_atom_site_fract_x
_atom_site_fract_y
_atom_site_fract_z
_atom_type_partial_charge
C1    C     C_R   0.498023 0.260441 0.502703 0.834150
C2    C     C_R   0.733731 0.089278 0.572984 -0.167517
C3    C     C_R   0.741582 0.967552 0.529103 -0.164238
C4    C     C_R   0.338436 0.499335 0.500524 0.884250
C5    C     C_R   0.669745 0.897114 0.487605 -0.010192
C6    C     C_R   0.587323 0.945049 0.502935 0.034536
C7    C     C_R   0.581551 0.073244 0.529168 0.097165
C8    C     C_R   0.502706 0.128299 0.509366 -0.065691
C9    C     C_R   0.428804 0.058024 0.481579 -0.226227
C10   C     C_R   0.431902 0.929587 0.476222 -0.171265
C11   C     C_R   0.510000 0.873440 0.487989 -0.096365
C12   C     C_3   0.949193 0.464479 0.642036 -0.408387
C13   C     C_R   0.386991 0.333887 0.146813 -0.184934
C14   C     C_R   0.331890 0.251293 0.079985 0.035237
C15   C     C_R   0.333055 0.250780 0.940200 -0.242218
C16   C     C_R   0.506357 0.739812 0.496927 0.878517
C17   C     C_R   0.388807 0.332780 0.866930 -0.171709
C18   C     C_R   0.445022 0.417608 0.931273 0.166115
C19   C     C_R   0.444625 0.417931 0.075744 0.153351
C20   C     C_R   0.552645 0.578871 0.067644 -0.105940
C21   C     C_R   0.552633 0.578864 0.924689 -0.104393
C22   C     C_R   0.661435 0.497427 0.499711 0.901981
C23   C     C_3   0.916869 0.492020 0.497282 0.321267
C24   C     C_3   0.047468 0.465955 0.642437 -0.524714
C25   C     C_3   0.046374 0.386518 0.407900 -0.037190
C26   C     C_3   0.947770 0.390197 0.402753 -0.445401
C27   C     C_1   0.750193 0.493522 0.499055 -0.169548
C28   C     C_3   0.082517 0.494238 0.497316 0.339709
C29   C     C_1   0.685767 0.800512 0.393982 0.118360
C30   C     C_1   0.273881 0.166594 0.155777 0.146506
C31   C     C_3   0.953091 0.622898 0.445346 -0.440578
C32   C     C_3   0.051750 0.626849 0.451480 -0.040139
C33   C     C_1   0.825441 0.491604 0.498277 -0.095931
C34   C     C_1   0.174141 0.495407 0.500192 -0.045640
C35   C     C_1   0.249505 0.497186 0.501242 -0.171418
C36   C     C_R   0.655005 0.143939 0.567859 -0.175306
H1    H     H_    0.923169 0.370769 0.680611 0.173903
H2    H     H_    0.595524 0.643592 0.117967 0.163248
H3    H     H_    0.068777 0.373279 0.682181 0.180068
H4    H     H_    0.382708 0.329745 0.253927 0.199640
H5    H     H_    0.290582 0.186841 0.887304 0.151962
H6    H     H_    0.386176 0.327266 0.760094 0.206953
H7    H     H_    0.595662 0.643432 0.868050 0.149965
H8    H     H_    0.062119 0.295218 0.458959 0.136453
H9    H     H_    0.919320 0.296047 0.435320 0.156774
H10   H     H_    0.925050 0.410054 0.298613 0.170785
H11   H     H_    0.071236 0.693754 0.530948 0.136161
H12   H     H_    0.072284 0.538465 0.712094 0.183751
H13   H     H_    0.928635 0.697925 0.508942 0.155980
H14   H     H_    0.081618 0.298265 0.236727 0.186743
H15   H     H_    0.052652 0.445223 0.205001 0.188360
H16   H     H_    0.090910 0.773163 0.321676 0.182529
H17   H     H_    0.057137 0.645530 0.241612 0.190477
H18   H     H_    0.926743 0.536517 0.711229 0.178526
H19   H     H_    0.930234 0.642797 0.341272 0.172400
H20   H     H_    0.368709 0.102662 0.466567 0.138867
H21   H     H_    0.652261 0.241350 0.594440 0.148590
H22   H     H_    0.789682 0.144363 0.602274 0.135927
H23   H     H_    0.804671 0.931544 0.518673 0.130310
H24   H     H_    0.373470 0.873642 0.462350 0.147754
N1    N     N_R   0.499210 0.498800 0.142780 -0.116420
N2    N     N_R   0.499180 0.498720 0.857170 -0.118436
N3    N     N_1   0.700810 0.727496 0.314585 -0.209042
N4    N     N_1   0.227352 0.098638 0.216823 -0.235896
N5    N     N_3   0.086033 0.389497 0.273114 -0.437744
N6    N     N_3   0.092094 0.674722 0.324564 -0.437979
O1    O     O_R   0.500000 0.316780 0.614690 -0.642704
O2    O     O_R   0.499990 0.316750 0.385360 -0.626634
O3    O     O_R   0.377150 0.500020 0.614720 -0.631687
O4    O     O_R   0.377140 0.499990 0.385380 -0.623844
O5    O     O_R   0.500010 0.683250 0.614640 -0.607409
O6    O     O_R   0.500000 0.683220 0.385310 -0.603976
O7    O     O_R   0.622860 0.500010 0.614620 -0.625655
O8    O     O_R   0.622850 0.499980 0.385280 -0.592025
Zn1   Zn    Zn3+2 0.500010 0.500020 0.653130 0.938411
Zn2   Zn    Zn3+2 0.499990 0.499980 0.346870 0.958710

loop_
_geom_bond_atom_site_label_1
_geom_bond_atom_site_label_2
_ccdc_geom_bond_type
C29   N3    T    
C30   N4    T    
C1    C8    S    
C7    C36   A    
C16   O6    A    
O6    Zn2   S    
C24   H3    S    
C4    O4    A    
C7    C8    A    
C27   C33   T    
C25   C28   S    
C12   C23   S    
O8    Zn2   S    
C14   C30   S    
C34   C35   T    
C5    C6    A    
C20   N1    A    
C1    O2    A    
C18   C19   A    
H15   N5    S    
C23   C26   S    
C12   H1    S    
C17   H6    S    
C13   H4    S    
C26   H9    S    
C21   H7    S    
C8    C9    A    
C23   C33   S    
C9    C10   A    
C4    C35   S    
C28   C34   S    
C13   C14   A    
O7    Zn1   S    
C16   O5    A    
C31   H13   S    
C25   H8    S    
C4    O3    A    
C5    C29   S    
N1    Zn2   S    
C13   C19   A    
C24   H12   S    
C28   C32   S    
C25   N5    S    
C15   H5    S    
C36   H21   S    
C6    C11   A    
C18   N2    A    
C25   C26   S    
C23   C31   S    
C10   H24   S    
C20   H2    S    
C11   C16   S    
C31   C32   S    
C17   C18   A    
C9    H20   S    
H17   N6    S    
C21   N2    A    
C22   C27   S    
O4    Zn2   S    
C32   H11   S    
N2    Zn1   S    
O1    Zn1   S    
C22   O8    A    
H16   N6    S    
C32   N6    S    
C2    C36   A    
C15   C17   A    
C24   C28   S    
C3    C5    A    
C2    H22   S    
C6    C7    A    
O2    Zn2   S    
C12   C24   S    
C2    C3    A    
O5    Zn1   S    
C19   N1    A    
C1    O1    A    
O3    Zn1   S    
H14   N5    S    
C10   C11   A    
C26   H10   S    
C20   C21   A    
C14   C15   A    
C22   O7    A    
C31   H19   S    
C12   H18   S    
C3    H23   S    
