data_mof_unit_38814.cif
_audit_creation_date              2012-12-11T15:50:33-0500
_audit_creation_method            fapswitch 2.2
_symmetry_space_group_name_H-M    P1
_symmetry_Int_Tables_number       1
_space_group_crystal_system       triclinic
_cell_length_a                    6.923684
_cell_length_b                    14.521533
_cell_length_c                    16.136101
_cell_angle_alpha                 90.0
_cell_angle_beta                  90.000013
_cell_angle_gamma                 89.999985
_cell_volume                      1622.36402657

loop_
_atom_site_label
_atom_site_type_symbol
_atom_type_description
_atom_site_fract_x
_atom_site_fract_y
_atom_site_fract_z
_atom_type_partial_charge
O1    O     O_R   0.638140 0.833910 0.163320 -0.545504
O2    O     O_R   0.361860 0.166090 0.836680 -0.545504
O3    O     O_R   0.361860 0.166090 0.663320 -0.545504
O4    O     O_R   0.638140 0.833910 0.336680 -0.545504
O5    O     O_R   0.138140 0.666090 0.336680 -0.545505
O6    O     O_R   0.861860 0.333910 0.663320 -0.545505
O7    O     O_R   0.861860 0.333910 0.836680 -0.545505
O8    O     O_R   0.138140 0.666090 0.163320 -0.545505
O9    O     O_R   0.308390 0.844930 0.336080 -0.521308
O10   O     O_R   0.691610 0.155070 0.663920 -0.521308
O11   O     O_R   0.691610 0.155070 0.836080 -0.521308
O12   O     O_R   0.308390 0.844930 0.163920 -0.521308
O13   O     O_R   0.808390 0.655070 0.163920 -0.521307
O14   O     O_R   0.191610 0.344930 0.836080 -0.521307
O15   O     O_R   0.191610 0.344930 0.663920 -0.521307
O16   O     O_R   0.808390 0.655070 0.336080 -0.521307
C1    C     C_R   0.476848 0.866218 0.365762 0.716921
C2    C     C_R   0.523152 0.133782 0.634238 0.716921
C3    C     C_R   0.523152 0.133782 0.865762 0.716920
C4    C     C_R   0.476848 0.866218 0.134238 0.716921
C5    C     C_R   0.976848 0.633782 0.134238 0.716921
C6    C     C_R   0.023152 0.366218 0.865762 0.716921
C7    C     C_R   0.023152 0.366218 0.634238 0.716921
C8    C     C_R   0.976848 0.633782 0.365762 0.716921
O17   O     O_3   0.471620 0.691320 0.250000 -0.366719
O18   O     O_3   0.528380 0.308680 0.750000 -0.366719
O19   O     O_3   0.971620 0.808680 0.250000 -0.366719
O20   O     O_3   0.028380 0.191320 0.750000 -0.366719
V1    V     V_3+5 0.196770 0.760880 0.250000 1.464446
V2    V     V_3+5 0.803230 0.239120 0.750000 1.464446
V3    V     V_3+5 0.696770 0.739120 0.250000 1.464448
V4    V     V_3+5 0.303230 0.260880 0.750000 1.464448
C9    C     C_R   0.829338 0.552068 0.489976 0.213426
C10   C     C_R   0.170662 0.447931 0.510023 0.213426
C11   C     C_R   0.170663 0.447933 0.989976 0.213425
C12   C     C_R   0.829337 0.552067 0.010024 0.213425
C13   C     C_R   0.329337 0.947933 0.010024 0.213427
C14   C     C_R   0.670663 0.052067 0.989976 0.213427
C15   C     C_R   0.670664 0.052067 0.510024 0.213427
C16   C     C_R   0.329336 0.947933 0.489975 0.213427
C17   C     C_R   0.844635 0.486189 0.553648 -0.249735
C18   C     C_R   0.155365 0.513811 0.446352 -0.249735
C19   C     C_R   0.155366 0.513812 0.053648 -0.249738
C20   C     C_R   0.844634 0.486188 0.946352 -0.249738
C21   C     C_R   0.344634 0.013812 0.946353 -0.249734
C22   C     C_R   0.655366 0.986188 0.053647 -0.249734
C23   C     C_R   0.655366 0.986188 0.446353 -0.249735
C24   C     C_R   0.344634 0.013812 0.553647 -0.249735
C25   C     C_R   0.013818 0.434190 0.565009 -0.097245
C26   C     C_R   0.986182 0.565810 0.434991 -0.097245
C27   C     C_R   0.986182 0.565810 0.065009 -0.097244
C28   C     C_R   0.013818 0.434190 0.934991 -0.097244
C29   C     C_R   0.513818 0.065810 0.934991 -0.097247
C30   C     C_R   0.486182 0.934190 0.065009 -0.097247
C31   C     C_R   0.486182 0.934190 0.434991 -0.097247
C32   C     C_R   0.513818 0.065810 0.565009 -0.097247
N1    N     N_3   0.656705 0.606544 0.482562 -0.656582
H1    H     H_    0.692133 0.674118 0.499000 0.212525
H2    H     H_    0.551840 0.584607 0.524804 0.227370
N2    N     N_3   0.343295 0.393456 0.517438 -0.656582
H3    H     H_    0.307866 0.325882 0.501000 0.212525
H4    H     H_    0.448160 0.415393 0.475196 0.227370
N3    N     N_3   0.343298 0.393458 0.982561 -0.656585
H5    H     H_    0.307873 0.325884 0.998999 0.212526
H6    H     H_    0.448165 0.415396 0.024801 0.227371
N4    N     N_3   0.656702 0.606542 0.017439 -0.656585
H7    H     H_    0.692127 0.674115 0.001001 0.212526
H8    H     H_    0.551835 0.584604 0.975199 0.227371
N5    N     N_3   0.156702 0.893459 0.017439 -0.656583
H9    H     H_    0.192127 0.825884 0.001005 0.212526
H10   H     H_    0.051838 0.915394 0.975196 0.227371
N6    N     N_3   0.843298 0.106541 0.982561 -0.656583
H11   H     H_    0.807873 0.174116 0.998995 0.212526
H12   H     H_    0.948162 0.084606 0.024803 0.227371
N7    N     N_3   0.843299 0.106540 0.517440 -0.656584
H13   H     H_    0.807874 0.174116 0.501005 0.212526
H14   H     H_    0.948162 0.084605 0.475197 0.227371
N8    N     N_3   0.156701 0.893460 0.482560 -0.656584
H15   H     H_    0.192126 0.825884 0.498995 0.212526
H16   H     H_    0.051838 0.915395 0.524803 0.227371
H17   H     H_    0.724339 0.476763 0.595749 0.151268
H18   H     H_    0.275661 0.523236 0.404251 0.151268
H19   H     H_    0.275663 0.523238 0.095748 0.151270
H20   H     H_    0.724337 0.476762 0.904252 0.151270
H21   H     H_    0.224337 0.023239 0.904252 0.151271
H22   H     H_    0.775663 0.976761 0.095748 0.151271
H23   H     H_    0.775664 0.976761 0.404253 0.151271
H24   H     H_    0.224336 0.023239 0.595747 0.151271

loop_
_geom_bond_atom_site_label_1
_geom_bond_atom_site_label_2
_ccdc_geom_bond_type
O17   V3    S    
N4    H8    S    
N3    H6    S    
O18   V4    S    
C13   N5    S    
O12   V1    S    
O19   V1    S    
N6    H12   S    
C19   H19   S    
C18   H18   S    
C19   C27   A    
O15   V4    S    
O16   V3    S    
C14   C29   A    
O11   C3    A    
O3    C2    A    
O8    V1    S    
C6    C28   S    
N8    H16   S    
C7    C25   S    
O1    V3    S    
O17   V1    S    
O2    V4    S    
N5    H10   S    
C16   C24   A    
O11   V2    S    
O1    C4    A    
C10   C18   A    
C24   H24   S    
C15   N7    S    
C11   C19   A    
C1    C31   S    
C2    C32   S    
C20   C28   A    
O15   C7    A    
N4    H7    S    
C21   C29   A    
O16   C8    A    
O7    V2    S    
C10   N2    S    
O12   C4    A    
O3    V4    S    
C17   C25   A    
O5    V1    S    
C8    C26   S    
C14   N6    S    
O19   V3    S    
O20   V4    S    
C4    C30   S    
N8    H15   S    
C9    C26   A    
C15   C23   A    
N2    H3    S    
C23   H23   S    
C21   H21   S    
N7    H13   S    
O10   V2    S    
C15   C32   A    
C16   C31   A    
C17   H17   S    
C22   C30   A    
O8    C5    A    
O13   C5    A    
N7    H14   S    
C12   C27   A    
C18   C26   A    
C13   C30   A    
O9    C1    A    
O6    V2    S    
O18   V2    S    
C16   N8    S    
C12   C20   A    
O4    C1    A    
C13   C21   A    
C5    C27   S    
C23   C31   A    
C24   C32   A    
C10   C25   A    
C9    N1    S    
O2    C3    A    
O13   V3    S    
O14   V4    S    
N6    H11   S    
C20   H20   S    
O9    V1    S    
O7    C6    A    
C9    C17   A    
O14   C6    A    
O20   V2    S    
N2    H4    S    
C3    C29   S    
N1    H1    S    
O5    C8    A    
O10   C2    A    
O6    C7    A    
C12   N4    S    
N5    H9    S    
C14   C22   A    
O4    V3    S    
N1    H2    S    
N3    H5    S    
C11   C28   A    
C11   N3    S    
C22   H22   S    
