data_mof_unit_64695.cif
_audit_creation_date              2012-12-10T19:46:45-0500
_audit_creation_method            fapswitch 2.2
_symmetry_space_group_name_H-M    P1
_symmetry_Int_Tables_number       1
_space_group_crystal_system       triclinic
_cell_length_a                    28.282268
_cell_length_b                    18.26828
_cell_length_c                    21.68107
_cell_angle_alpha                 88.842593
_cell_angle_beta                  139.813516
_cell_angle_gamma                 91.105722
_cell_volume                      7226.74459739

loop_
_atom_site_label
_atom_site_type_symbol
_atom_type_description
_atom_site_fract_x
_atom_site_fract_y
_atom_site_fract_z
_atom_type_partial_charge
Br1   Br    Br    0.143600 0.565262 0.961941 -0.488016
Br2   Br    Br    0.867460 0.413900 0.049545 -0.480390
Br3   Br    Br    0.643603 0.065256 0.961945 -0.488017
Br4   Br    Br    0.367459 0.913902 0.049544 -0.480390
C1    C     C_R   0.858746 0.499812 0.858865 0.935757
C2    C     C_R   0.946652 0.471159 0.229737 -0.220554
C3    C     C_R   0.557794 0.017871 0.775055 -0.210442
C4    C     C_R   0.446652 0.971160 0.229737 -0.220553
C5    C     C_R   0.998678 0.484893 0.685901 -0.185065
C6    C     C_R   0.999761 0.513116 0.312520 -0.174750
C7    C     C_R   0.498678 0.984893 0.685901 -0.185067
C8    C     C_R   0.499761 0.013117 0.312519 -0.174751
C9    C     C_1   0.782270 0.499481 0.782121 -0.163414
C10   C     C_1   0.217729 0.500518 0.217942 -0.158753
C11   C     C_1   0.282270 0.999481 0.782121 -0.163413
C12   C     C_R   0.141253 0.500186 0.141265 0.937963
C13   C     C_1   0.717729 0.000517 0.217942 -0.158752
C14   C     C_1   0.717464 0.499552 0.717201 -0.167930
C15   C     C_1   0.282536 0.500446 0.282810 -0.165388
C16   C     C_1   0.217464 0.999552 0.717201 -0.167930
C17   C     C_1   0.782536 0.000446 0.282810 -0.165388
C18   C     C_R   0.000121 0.641218 0.502100 0.931387
C19   C     C_R   0.999831 0.358736 0.498908 0.931752
C20   C     C_R   0.500121 0.141218 0.502100 0.931385
C21   C     C_R   0.499831 0.858736 0.498908 0.931752
C22   C     C_R   0.999516 0.493033 0.619964 0.895212
C23   C     C_R   0.358746 0.999812 0.858865 0.935758
C24   C     C_R   0.000144 0.506741 0.379679 0.895870
C25   C     C_R   0.499516 0.993033 0.619964 0.895212
C26   C     C_R   0.500143 0.006741 0.379679 0.895868
C27   C     C_R   0.499823 0.640988 0.499305 0.922700
C28   C     C_R   0.500136 0.359008 0.500693 0.923530
C29   C     C_R   0.999823 0.140988 0.499305 0.922700
C30   C     C_R   0.000136 0.859008 0.500693 0.923530
C31   C     C_R   0.640974 0.499845 0.640887 0.922530
C32   C     C_R   0.359026 0.500151 0.359113 0.921182
C33   C     C_R   0.140974 0.999845 0.640887 0.922530
C34   C     C_R   0.641253 0.000186 0.141265 0.937964
C35   C     C_R   0.859026 0.000151 0.359113 0.921182
C36   C     C_1   0.000425 0.717703 0.502617 -0.180097
C37   C     C_1   0.999486 0.282275 0.498072 -0.191870
C38   C     C_1   0.500425 0.217703 0.502617 -0.180096
C39   C     C_1   0.499486 0.782275 0.498072 -0.191869
C40   C     C_R   0.000849 0.500806 0.880667 0.923391
C41   C     C_R   0.000351 0.499093 0.120547 0.920312
C42   C     C_R   0.500849 0.000806 0.880667 0.923392
C43   C     C_R   0.500352 0.999093 0.120547 0.920312
C44   C     C_1   0.500383 0.282502 0.502147 -0.181918
C45   C     C_R   0.057934 0.524579 0.838162 0.241130
C46   C     C_1   0.499531 0.717490 0.498081 -0.174310
C47   C     C_1   0.000383 0.782502 0.502147 -0.181918
C48   C     C_1   0.999531 0.217490 0.498081 -0.174310
C49   C     C_R   0.870410 0.455691 0.689851 -0.139986
C50   C     C_R   0.124632 0.559744 0.306838 -0.141999
C51   C     C_R   0.370409 0.955694 0.689850 -0.139988
C52   C     C_R   0.624632 0.059743 0.306839 -0.141998
C53   C     C_R   0.812920 0.417573 0.606612 -0.181078
C54   C     C_R   0.175934 0.604969 0.385529 -0.170213
C55   C     C_R   0.312917 0.917578 0.606610 -0.181076
C56   C     C_R   0.947209 0.465382 0.167137 0.249539
C57   C     C_R   0.675935 0.104968 0.385531 -0.170214
C58   C     C_R   0.820074 0.390442 0.554980 -0.154889
C59   C     C_R   0.162081 0.632171 0.429846 -0.167187
C60   C     C_R   0.320072 0.890447 0.554977 -0.154889
C61   C     C_R   0.662083 0.132170 0.429848 -0.167187
C62   C     C_R   0.882543 0.406098 0.580913 0.193147
C63   C     C_R   0.099136 0.610152 0.400155 0.196100
C64   C     C_R   0.382541 0.906101 0.580910 0.193148
C65   C     C_R   0.599137 0.110151 0.400157 0.196101
C66   C     C_R   0.938264 0.454302 0.660010 0.052659
C67   C     C_R   0.557935 0.024577 0.838164 0.241129
C68   C     C_R   0.054312 0.552350 0.332359 0.088747
C69   C     C_R   0.438263 0.954304 0.660009 0.052659
C70   C     C_R   0.554312 0.052350 0.332359 0.088744
C71   C     C_R   0.934771 0.471184 0.719931 0.028829
C72   C     C_R   0.061690 0.535806 0.276851 0.023386
C73   C     C_R   0.434770 0.971186 0.719931 0.028829
C74   C     C_R   0.561690 0.035805 0.276851 0.023387
C75   C     C_R   0.996468 0.501926 0.810368 -0.157688
C76   C     C_R   0.004762 0.497416 0.190868 -0.167261
C77   C     C_R   0.496468 0.001925 0.810368 -0.157687
C78   C     C_R   0.447209 0.965382 0.167137 0.249538
C79   C     C_R   0.504762 0.997416 0.190868 -0.167261
C80   C     C_3   0.892665 0.357114 0.536037 -0.403369
C81   C     C_3   0.830235 0.364550 0.426711 -0.754537
C82   C     C_3   0.073756 0.660704 0.424677 -0.453390
C83   C     C_3   0.003879 0.700877 0.335977 -0.838827
C84   C     C_3   0.392663 0.857116 0.536035 -0.403367
C85   C     C_3   0.330233 0.864552 0.426709 -0.754537
C86   C     C_3   0.573757 0.160704 0.424678 -0.453386
C87   C     C_3   0.503882 0.200880 0.335978 -0.838824
C88   C     C_R   0.057793 0.517873 0.775053 -0.210443
H1    H     H_    0.864246 0.472599 0.730948 0.126798
H2    H     H_    0.198452 0.673946 0.483658 0.132229
H3    H     H_    0.277683 0.853618 0.497038 0.141736
H4    H     H_    0.698454 0.173944 0.483660 0.132229
H5    H     H_    0.104220 0.540026 0.795793 0.202133
H6    H     H_    0.904334 0.442238 0.213522 0.199054
H7    H     H_    0.604223 0.040022 0.795796 0.202134
H8    H     H_    0.404333 0.942240 0.213521 0.199054
H9    H     H_    0.776607 0.348871 0.393700 0.217304
H10   H     H_    0.826402 0.421448 0.404464 0.277235
H11   H     H_    0.839735 0.326704 0.397649 0.252580
H12   H     H_    0.134651 0.543421 0.269877 0.129745
H13   H     H_    0.946426 0.364864 0.567106 0.191974
H14   H     H_    0.892963 0.299374 0.553574 0.192388
H15   H     H_    0.012356 0.730668 0.299793 0.269033
H16   H     H_    0.957452 0.661828 0.285135 0.260506
H17   H     H_    0.989368 0.741231 0.357010 0.260012
H18   H     H_    0.064844 0.630384 0.458678 0.232823
H19   H     H_    0.116238 0.702600 0.477366 0.208319
H20   H     H_    0.276605 0.848874 0.393698 0.217304
H21   H     H_    0.326401 0.921450 0.404463 0.277234
H22   H     H_    0.339733 0.826706 0.397647 0.252580
H23   H     H_    0.364245 0.972602 0.730947 0.126798
H24   H     H_    0.446424 0.864864 0.567104 0.191974
H25   H     H_    0.392960 0.799376 0.553572 0.192387
H26   H     H_    0.512364 0.230674 0.299800 0.269031
H27   H     H_    0.457455 0.161833 0.285130 0.260507
H28   H     H_    0.489370 0.241233 0.357011 0.260012
H29   H     H_    0.564840 0.130384 0.458674 0.232821
H30   H     H_    0.616241 0.202598 0.477371 0.208318
H31   H     H_    0.634651 0.043421 0.269877 0.129744
H32   H     H_    0.764417 0.404968 0.585328 0.152525
H33   H     H_    0.223988 0.623043 0.407949 0.149494
H34   H     H_    0.264414 0.904974 0.585325 0.152525
H35   H     H_    0.723989 0.123041 0.407951 0.149494
H36   H     H_    0.777687 0.353612 0.497042 0.141737
O1    O     O_R   0.892670 0.439420 0.892670 -0.606600
O2    O     O_R   0.000010 0.560580 0.091620 -0.625614
O3    O     O_R   0.000010 0.439420 0.091620 -0.591115
O4    O     O_R   0.999990 0.560580 0.908380 -0.596548
O5    O     O_R   0.499990 0.939420 0.908380 -0.623962
O6    O     O_R   0.500010 0.060580 0.091620 -0.625613
O7    O     O_R   0.500010 0.939420 0.091620 -0.591116
O8    O     O_R   0.499990 0.060580 0.908380 -0.596550
O9    O     O_R   0.060590 0.607350 0.560620 -0.634671
O10   O     O_R   0.939410 0.392650 0.439380 -0.629553
O11   O     O_R   0.939410 0.607350 0.439380 -0.611874
O12   O     O_R   0.107330 0.560580 0.107330 -0.611403
O13   O     O_R   0.060590 0.392650 0.560620 -0.611986
O14   O     O_R   0.560590 0.107350 0.560620 -0.634670
O15   O     O_R   0.439410 0.892650 0.439380 -0.629553
O16   O     O_R   0.439410 0.107350 0.439380 -0.611874
O17   O     O_R   0.560590 0.892650 0.560620 -0.611986
O18   O     O_R   0.060610 0.500000 0.652240 -0.620158
O19   O     O_R   0.939390 0.500000 0.347760 -0.616970
O20   O     O_R   0.560610 0.000000 0.652240 -0.620158
O21   O     O_R   0.439390 0.000000 0.347760 -0.616970
O22   O     O_R   0.939430 0.500000 0.531050 -0.615954
O23   O     O_R   0.107330 0.439420 0.107330 -0.621276
O24   O     O_R   0.060570 0.500000 0.468950 -0.626011
O25   O     O_R   0.439430 0.000000 0.531050 -0.615954
O26   O     O_R   0.560570 0.000000 0.468950 -0.626011
O27   O     O_R   0.500010 0.607330 0.448300 -0.610576
O28   O     O_R   0.499990 0.392670 0.551700 -0.609998
O29   O     O_R   0.499990 0.607330 0.551700 -0.623919
O30   O     O_R   0.500010 0.392670 0.448300 -0.626186
O31   O     O_R   0.000010 0.107330 0.448300 -0.610576
O32   O     O_R   0.999990 0.892670 0.551700 -0.609998
O33   O     O_R   0.999990 0.107330 0.551700 -0.623919
O34   O     O_R   0.892670 0.560580 0.892670 -0.622460
O35   O     O_R   0.000010 0.892670 0.448300 -0.626186
O36   O     O_R   0.607330 0.500000 0.555630 -0.627797
O37   O     O_R   0.392670 0.500000 0.444370 -0.628023
O38   O     O_R   0.107330 0.000000 0.555630 -0.627798
O39   O     O_R   0.892670 0.000000 0.444370 -0.628023
O40   O     O_R   0.607340 0.500000 0.659080 -0.603426
O41   O     O_R   0.392660 0.500000 0.340920 -0.601375
O42   O     O_R   0.107340 0.000000 0.659080 -0.603426
O43   O     O_R   0.892660 0.000000 0.340920 -0.601374
O44   O     O_R   0.392670 0.939420 0.892670 -0.606600
O45   O     O_R   0.607330 0.060580 0.107330 -0.611403
O46   O     O_R   0.607330 0.939420 0.107330 -0.621275
O47   O     O_R   0.392670 0.060580 0.892670 -0.622461
O48   O     O_R   0.999990 0.439420 0.908380 -0.623963
Zn1   Zn    Zn3+2 0.000000 0.419100 0.000000 1.014775
Zn2   Zn    Zn3+2 0.500000 0.500000 0.569060 0.992646
Zn3   Zn    Zn3+2 0.000000 0.000000 0.430940 0.993206
Zn4   Zn    Zn3+2 0.000000 0.000000 0.569060 0.992646
Zn5   Zn    Zn3+2 0.000000 0.580900 0.000000 1.007146
Zn6   Zn    Zn3+2 0.500000 0.919100 0.000000 1.014776
Zn7   Zn    Zn3+2 0.500000 0.080900 0.000000 1.007145
Zn8   Zn    Zn3+2 0.080920 0.500000 0.580940 0.975900
Zn9   Zn    Zn3+2 0.919080 0.500000 0.419060 0.956093
Zn10  Zn    Zn3+2 0.580920 0.000000 0.580940 0.975901
Zn11  Zn    Zn3+2 0.419080 0.000000 0.419060 0.956093
Zn12  Zn    Zn3+2 0.500000 0.500000 0.430940 0.993206

loop_
_geom_bond_atom_site_label_1
_geom_bond_atom_site_label_2
_ccdc_geom_bond_type
C51   C55   A    
C20   C38   S    
C19   O10   A    
C29   O33   A    
O6    Zn7   S    
C68   C72   A    
C21   C39   S    
C25   O20   A    
O3    Zn1   S    
C53   C58   A    
O9    Zn8   S    
C12   O12   A    
O19   Zn9   S    
C55   H34   S    
C3    C7    A    
O26   Zn10  S    
C18   O9    A    
C32   O41   A    
C71   C75   A    
C3    H7    S    
C9    C14   T    
C4    C78   A    
C2    H6    S    
C50   H12   S    
C82   H18   S    
C8    C70   A    
C15   C32   S    
C3    C67   A    
C51   C73   A    
Br2   C56   S    
C34   O46   A    
O20   Zn10  S    
C52   C74   A    
C63   C68   A    
C22   O18   A    
O32   Zn4   S    
C35   O43   A    
C28   O28   A    
O28   Zn2   S    
C74   C79   A    
C61   H4    S    
C83   H16   S    
C59   H2    S    
O46   Zn6   S    
C24   O19   A    
C17   C35   S    
C5    C22   S    
C80   H14   S    
C43   C79   S    
O24   Zn8   S    
C14   C31   S    
C37   C48   T    
C1    C9    S    
C81   H11   S    
O29   Zn2   S    
C8    C26   S    
C1    O1    A    
O39   Zn4   S    
C41   O2    A    
O37   Zn2   S    
C86   H30   S    
O43   Zn3   S    
C49   C71   A    
O22   Zn9   S    
C5    C88   A    
C88   H5    S    
C31   O40   A    
C28   O30   A    
C11   C16   T    
O14   Zn10  S    
C85   H21   S    
C58   C62   A    
C49   H1    S    
C52   H31   S    
C2    C56   A    
C22   O22   A    
O10   Zn9   S    
C5    C66   A    
C60   H3    S    
O34   Zn5   S    
C30   O35   A    
C7    C69   A    
C20   O14   A    
C33   O42   A    
C49   C53   A    
C82   C83   S    
C26   O21   A    
O25   Zn11  S    
C64   C69   A    
O1    Zn1   S    
C18   O11   A    
C13   C17   T    
C45   C75   A    
O42   Zn4   S    
C29   C48   S    
C62   C80   S    
C84   H24   S    
Br3   C67   S    
C59   C63   A    
C57   C61   A    
O4    Zn5   S    
C42   C77   S    
C11   C23   S    
C85   H20   S    
C73   C77   A    
C4    C8    A    
O12   Zn5   S    
C18   C36   S    
C80   H13   S    
C30   C47   S    
C87   H26   S    
Br4   C78   S    
C65   C70   A    
C57   H35   S    
C38   C44   T    
C80   C81   S    
O33   Zn4   S    
C7    C25   S    
C27   O29   A    
C50   C72   A    
O48   Zn1   S    
O21   Zn11  S    
C43   O6    A    
O35   Zn3   S    
C64   C84   S    
C86   H29   S    
C10   C12   S    
C72   C76   A    
C27   C46   S    
C23   O47   A    
C65   C86   S    
C60   C64   A    
C81   H9    S    
C25   O25   A    
C50   C54   A    
C6    C24   S    
C54   C59   A    
C85   H22   S    
C56   C76   A    
C63   C82   S    
C43   O7    A    
C52   C57   A    
O47   Zn7   S    
O15   Zn11  S    
C10   C15   T    
C40   C75   S    
C40   O48   A    
O41   Zn12  S    
O31   Zn3   S    
O36   Zn12  S    
O2    Zn5   S    
O30   Zn12  S    
C2    C6    A    
C27   O27   A    
C39   C46   T    
C41   O3    A    
C33   O38   A    
C83   H17   S    
C40   O4    A    
C36   C47   T    
C41   C76   S    
C62   C66   A    
C31   O36   A    
C19   C37   S    
O18   Zn8   S    
O17   Zn10  S    
O27   Zn12  S    
O13   Zn8   S    
C1    O34   A    
C24   O24   A    
C82   H19   S    
C4    H8    S    
C55   C60   A    
C34   O45   A    
C53   H32   S    
C58   H36   S    
C16   C33   S    
C86   C87   S    
C28   C44   S    
C51   H23   S    
C20   O16   A    
C61   C65   A    
C21   O15   A    
O8    Zn7   S    
C32   O37   A    
C12   O23   A    
C87   H27   S    
C13   C34   S    
C35   O39   A    
O23   Zn1   S    
C42   O8    A    
O44   Zn6   S    
O5    Zn6   S    
C26   O26   A    
C83   H15   S    
C84   C85   S    
O45   Zn7   S    
C54   H33   S    
C78   C79   A    
C70   C74   A    
C66   C71   A    
C69   C73   A    
C87   H28   S    
C19   O13   A    
C21   O17   A    
O38   Zn3   S    
C45   C88   A    
O7    Zn6   S    
C67   C77   A    
C84   H25   S    
O11   Zn9   S    
Br1   C45   S    
C23   O44   A    
O40   Zn2   S    
C81   H10   S    
C29   O31   A    
C6    C68   A    
C42   O5    A    
O16   Zn11  S    
C30   O32   A    
