data_mof_unit_67331.cif
_audit_creation_date              2013-03-05T16:05:41-0500
_audit_creation_method            fapswitch 2.2
_symmetry_space_group_name_H-M    P1
_symmetry_Int_Tables_number       1
_space_group_crystal_system       triclinic
_cell_length_a                    8.887729
_cell_length_b                    15.145646
_cell_length_c                    16.71071
_cell_angle_alpha                 111.884852
_cell_angle_beta                  99.005994
_cell_angle_gamma                 80.114862
_cell_volume                      2045.77562282

loop_
_atom_site_label
_atom_site_type_symbol
_atom_site_description
_atom_site_fract_x
_atom_site_fract_y
_atom_site_fract_z
_atom_type_partial_charge
P1    P     P_3+3 0.592580 0.619730 0.703530 0.561287
O1    O     O_2   0.428380 0.595290 0.716080 -0.330523
O2    O     O_3   0.649320 0.571640 0.606850 -0.376388
O3    O     O_3   0.202060 0.415890 0.655600 -0.406287
O4    O     O_2   0.314235 0.518858 0.808817 -0.325722
O5    O     O_3   0.580730 0.746842 0.748152 -0.554200
O6    O     O_3   0.268775 0.348399 0.804238 -0.598181
C1    C     C_3   0.319858 0.176235 0.783742 -0.067393
P2    P     P_3+3 0.156500 0.273340 0.422460 0.600820
P3    P     P_3+3 0.681937 0.242016 0.602150 0.447768
O7    O     O_2   0.338780 0.265250 0.448290 -0.364967
O8    O     O_3   0.612600 0.359160 0.609560 -0.382420
O9    O     O_2   0.549214 0.182068 0.552585 -0.476248
O10   O     O_3   0.134362 0.210436 0.306938 -0.514457
O11   O     O_3   0.701405 0.236430 0.707327 -0.510275
C2    C     C_3   0.714657 0.326951 0.775350 0.476032
H1    H     H_    0.778203 0.371987 0.757568 0.091037
C3    C     C_3   0.802765 0.313207 0.860562 -0.369293
C4    C     C_3   0.652416 0.194117 0.303616 0.653444
C5    C     C_3   0.617819 0.087871 0.251297 -0.396087
H2    H     H_    0.697323 0.054466 0.199932 0.237349
Ba1   Ba    Ba6+2 0.364200 0.465260 0.540910 1.625138
C6    C     C_3   0.483686 0.798898 0.701853 0.604286
H3    H     H_    0.372901 0.768718 0.676636 -0.019973
C7    C     C_3   0.453403 0.906431 0.762331 -0.018428
H4    H     H_    0.423340 0.951308 0.720819 0.080110
C8    C     C_3   0.099377 0.269566 0.256152 0.674256
H5    H     H_    0.021493 0.334484 0.287459 0.082915
C9    C     C_3   0.021352 0.217846 0.161501 0.009098
P4    P     P_3+3 0.597130 0.380190 0.296460 0.596695
O12   O     O_2   0.761310 0.404670 0.283870 -0.358825
O13   O     O_3   0.540390 0.428280 0.393140 -0.380944
O14   O     O_3   0.987650 0.584030 0.344390 -0.378576
O15   O     O_3   0.604770 0.251168 0.250560 -0.551348
P5    P     P_3+3 0.514866 0.763171 0.405116 0.507878
O16   O     O_3   0.122140 0.620560 0.549160 -0.393890
O17   O     O_3   0.577110 0.640760 0.390430 -0.325770
O18   O     O_2   0.641279 0.818123 0.469192 -0.330361
O19   O     O_3   0.527683 0.793537 0.313961 -0.583164
Ba2   Ba    Ba6+2 0.825640 0.534660 0.459080 1.650948
P6    P     P_3+3 0.196845 0.446179 0.767806 0.499078
C10   C     C_3   0.238761 0.255338 0.744727 0.601022
H6    H     H_    0.262659 0.110145 0.753588 0.122529
O20   O     O_3   0.067570 0.379360 0.450830 -0.389249
C11   C     C_3   0.015920 0.765847 0.737584 0.168519
H7    H     H_    0.890780 0.760571 0.723501 0.133669
H8    H     H_    0.087530 0.696150 0.726329 0.089118
C12   C     C_3   0.049277 0.825642 0.834150 0.007149
H9    H     H_    0.173177 0.832492 0.848370 0.157934
P7    P     P_3+3 0.031685 0.741461 0.575189 0.456381
O21   O     O_2   0.850910 0.734710 0.551660 -0.288876
O22   O     O_3   0.061146 0.809501 0.686408 -0.610265
H10   H     H_    0.921242 0.330836 0.866038 0.213817
C13   C     C_3   0.480521 0.726977 0.230957 0.495675
C14   C     C_3   0.498350 0.770461 0.159486 0.270158
P8    P     P_3+3 0.007223 0.559333 0.234256 0.519690
C15   C     C_3   0.978605 0.748535 0.283856 0.339023
H11   H     H_    0.086952 0.732579 0.321364 -0.024431
O23   O     O_2   0.886965 0.490424 0.181971 -0.336168
O24   O     O_3   0.941733 0.665575 0.211928 -0.421404
H12   H     H_    0.123049 0.846905 0.274051 0.118521
C16   C     C_3   0.003316 0.831201 0.254505 -0.116801
H13   H     H_    0.935603 0.899995 0.289823 0.094952
C17   C     C_2   0.309466 0.481869 0.247623 -0.445245
C18   C     C_R   0.892780 0.539525 0.752681 -0.289365
C19   C     C_2   0.473226 0.384231 0.133965 -0.124974
C20   C     C_2   0.458284 0.425591 0.219635 0.423861
C21   C     C_2   0.194068 0.501897 0.192139 0.148624
C22   C     C_3   0.225564 0.482541 0.099444 -0.121668
C23   C     C_3   0.342994 0.393524 0.065993 0.263543
C24   C     C_2   0.091009 0.488633 0.030898 -0.139392
C25   C     C_2   0.107585 0.518239 0.965211 0.151756
C26   C     C_R   0.844517 0.586478 0.924997 0.221195
C27   C     C_R   0.981440 0.529834 0.897020 -0.223908
C28   C     C_R   0.727147 0.612420 0.868195 0.122950
C29   C     C_R   0.744087 0.579656 0.778884 0.066721
C30   C     C_R   0.008661 0.508936 0.809364 0.314426
H14   H     H_    0.574788 0.334736 0.111976 0.132464
H15   H     H_    0.286893 0.496181 0.312867 0.182226
H16   H     H_    0.984390 0.464897 0.032804 0.152613
C31   C     C_R   0.860692 0.185998 0.545007 0.267564
H17   H     H_    0.750552 0.063680 0.597954 0.189504
C32   C     C_R   0.073555 0.205198 0.476972 0.336504
C33   C     C_R   0.241205 0.762846 0.475874 -0.283204
C34   C     C_R   0.332301 0.817191 0.455399 0.261467
C35   C     C_R   0.283454 0.914318 0.471329 -0.354068
C36   C     C_R   0.135787 0.956913 0.496956 0.062924
C37   C     C_R   0.055151 0.903642 0.527593 -0.068233
C38   C     C_R   0.068728 0.051693 0.498048 -0.016047
C39   C     C_R   0.927631 0.091552 0.536427 -0.024453
C40   C     C_R   0.856769 0.037429 0.568620 -0.055238
C41   C     C_R   0.919785 0.946938 0.565295 -0.132207
C42   C     C_R   0.131245 0.107742 0.460740 -0.111480
C43   C     C_R   0.937507 0.243421 0.519606 -0.250538
C44   C     C_R   0.109730 0.807012 0.518461 0.164261
H18   H     H_    0.364872 0.954340 0.463788 0.164998
H19   H     H_    0.858364 0.911058 0.592102 0.228276
N1    N     N_3   0.292237 0.237523 0.661064 -0.179375
H20   H     H_    0.294482 0.164939 0.622666 0.051314
H21   H     H_    0.401918 0.257196 0.672238 0.181770
N2    N     N_3   0.642907 0.028134 0.305418 -0.191568
H22   H     H_    0.739675 0.041564 0.350302 0.141432
H23   H     H_    0.547737 0.039213 0.339100 0.145490
N3    N     N_3   0.462879 0.082559 0.207378 -0.123356
H24   H     H_    0.386051 0.128153 0.250605 0.221703
H25   H     H_    0.456484 0.104020 0.154225 0.248935
N4    N     N_R   0.560933 0.795465 0.630229 0.186161
O25   O     O_R   0.575599 0.716320 0.564735 -0.371157
O26   O     O_R   0.635641 0.865061 0.636875 -0.412975
N5    N     N_3   0.324210 0.923722 0.812134 -0.203053
H26   H     H_    0.327574 0.989920 0.862969 0.204353
H27   H     H_    0.225053 0.933365 0.772160 0.100597
N6    N     N_R   0.590318 0.937830 0.821238 0.292343
O27   O     O_R   0.628303 0.912688 0.888816 -0.265420
O28   O     O_R   0.662535 0.001131 0.812912 -0.381858
N7    N     N_R   0.240190 0.301653 0.253331 0.138653
O29   O     O_R   0.308846 0.348192 0.327371 -0.421100
O30   O     O_R   0.316012 0.263659 0.185619 -0.478637
N8    N     N_3   0.479545 0.145586 0.766042 -0.162756
H28   H     H_    0.532225 0.206708 0.784858 0.162068
H29   H     H_    0.487842 0.107189 0.700067 0.129717
N9    N     N_R   0.120988 0.131616 0.112821 0.260055
O31   O     O_R   0.152710 0.058586 0.138412 -0.303397
O32   O     O_R   0.167126 0.123497 0.039876 -0.358978
N10   N     N_3   0.988740 0.286671 0.115627 -0.212086
H30   H     H_    0.936413 0.253521 0.053269 0.125728
H31   H     H_    0.089205 0.307214 0.106815 0.177779
N11   N     N_3   0.874326 0.189462 0.166539 -0.154050
H32   H     H_    0.888840 0.118415 0.163159 0.218813
H33   H     H_    0.796970 0.189990 0.112628 0.125788
N12   N     N_R   0.074442 0.250672 0.730226 0.210675
O33   O     O_R   0.015968 0.177648 0.730364 -0.429534
O34   O     O_R   0.991158 0.308246 0.695852 -0.514069
N13   N     N_3   0.960941 0.921106 0.856335 -0.121939
H34   H     H_    0.999623 0.962208 0.919677 0.199026
H35   H     H_    0.984849 0.955512 0.816825 0.162044
N14   N     N_R   0.015779 0.775875 0.887911 0.253057
O35   O     O_R   0.916930 0.815765 0.944718 -0.229563
O36   O     O_R   0.107060 0.700322 0.891174 -0.356088
N15   N     N_R   0.310924 0.209615 0.877525 0.287647
O37   O     O_R   0.178572 0.238403 0.908418 -0.409901
O38   O     O_R   0.432826 0.201417 0.929985 -0.377657
N16   N     N_R   0.576491 0.634549 0.214448 0.234547
O39   O     O_R   0.543046 0.559928 0.147682 -0.452036
O40   O     O_R   0.698261 0.626433 0.265356 -0.265352
N17   N     N_3   0.321367 0.712351 0.227964 -0.212702
H36   H     H_    0.317136 0.672806 0.266556 0.051382
H37   H     H_    0.285826 0.668491 0.165593 0.131108
N18   N     N_R   0.581169 0.698253 0.088097 0.261672
O41   O     O_R   0.513070 0.631070 0.027597 -0.377894
O42   O     O_R   0.729562 0.690892 0.092311 -0.322004
N19   N     N_R   0.348202 0.807999 0.125394 0.235770
O43   O     O_R   0.270318 0.882309 0.177354 -0.355605
O44   O     O_R   0.311013 0.785572 0.042406 -0.233050
N20   N     N_3   0.585919 0.852123 0.198690 -0.172251
H38   H     H_    0.694488 0.830371 0.223418 0.160813
H39   H     H_    0.599988 0.877743 0.150523 0.208138
N21   N     N_3   0.855630 0.781932 0.341207 -0.142859
H40   H     H_    0.872890 0.743421 0.382714 0.206426
H41   H     H_    0.861255 0.852952 0.382344 0.057195
N22   N     N_3   0.563760 0.381057 0.790160 -0.169385
H42   H     H_    0.578413 0.453551 0.819076 0.104260
H43   H     H_    0.519222 0.364772 0.836081 0.159875
N23   N     N_R   0.967450 0.811481 0.161467 0.339688
O45   O     O_R   0.037027 0.736856 0.105475 -0.297251
O46   O     O_R   0.886324 0.877284 0.134974 -0.294745
N24   N     N_R   0.607999 0.687533 0.904623 0.297463
O47   O     O_R   0.643681 0.768544 0.962156 -0.238952
O48   O     O_R   0.464047 0.676314 0.881933 -0.266004
N25   N     N_3   0.931782 0.542186 0.673300 -0.154823
H44   H     H_    0.884613 0.607218 0.667620 0.126019
H45   H     H_    0.045550 0.552552 0.679720 0.152372
N26   N     N_3   0.246981 0.553186 0.966527 -0.086573
H46   H     H_    0.256320 0.612774 0.023084 0.221887
H47   H     H_    0.339047 0.499985 0.966607 0.173038
N27   N     N_3   0.880929 0.343249 0.545912 -0.154547
H48   H     H_    0.971941 0.381620 0.575475 0.190616
H49   H     H_    0.827543 0.363850 0.494849 0.180040
N28   N     N_3   0.236708 0.065968 0.395931 -0.150464
H50   H     H_    0.217609 0.996232 0.356204 0.169861
H51   H     H_    0.349084 0.072438 0.424851 0.127356
N29   N     N_3   0.272191 0.661164 0.446467 -0.145481
H52   H     H_    0.289416 0.639915 0.381933 0.068702
H53   H     H_    0.370984 0.639608 0.480146 0.203612
N30   N     N_3   0.733630 0.377679 0.939586 -0.219393
H54   H     H_    0.741311 0.448456 0.947894 0.137166
H55   H     H_    0.796805 0.364698 0.993100 0.149985
N31   N     N_3   0.812577 0.213417 0.855533 -0.097574
H56   H     H_    0.913475 0.197151 0.891356 0.200449
H57   H     H_    0.724096 0.206359 0.886356 0.183620
N32   N     N_R   0.814545 0.194056 0.326726 0.152736
O49   O     O_R   0.912196 0.116275 0.309428 -0.463974
O50   O     O_R   0.861580 0.276521 0.353348 -0.471124
N33   N     N_3   0.576741 0.233069 0.382471 -0.131904
H58   H     H_    0.605731 0.186266 0.416195 0.065337
H59   H     H_    0.622876 0.293672 0.425707 0.156942

loop_
_geom_bond_atom_site_label_1
_geom_bond_atom_site_label_2
_geom_bond_distance
_ccdc_geom_bond_type
N33   H59   1.036699 S    
C15   N21   1.464808 S    
C28   C29   1.410291 A    
N2    H22   1.043071 S    
C9    N10   1.476697 S    
C8    C9    1.586090 S    
N4    O26   1.301620 A    
C26   C27   1.398617 A    
C4    C5    1.576464 S    
C1    H6    1.110308 S    
C36   C37   1.431098 A    
N11   H32   1.042608 S    
N3    H25   1.044470 S    
N22   H42   1.043970 S    
C42   N28   1.433585 S    
C15   C16   1.562787 S    
N24   O48   1.297793 A    
N26   H46   1.039183 S    
N7    O29   1.288860 A    
C14   N20   1.459960 S    
N14   O36   1.297874 A    
N23   O46   1.300537 A    
C18   C29   1.419368 A    
Ba1   O13   2.956674 S    
C12   N14   1.459267 S    
C17   C21   1.344886 D    
C12   N13   1.464966 S    
N23   O45   1.299272 A    
P5    O17   1.776160 S    
N15   O38   1.302061 A    
N17   H36   1.038903 S    
O17   Ba2   2.853010 S    
P3    O11   1.771103 S    
C10   N1    1.461531 S    
P6    C30   1.873177 S    
P4    O12   1.628182 D    
P7    C44   1.873335 S    
N30   H55   1.043836 S    
O19   C13   1.427069 S    
N20   H39   1.046455 S    
N25   H44   1.034580 S    
N16   O39   1.296904 A    
C32   C42   1.414348 A    
O8    Ba1   2.852300 S    
O12   Ba2   2.888018 S    
N31   H57   1.044923 S    
P1    O1    1.627855 D    
O6    C10   1.431038 S    
C22   C24   1.537132 S    
N5    H26   1.046507 S    
C24   H16   1.078487 S    
C3    H10   1.112026 S    
N29   H52   1.032485 S    
C16   N23   1.462662 S    
C37   C41   1.390269 A    
C21   C22   1.527332 S    
C27   C30   1.429462 A    
O1    Ba1   2.887527 S    
P7    O22   1.759897 S    
N4    O25   1.290235 A    
C10   N12   1.452040 S    
O10   C8    1.416805 S    
P4    C20   1.874717 S    
C39   C40   1.403606 A    
C13   N17   1.459314 S    
C8    H5    1.102629 S    
C8    N7    1.431443 S    
O14   P8    1.766925 S    
N26   H47   1.045416 S    
N33   H58   1.037356 S    
C37   C44   1.418942 A    
Ba1   Ba2   4.909331 S    
P1    Ba1   3.484577 S    
N2    H23   1.044185 S    
C4    N33   1.448614 S    
N21   H41   1.043325 S    
C26   C28   1.403859 A    
H12   C16   1.102653 S    
N10   H30   1.045309 S    
N3    H24   1.041903 S    
N22   H43   1.037344 S    
C41   H19   1.074182 S    
C14   N18   1.478816 S    
N17   H37   1.039321 S    
C11   H8    1.101606 S    
C19   H14   1.085317 S    
Ba1   O20   3.063369 S    
O14   Ba2   2.933869 S    
C18   C30   1.424955 A    
P4    O15   1.806904 S    
N32   O49   1.303153 A    
C17   C20   1.484613 S    
O16   Ba2   3.062381 S    
P5    O18   1.543237 D    
C19   C20   1.349796 D    
N15   O37   1.298666 A    
C25   C27   1.505970 S    
N24   O47   1.299646 A    
C35   C36   1.414692 A    
C2    H1    1.099287 S    
C15   O24   1.422347 S    
N13   H35   1.044526 S    
C5    N2    1.471009 S    
C11   O22   1.396576 S    
C7    H4    1.116117 S    
C34   C35   1.395816 A    
C32   C43   1.423611 A    
C4    O15   1.428264 S    
H17   C40   1.077157 S    
P8    O24   1.767827 S    
N6    O28   1.299677 A    
N31   H56   1.043675 S    
P1    O2    1.626861 S    
C33   C44   1.398721 A    
P5    O19   1.771831 S    
P2    O10   1.802059 S    
N32   O50   1.280423 A    
C16   H13   1.110678 S    
C7    N6    1.466494 S    
O3    Ba1   2.934603 S    
C35   H18   1.069130 S    
C6    H3    1.112224 S    
C6    N4    1.450933 S    
C9    N9    1.479199 S    
P7    O21   1.604722 D    
P4    Ba2   3.485241 S    
C25   N26   1.422497 S    
C33   C34   1.405534 A    
P2    O7    1.605692 D    
N8    H29   1.044941 S    
P3    O8    1.740023 S    
C7    N5    1.453649 S    
P2    C32   1.900187 S    
C31   C39   1.415022 A    
N27   H48   1.028765 S    
N19   O44   1.300649 A    
O2    Ba2   2.957398 S    
N1    H21   1.036917 S    
C36   C38   1.451318 A    
N21   H40   1.040387 S    
C17   H15   1.073918 S    
N9    O32   1.302521 A    
N12   O33   1.301144 A    
C40   C41   1.372799 A    
O13   Ba2   3.072763 S    
O16   P7    1.788518 S    
N6    O27   1.300511 A    
C11   C12   1.537855 S    
N16   O40   1.286135 A    
O4    P6    1.542066 D    
C13   C14   1.602102 S    
C12   H9    1.103983 S    
P2    O20   1.594340 S    
C3    N30   1.470242 S    
N29   H53   1.038333 S    
P1    C29   1.877638 S    
C33   N29   1.421844 S    
C1    C10   1.587013 S    
N12   O34   1.287199 A    
P3    O9    1.550192 D    
N11   H33   1.045916 S    
N8    H28   1.029948 S    
N13   H34   1.046170 S    
C5    N3    1.455689 S    
C2    N22   1.451487 S    
Ba2   O21   2.873068 S    
Ba1   O16   2.879848 S    
N14   O35   1.299739 A    
P1    O5    1.777152 S    
P3    C31   1.887834 S    
N30   H54   1.041270 S    
P8    O23   1.551081 D    
C18   N25   1.438760 S    
C1    N15   1.467135 S    
N18   O42   1.297353 A    
C38   C39   1.432333 A    
C24   C25   1.366702 D    
P8    C21   1.850207 S    
N18   O41   1.294910 A    
P4    O13   1.626859 S    
C31   C43   1.404447 A    
P5    C34   1.861927 S    
C15   H11   1.105722 S    
C19   C23   1.517030 S    
N25   H45   1.032735 S    
O5    C6    1.405864 S    
C3    N31   1.470132 S    
N7    O30   1.298364 A    
C13   N16   1.462569 S    
O6    P6    1.788227 S    
C38   C42   1.443250 A    
C22   C23   1.535295 S    
P2    Ba1   3.490558 S    
N5    H27   1.043284 S    
N28   H50   1.043381 S    
C11   H7    1.110556 S    
Ba2   O20   2.879139 S    
C6    C7    1.566510 S    
C5    H2    1.111498 S    
O7    Ba1   2.872865 S    
C2    C3    1.581170 S    
N1    H20   1.044628 S    
O3    P6    1.762689 S    
C9    N11   1.467564 S    
C4    N32   1.432167 S    
N20   H38   1.038214 S    
N10   H31   1.042342 S    
O2    Ba1   3.071770 S    
C28   N24   1.434603 S    
N19   O43   1.300744 A    
C14   N19   1.473633 S    
N9    O31   1.301377 A    
O11   C2    1.427347 S    
C1    N8    1.456059 S    
C43   N27   1.429965 S    
N27   H49   1.035130 S    
N28   H51   1.043009 S    
