data_mof_unit_46535.cif
_audit_creation_date              2013-03-05T15:59:39-0500
_audit_creation_method            fapswitch 2.2
_symmetry_space_group_name_H-M    P1
_symmetry_Int_Tables_number       1
_space_group_crystal_system       triclinic
_cell_length_a                    14.99106
_cell_length_b                    13.878141
_cell_length_c                    27.750143
_cell_angle_alpha                 89.617092
_cell_angle_beta                  88.196549
_cell_angle_gamma                 89.957166
_cell_volume                      5770.37354827

loop_
_atom_site_label
_atom_site_type_symbol
_atom_site_description
_atom_site_fract_x
_atom_site_fract_y
_atom_site_fract_z
_atom_type_partial_charge
O1    O     O_R   0.370260 0.582280 0.500010 -0.611915
O2    O     O_R   0.629740 0.417720 0.499990 -0.536667
O3    O     O_R   0.629740 0.582280 0.499990 -0.610196
O4    O     O_R   0.370260 0.417720 0.500010 -0.547430
C1    C     C_R   0.329329 0.500140 0.500338 0.782069
C2    C     C_R   0.670651 0.500058 0.499876 0.791143
O5    O     O_R   0.500020 0.582260 0.430260 -0.514410
O6    O     O_R   0.499980 0.417740 0.569740 -0.547799
O7    O     O_R   0.499980 0.582260 0.569740 -0.570071
O8    O     O_R   0.500020 0.417740 0.430260 -0.627743
C3    C     C_R   0.501326 0.500154 0.407607 0.817200
C4    C     C_R   0.498917 0.499602 0.592644 0.807006
Cu1   Cu    Cu3+1 0.500000 0.597420 0.500000 0.969986
Cu2   Cu    Cu3+1 0.500000 0.402580 0.500000 0.983474
C5    C     C_R   0.426151 0.533891 0.180107 0.601286
C6    C     C_R   0.572213 0.502950 0.821125 0.600959
O9    O     O_2   0.358940 0.571199 0.207567 -0.466295
O10   O     O_2   0.648171 0.499585 0.793790 -0.466825
N1    N     N_R   0.497998 0.494310 0.202132 -0.470838
N2    N     N_R   0.492134 0.507069 0.798939 -0.471581
C7    C     C_R   0.568082 0.455830 0.176177 0.540753
C8    C     C_R   0.413137 0.510995 0.824657 0.542550
C9    C     C_R   0.556740 0.559223 0.276691 -0.213717
C10   C     C_R   0.495752 0.416052 0.723707 -0.223703
C11   C     C_R   0.558271 0.562160 0.327295 0.394865
C12   C     C_R   0.498100 0.412109 0.673052 0.391565
C13   C     C_R   0.447551 0.433822 0.331259 -0.313655
C14   C     C_R   0.490306 0.587550 0.670655 -0.275506
C15   C     C_R   0.446296 0.431880 0.281103 -0.116431
C16   C     C_R   0.487910 0.590084 0.720833 -0.119598
C17   C     C_R   0.500530 0.494840 0.253733 0.313359
C18   C     C_R   0.491153 0.504490 0.747373 0.321429
C19   C     C_R   0.495110 0.497171 0.102040 -0.132068
C20   C     C_R   0.493828 0.505139 0.899015 -0.132390
C21   C     C_R   0.422893 0.536700 0.129252 -0.108245
C22   C     C_R   0.575274 0.502163 0.871982 -0.109025
C23   C     C_R   0.351043 0.579491 0.105085 0.332489
C24   C     C_R   0.656771 0.499527 0.896313 0.332716
C25   C     C_R   0.568005 0.456373 0.125671 0.007885
C26   C     C_R   0.412357 0.509993 0.875188 0.007249
C27   C     C_R   0.502243 0.499607 0.354674 -0.057425
C28   C     C_R   0.495897 0.499157 0.646073 -0.074006
H1    H     H_    0.404728 0.384863 0.351896 0.168668
H2    H     H_    0.488184 0.655268 0.651143 0.218448
H3    H     H_    0.403020 0.381646 0.263436 0.146671
H4    H     H_    0.484377 0.658702 0.739151 0.145013
C29   C     C_R   0.412524 0.513721 0.976949 0.084932
C30   C     C_R   0.570438 0.466196 0.024028 0.083807
C31   C     C_R   0.574262 0.486917 0.973747 -0.044512
C32   C     C_R   0.417830 0.529848 0.027383 -0.044583
C33   C     C_R   0.493506 0.501616 0.949886 -0.034880
C34   C     C_R   0.494254 0.497306 0.051169 -0.034893
C35   C     C_R   0.330373 0.507909 0.952544 0.046098
C36   C     C_R   0.638510 0.414897 0.048165 0.046655
C37   C     C_R   0.331724 0.508923 0.902051 -0.227099
C38   C     C_R   0.637524 0.413396 0.098634 -0.225488
O11   O     O_2   0.335616 0.515100 0.801288 -0.571082
O12   O     O_2   0.637469 0.416840 0.199293 -0.570505
C39   C     C_R   0.352643 0.582645 0.053980 0.294900
C40   C     C_R   0.655700 0.499483 0.947412 0.295287
H5    H     H_    0.498138 0.350403 0.744974 0.122203
H6    H     H_    0.599000 0.606950 0.254999 0.128974
H7    H     H_    0.269137 0.504868 0.883642 0.171405
H8    H     H_    0.689783 0.374974 0.116872 0.174446
C41   C     C_R   0.815783 0.507882 0.453600 0.335348
C42   C     C_R   0.184096 0.509146 0.546505 0.337834
C43   C     C_R   0.766970 0.500420 0.497873 -0.128597
C44   C     C_R   0.232994 0.500811 0.502323 -0.123277
C45   C     C_R   0.809578 0.495603 0.541465 -0.269484
C46   C     C_R   0.190412 0.495262 0.458752 -0.274478
C47   C     C_R   0.901906 0.497983 0.542483 0.105081
C48   C     C_R   0.098072 0.497781 0.457666 0.107284
C49   C     C_R   0.953048 0.499703 0.499036 -0.006727
C50   C     C_R   0.046927 0.499721 0.501103 -0.007118
C51   C     C_R   0.910330 0.502555 0.453742 0.034490
C52   C     C_R   0.089624 0.502856 0.546391 0.033250
C53   C     C_R   0.942986 0.498421 0.586834 -0.266276
C54   C     C_R   0.056961 0.498256 0.413285 -0.268869
C55   C     C_R   0.035670 0.501407 0.589639 -0.011484
C56   C     C_R   0.964266 0.501318 0.410494 -0.012604
H9    H     H_    0.770063 0.492071 0.574915 0.151812
H10   H     H_    0.229955 0.491251 0.425349 0.146361
H11   H     H_    0.902273 0.496405 0.619888 0.156412
H12   H     H_    0.097618 0.496459 0.380223 0.153252
C57   C     C_R   0.450860 0.793439 0.534344 0.461744
C58   C     C_R   0.564728 0.206341 0.474188 0.464670
C59   C     C_R   0.549252 0.794457 0.465826 0.456876
C60   C     C_R   0.435419 0.205729 0.525966 0.485376
N3    N     N_R   0.500000 0.743810 0.500000 -0.260670
N4    N     N_R   0.500000 0.256190 0.500000 -0.258763
C61   C     C_R   0.556524 0.897004 0.467618 -0.068021
C62   C     C_R   0.437371 0.102844 0.529233 -0.065602
C63   C     C_R   0.443803 0.896148 0.532698 -0.064324
C64   C     C_R   0.562812 0.103552 0.470964 -0.068616
C65   C     C_R   0.500117 0.948372 0.500132 -0.033698
C66   C     C_R   0.500086 0.051553 0.500102 -0.038224
C67   C     C_R   0.618570 0.949265 0.437722 -0.051765
C68   C     C_R   0.378303 0.049776 0.560766 -0.054524
C69   C     C_R   0.382051 0.947760 0.562741 -0.051452
C70   C     C_R   0.622103 0.051273 0.439567 -0.052174
C71   C     C_R   0.071509 0.500224 0.638819 0.203551
C72   C     C_R   0.054686 0.577994 0.669937 -0.148983
C73   C     C_R   0.087028 0.576635 0.716649 -0.143008
C74   C     C_R   0.136262 0.497776 0.732594 -0.061836
C75   C     C_R   0.152603 0.419744 0.702009 -0.126928
C76   C     C_R   0.119354 0.420204 0.655452 -0.076112
H13   H     H_    0.016893 0.639710 0.657905 0.118438
H14   H     H_    0.074100 0.636845 0.740458 0.131400
H15   H     H_    0.161457 0.496998 0.768707 0.167751
H16   H     H_    0.191039 0.359056 0.714497 0.132175
H17   H     H_    0.132004 0.359402 0.631992 0.140244
C77   C     C_R   0.928108 0.501391 0.361399 0.201982
C78   C     C_R   0.941426 0.581631 0.330947 -0.133149
C79   C     C_R   0.906280 0.582716 0.284853 -0.150789
C80   C     C_R   0.857814 0.503801 0.268875 -0.088491
C81   C     C_R   0.845548 0.423065 0.298679 -0.114774
C82   C     C_R   0.881547 0.421157 0.344598 -0.084067
H18   H     H_    0.978217 0.643550 0.343130 0.116843
H19   H     H_    0.916207 0.644955 0.261602 0.129039
H20   H     H_    0.829921 0.505114 0.233368 0.151069
H21   H     H_    0.807812 0.362294 0.286153 0.141022
H22   H     H_    0.871447 0.358621 0.367614 0.138073
O13   O     O_3   0.412445 0.744493 0.572718 -0.726819
H23   H     H_    0.373532 0.694884 0.559478 0.359584
O14   O     O_3   0.635586 0.255282 0.453371 -0.710063
H24   H     H_    0.610880 0.304732 0.432015 0.353154
O15   O     O_3   0.587593 0.746731 0.427459 -0.666924
H25   H     H_    0.626103 0.696367 0.440717 0.374794
O16   O     O_3   0.364831 0.254157 0.547111 -0.713207
H26   H     H_    0.389735 0.304551 0.567457 0.375438
C83   C     C_R   0.685001 0.898730 0.405909 0.178791
C84   C     C_R   0.673374 0.895311 0.355932 -0.053408
C85   C     C_R   0.737392 0.850706 0.325952 -0.156040
C86   C     C_R   0.812825 0.808700 0.345687 -0.084784
C87   C     C_R   0.824252 0.810689 0.395469 -0.093291
C88   C     C_R   0.760762 0.855987 0.425571 -0.162992
H27   H     H_    0.615149 0.927738 0.340317 0.117718
H28   H     H_    0.728573 0.848734 0.287414 0.125719
H29   H     H_    0.862547 0.775036 0.322330 0.120716
H30   H     H_    0.882569 0.777697 0.410666 0.127771
H31   H     H_    0.770514 0.858097 0.464053 0.118701
C89   C     C_R   0.313741 0.098350 0.594265 0.187559
C90   C     C_R   0.223077 0.103325 0.583242 -0.077928
C91   C     C_R   0.160958 0.140271 0.616876 -0.141181
C92   C     C_R   0.188987 0.172272 0.661574 -0.133653
C93   C     C_R   0.279428 0.169352 0.672358 -0.128433
C94   C     C_R   0.341759 0.132193 0.638870 -0.123448
H32   H     H_    0.200555 0.076726 0.549099 0.114531
H33   H     H_    0.090964 0.143073 0.608530 0.129255
H34   H     H_    0.140486 0.199311 0.687833 0.123579
H35   H     H_    0.301042 0.194616 0.706910 0.127053
H36   H     H_    0.411342 0.127658 0.647973 0.122188
C95   C     C_R   0.316504 0.896471 0.595055 0.181780
C96   C     C_R   0.331117 0.888912 0.644673 -0.085947
C97   C     C_R   0.269089 0.841438 0.675033 -0.129501
C98   C     C_R   0.192406 0.801249 0.656056 -0.074525
C99   C     C_R   0.177749 0.807927 0.606644 -0.109578
C100  C     C_R   0.239444 0.855709 0.576152 -0.161331
H37   H     H_    0.390400 0.919779 0.659675 0.113617
H38   H     H_    0.280378 0.835924 0.713282 0.130329
H39   H     H_    0.144248 0.765287 0.679711 0.124629
H40   H     H_    0.118480 0.776340 0.592025 0.130758
H41   H     H_    0.227475 0.860936 0.537940 0.120497
C101  C     C_R   0.686798 0.100704 0.406133 0.187449
C102  C     C_R   0.777729 0.103379 0.416754 -0.072179
C103  C     C_R   0.839972 0.140213 0.382935 -0.141395
C104  C     C_R   0.811815 0.174486 0.338459 -0.134785
C105  C     C_R   0.721135 0.174182 0.328135 -0.126571
C106  C     C_R   0.658631 0.137239 0.361825 -0.153501
H42   H     H_    0.800358 0.074824 0.450673 0.114726
H43   H     H_    0.910155 0.141075 0.390944 0.127720
H44   H     H_    0.860387 0.201392 0.312034 0.123304
H45   H     H_    0.699449 0.201303 0.293769 0.145222
H46   H     H_    0.588774 0.134948 0.353067 0.121487
O17   O     O_3   0.280037 0.617584 0.131609 -0.675888
H47   H     H_    0.225795 0.614469 0.112149 0.328370
O18   O     O_3   0.736456 0.496507 0.869946 -0.677512
H48   H     H_    0.781729 0.463265 0.889352 0.327531
O19   O     O_3   0.503265 0.324575 0.649697 -0.731620
H49   H     H_    0.504499 0.271849 0.673961 0.309847
O20   O     O_3   0.615498 0.622946 0.350406 -0.692109
H50   H     H_    0.651416 0.659666 0.325951 0.337706
C107  C     C_R   0.243477 0.486463 0.977902 0.166489
C108  C     C_R   0.166318 0.539076 0.966931 -0.089478
C109  C     C_R   0.085106 0.519434 0.991159 -0.132997
C110  C     C_R   0.079915 0.446854 0.026246 -0.115674
C111  C     C_R   0.155721 0.393095 0.036853 -0.134733
C112  C     C_R   0.237062 0.412307 0.012672 -0.165207
H51   H     H_    0.169425 0.596471 0.940299 0.129573
H52   H     H_    0.026242 0.560826 0.982887 0.137468
H53   H     H_    0.017137 0.432282 0.045200 0.123177
H54   H     H_    0.151475 0.336498 0.063848 0.133973
H55   H     H_    0.295064 0.369603 0.021158 0.119222
C113  C     C_R   0.703190 0.350156 0.022458 0.170810
C114  C     C_R   0.794362 0.351753 0.033128 -0.093516
C115  C     C_R   0.854653 0.290774 0.008842 -0.147773
C116  C     C_R   0.824624 0.227403 0.973986 -0.103407
C117  C     C_R   0.734147 0.224443 0.963511 -0.127513
C118  C     C_R   0.673539 0.285044 0.987758 -0.167534
H56   H     H_    0.818941 0.401190 0.059664 0.123242
H57   H     H_    0.924730 0.292636 0.016991 0.126639
H58   H     H_    0.871443 0.180371 0.955194 0.129929
H59   H     H_    0.710895 0.174972 0.936665 0.135718
H60   H     H_    0.603513 0.281193 0.979482 0.119475
O21   O     O_3   0.297463 0.644365 0.029352 -0.736478
H61   H     H_    0.277564 0.697235 0.050949 0.336468
O22   O     O_3   0.731482 0.521074 0.972353 -0.740245
H62   H     H_    0.773582 0.557880 0.951075 0.332914
O23   O     O_3   0.773467 0.523574 0.410599 -0.721232
H63   H     H_    0.707993 0.518914 0.414962 0.336135
O24   O     O_3   0.226102 0.526383 0.589369 -0.735440
H64   H     H_    0.291631 0.528695 0.584605 0.315686

loop_
_geom_bond_atom_site_label_1
_geom_bond_atom_site_label_2
_geom_bond_distance
_ccdc_geom_bond_type
C42   C44   1.413925 A    
C75   H16   1.081389 S    
C10   H5    1.083394 S    
C36   C113  1.489980 S    
C59   C61   1.428734 A    
C13   C15   1.393002 A    
O13   H23   0.983239 S    
C49   C50   1.410307 A    
C65   C66   1.431963 A    
C42   O24   1.385551 S    
C52   C55   1.426026 A    
C47   C53   1.393519 A    
C82   H22   1.082026 S    
O3    C2    1.295033 A    
N1    C17   1.433689 S    
C87   H30   1.082496 S    
C8    O11   1.349508 S    
C59   O15   1.368589 S    
C92   C93   1.398116 A    
C62   C68   1.426813 A    
C87   C88   1.398213 A    
C12   O19   1.381661 S    
C108  C109  1.398241 A    
C19   C34   1.412137 A    
C30   C36   1.425634 A    
C20   C33   1.412051 A    
C102  C103  1.397107 A    
C31   C40   1.413295 A    
C50   C52   1.429128 A    
O1    C1    1.294845 A    
C32   C39   1.413292 A    
C98   C99   1.397959 A    
C21   C23   1.414832 A    
C10   C12   1.406455 A    
C114  H56   1.083021 S    
C35   C107  1.490218 S    
N2    C18   1.432200 S    
C74   H15   1.082012 S    
C54   C56   1.394785 A    
C32   C34   1.412458 A    
C53   H11   1.085840 S    
C90   C91   1.397212 A    
O20   H50   0.991443 S    
C62   C66   1.415269 A    
C81   C82   1.399449 A    
C14   C28   1.408776 A    
C95   C100  1.404559 A    
C45   C47   1.385698 A    
O7    Cu1   1.945287 S    
Cu2   N4    2.031621 S    
C48   C54   1.394389 A    
C58   C64   1.430295 A    
C72   C73   1.398209 A    
N1    C7    1.365449 A    
C57   C63   1.429783 A    
C9    H6    1.083397 S    
C60   C62   1.430469 A    
C84   C85   1.397186 A    
C31   C33   1.412057 A    
C37   H7    1.084011 S    
C4    C28   1.481911 S    
C106  H46   1.083024 S    
C38   H8    1.083942 S    
C3    C27   1.468614 S    
C117  C118  1.397687 A    
C64   C70   1.426277 A    
C51   C56   1.426018 A    
C63   C69   1.422498 A    
C41   O23   1.384811 S    
C79   H19   1.082250 S    
O3    Cu1   1.956090 S    
O6    C4    1.305346 A    
C29   C35   1.426609 A    
C39   O21   1.382661 S    
C53   C55   1.394711 A    
C113  C114  1.407767 A    
C42   C52   1.419091 A    
C85   H28   1.082230 S    
C63   C65   1.413798 A    
C24   O18   1.381832 S    
Cu1   Cu2   2.704016 S    
C68   C89   1.485287 S    
C58   O14   1.371352 S    
C99   C100  1.398301 A    
C49   C51   1.428815 A    
C101  C106  1.404005 A    
O2    C2    1.297219 A    
C60   O16   1.371453 S    
C1    C44   1.443510 S    
C46   H10   1.086185 S    
C5    C21   1.413879 A    
C74   C75   1.397101 A    
C104  C105  1.398052 A    
C11   O20   1.379098 S    
C79   C80   1.397093 A    
C29   C32   1.423507 A    
C76   H17   1.082193 S    
C35   C37   1.400671 A    
C105  H45   1.082315 S    
C36   C38   1.400153 A    
C97   C98   1.397453 A    
C81   H21   1.081269 S    
C93   C94   1.397751 A    
O22   H62   0.990383 S    
C71   C72   1.404456 A    
C109  H52   1.082404 S    
C67   C83   1.488251 S    
C48   C50   1.408472 A    
C83   C88   1.404693 A    
C58   N4    1.376622 A    
C11   C27   1.410127 A    
C86   H29   1.080316 S    
C47   C49   1.408335 A    
C57   N3    1.374487 A    
C91   C92   1.397416 A    
C29   C33   1.417745 A    
C41   C43   1.413322 A    
C84   H27   1.082935 S    
O21   H61   0.990382 S    
C14   H2    1.082431 S    
C78   H18   1.083168 S    
C15   H3    1.082832 S    
C93   H35   1.082328 S    
C43   C45   1.386818 A    
C9    C17   1.398874 A    
C5    N1    1.368005 A    
C107  C108  1.407725 A    
C10   C18   1.396514 A    
O24   H64   0.987597 S    
C91   H33   1.082254 S    
C13   H1    1.083546 S    
C23   O17   1.381802 S    
C13   C27   1.403746 A    
O5    C3    1.304880 A    
C25   C38   1.400221 A    
C7    C25   1.401556 A    
C30   C34   1.416851 A    
C6    N2    1.367241 A    
C26   C37   1.400081 A    
C8    C26   1.401905 A    
C56   C77   1.482033 S    
O23   H63   0.987285 S    
C96   C97   1.397394 A    
C72   H13   1.083237 S    
C70   C101  1.485892 S    
C19   C25   1.408543 A    
C61   C67   1.422617 A    
C64   C66   1.415674 A    
C111  H54   1.082304 S    
C23   C39   1.418003 A    
C103  H43   1.082245 S    
C100  H41   1.082972 S    
C24   C40   1.417592 A    
C44   C46   1.387525 A    
C105  C106  1.397860 A    
C60   N4    1.377426 A    
C112  H55   1.083046 S    
O18   H48   0.991297 S    
C59   N3    1.373425 A    
O8    Cu2   1.945293 S    
O14   H24   0.983544 S    
C20   C26   1.408376 A    
O1    Cu1   1.956404 S    
O15   H25   0.983100 S    
C73   C74   1.396825 A    
C67   C70   1.418029 A    
C96   H37   1.082991 S    
C12   C28   1.417892 A    
C78   C79   1.398605 A    
C110  H53   1.082114 S    
C71   C76   1.404834 A    
C5    O9    1.349120 S    
C101  C102  1.404257 A    
O6    Cu2   1.948083 S    
Cu1   N3    2.031621 S    
C97   H38   1.082270 S    
C89   C90   1.404052 A    
C89   C94   1.403551 A    
C16   H4    1.082942 S    
C92   H34   1.081812 S    
N2    C8    1.364530 A    
C115  C116  1.396812 A    
C83   C84   1.404319 A    
C98   H39   1.080510 S    
C46   C48   1.385957 A    
C80   H20   1.082460 S    
C40   O22   1.382807 S    
C104  H44   1.081879 S    
O19   H49   0.991638 S    
C75   C76   1.399322 A    
C86   C87   1.397835 A    
C41   C51   1.419350 A    
C116  H58   1.082328 S    
C77   C82   1.404656 A    
C14   C16   1.392447 A    
C94   H36   1.082663 S    
O16   H26   0.982962 S    
C7    O12   1.350103 S    
C15   C17   1.398109 A    
O17   H47   0.991318 S    
C2    C43   1.443260 S    
C107  C112  1.407284 A    
C6    C22   1.413463 A    
C16   C18   1.395121 A    
C115  H57   1.081890 S    
C109  C110  1.396750 A    
C85   C86   1.397229 A    
C103  C104  1.397276 A    
C118  H60   1.083054 S    
C30   C31   1.422141 A    
O4    C1    1.297573 A    
C69   C95   1.487709 S    
C22   C24   1.414689 A    
C19   C21   1.412951 A    
C88   H31   1.082973 S    
C57   O13   1.370886 S    
C77   C78   1.403985 A    
C9    C11   1.406019 A    
O4    Cu2   1.956092 S    
C116  C117  1.396752 A    
O2    Cu2   1.956402 S    
O7    C4    1.307586 A    
C90   H32   1.083045 S    
C45   H9    1.086154 S    
O8    C3    1.301293 A    
C61   C65   1.413160 A    
C114  C115  1.398361 A    
C113  C118  1.407328 A    
C54   H12   1.085778 S    
O5    Cu1   1.948088 S    
C20   C22   1.413474 A    
C6    O10   1.349150 S    
C68   C69   1.417631 A    
C117  H59   1.082319 S    
C108  H51   1.082969 S    
C55   C71   1.482322 S    
C73   H14   1.082311 S    
C111  C112  1.398154 A    
C110  C111  1.396980 A    
C99   H40   1.082508 S    
C102  H42   1.083045 S    
C80   C81   1.397026 A    
C95   C96   1.404235 A    
