data_mof_unit_9510.cif
_audit_creation_date              2012-12-10T16:38:11-0500
_audit_creation_method            fapswitch 2.2
_symmetry_space_group_name_H-M    P1
_symmetry_Int_Tables_number       1
_space_group_crystal_system       triclinic
_cell_length_a                    27.973233
_cell_length_b                    18.397776
_cell_length_c                    16.926176
_cell_angle_alpha                 90.358619
_cell_angle_beta                  60.953544
_cell_angle_gamma                 90.403413
_cell_volume                      7615.13606109

loop_
_atom_site_label
_atom_site_type_symbol
_atom_type_description
_atom_site_fract_x
_atom_site_fract_y
_atom_site_fract_z
_atom_type_partial_charge
C1    C     C_R   0.699857 0.264157 0.677484 0.905703
C2    C     C_R   0.093422 0.503906 0.520746 0.064974
C3    C     C_R   0.185282 0.227561 0.913358 0.072363
C4    C     C_R   0.615056 0.327015 0.050254 -0.149499
C5    C     C_R   0.383747 0.671261 0.950466 -0.148416
C6    C     C_R   0.385407 0.325395 0.949544 -0.147080
C7    C     C_R   0.612331 0.678622 0.051209 -0.149374
C8    C     C_R   0.115865 0.828231 0.049757 -0.149247
C9    C     C_R   0.883193 0.170631 0.950798 -0.148160
C10   C     C_R   0.884110 0.827457 0.949652 -0.147296
C11   C     C_R   0.113908 0.175930 0.050930 -0.149459
C12   C     C_R   0.645890 0.315570 0.093315 -0.223172
C13   C     C_R   0.424848 0.999760 0.414600 0.072805
C14   C     C_R   0.352548 0.681852 0.907894 -0.223568
C15   C     C_R   0.354256 0.314769 0.906787 -0.221701
C16   C     C_R   0.642660 0.691576 0.094921 -0.220671
C17   C     C_R   0.146970 0.817428 0.092457 -0.222776
C18   C     C_R   0.851920 0.181052 0.908331 -0.223494
C19   C     C_R   0.852694 0.817642 0.907140 -0.226368
C20   C     C_R   0.144773 0.187367 0.094082 -0.225272
C21   C     C_R   0.745632 0.195675 0.790663 -0.160991
C22   C     C_R   0.253555 0.803243 0.209750 -0.157604
C23   C     C_R   0.251826 0.199119 0.210298 -0.174867
C24   C     C_R   0.610623 0.999402 0.461529 0.059709
C25   C     C_R   0.746102 0.805185 0.790014 -0.178637
C26   C     C_R   0.246010 0.696160 0.790540 -0.162128
C27   C     C_R   0.752553 0.301776 0.210462 -0.167643
C28   C     C_R   0.749011 0.704193 0.211699 -0.179240
C29   C     C_R   0.248084 0.301786 0.789361 -0.167919
C30   C     C_R   0.777334 0.183983 0.832245 -0.221022
C31   C     C_R   0.221630 0.814481 0.168458 -0.220381
C32   C     C_R   0.219405 0.188756 0.169728 -0.235548
C33   C     C_R   0.778002 0.816685 0.831381 -0.236496
C34   C     C_R   0.277846 0.684719 0.831960 -0.220737
C35   C     C_R   0.122475 0.388835 0.441426 -0.221135
C36   C     C_R   0.720398 0.312500 0.169535 -0.229130
C37   C     C_R   0.716595 0.694299 0.171294 -0.231314
C38   C     C_R   0.279855 0.313111 0.830878 -0.225628
C39   C     C_R   0.070114 0.104989 0.938273 0.895811
C40   C     C_R   0.929674 0.895278 0.061776 0.895549
C41   C     C_R   0.929161 0.104242 0.062587 0.896334
C42   C     C_R   0.070643 0.895592 0.937550 0.897707
C43   C     C_R   0.569932 0.605170 0.938318 0.894359
C44   C     C_R   0.429891 0.395063 0.061726 0.896025
C45   C     C_R   0.429286 0.604350 0.062502 0.896314
C46   C     C_R   0.876595 0.609968 0.558907 -0.221594
C47   C     C_R   0.570545 0.395512 0.937633 0.895102
C48   C     C_R   0.574905 0.130217 0.422082 0.099795
C49   C     C_R   0.479090 0.867946 0.402733 0.107799
C50   C     C_R   0.479636 0.131351 0.404962 0.107410
C51   C     C_R   0.573553 0.868503 0.422527 0.101692
C52   C     C_R   0.019566 0.620501 0.583263 0.108370
C53   C     C_R   0.980294 0.379491 0.414121 0.109909
C54   C     C_R   0.923092 0.612695 0.569706 0.111473
C55   C     C_R   0.076276 0.386501 0.429571 0.110365
C56   C     C_R   0.556136 0.195543 0.404299 -0.198359
C57   C     C_R   0.931907 0.376205 0.408119 -0.209486
C58   C     C_R   0.507186 0.802945 0.394730 -0.205973
C59   C     C_R   0.508471 0.196205 0.396707 -0.205268
C60   C     C_R   0.554309 0.803276 0.404007 -0.200355
C61   C     C_R   0.980341 0.675752 0.620087 -0.199767
C62   C     C_R   0.019434 0.324071 0.377738 -0.199340
C63   C     C_R   0.932132 0.671413 0.614401 -0.197000
C64   C     C_R   0.067322 0.327927 0.384545 -0.197997
C65   C     C_R   0.500681 0.065427 0.415807 0.031826
C66   C     C_R   0.547217 0.933759 0.425847 0.033967
C67   C     C_R   0.547749 0.065119 0.426046 0.033391
C68   C     C_R   0.068146 0.624156 0.588484 -0.209817
C69   C     C_R   0.500353 0.933714 0.414920 0.031163
C70   C     C_R   0.961933 0.556853 0.533066 0.030444
C71   C     C_R   0.037623 0.442634 0.465434 0.031064
C72   C     C_R   0.009665 0.560094 0.541285 0.026811
C73   C     C_R   0.990039 0.439624 0.456659 0.026477
C74   C     C_R   0.952475 0.497091 0.489806 -0.038857
C75   C     C_R   0.047131 0.502505 0.508438 -0.038358
C76   C     C_R   0.475204 0.999637 0.415130 -0.042485
C77   C     C_R   0.568618 0.999394 0.437712 -0.038385
C78   C     C_R   0.894389 0.434258 0.440011 0.036634
C79   C     C_R   0.618087 0.869325 0.439014 -0.224460
C80   C     C_R   0.105460 0.565950 0.557083 0.040985
C81   C     C_R   0.128555 0.443705 0.495335 0.009395
C82   C     C_R   0.870598 0.555463 0.504610 0.011243
C83   C     C_R   0.399520 0.933248 0.414607 0.027177
C84   C     C_R   0.633028 0.065432 0.470738 0.027078
C85   C     C_R   0.632583 0.933484 0.471009 0.021600
C86   C     C_R   0.399379 0.066340 0.416864 0.029447
C87   C     C_R   0.845492 0.433876 0.434104 -0.162610
C88   C     C_R   0.154063 0.566136 0.563554 -0.159892
C89   C     C_R   0.166316 0.439673 0.529453 -0.126166
C90   C     C_R   0.430080 0.131318 0.403226 -0.212425
C91   C     C_R   0.832674 0.559973 0.471182 -0.139948
C92   C     C_R   0.345741 0.934093 0.425536 -0.161577
C93   C     C_R   0.666667 0.064076 0.513821 -0.126133
C94   C     C_R   0.667137 0.935638 0.512764 -0.118036
C95   C     C_R   0.345500 0.065334 0.427707 -0.165934
C96   C     C_R   0.823311 0.499696 0.428625 0.017775
C97   C     C_R   0.174320 0.500365 0.573042 0.021872
C98   C     C_R   0.323522 0.999798 0.415662 0.033673
C99   C     C_R   0.673187 0.000006 0.550460 -0.006122
C100  C     C_3   0.801192 0.506958 0.361705 -0.358337
C101  C     C_R   0.429962 0.868304 0.399659 -0.209630
C102  C     C_3   0.739037 0.492820 0.402455 -0.228575
C103  C     C_3   0.712230 0.541660 0.363068 -0.947588
C104  C     C_3   0.198932 0.497201 0.636270 -0.372466
C105  C     C_3   0.164796 0.448695 0.718720 -0.336793
C106  C     C_3   0.179202 0.462546 0.793790 -0.865441
C107  C     C_3   0.290923 0.000955 0.363914 -0.357584
C108  C     C_3   0.227840 0.994580 0.421705 -0.220077
C109  C     C_3   0.197563 0.043882 0.388613 -0.938483
C110  C     C_3   0.683876 0.000793 0.631393 -0.393651
C111  C     C_3   0.641350 0.955561 0.711144 -0.337344
C112  C     C_R   0.300044 0.735673 0.322515 0.882876
C113  C     C_R   0.619779 0.129130 0.437342 -0.221329
C114  C     C_3   0.649605 0.962812 0.793646 -0.839422
C115  C     C_2   0.584129 0.300953 0.788944 0.941960
C116  C     C_2   0.415773 0.699824 0.210715 0.923277
C117  C     C_2   0.415772 0.301144 0.210898 0.929225
C118  C     C_2   0.583871 0.697981 0.788174 0.943894
C119  C     C_2   0.084223 0.800443 0.789042 0.929134
C120  C     C_2   0.915652 0.199979 0.210382 0.929096
C121  C     C_2   0.915529 0.800589 0.209462 0.943055
C122  C     C_2   0.084134 0.198670 0.789174 0.940554
C123  C     C_R   0.716522 0.259163 0.958047 0.023266
C124  C     C_R   0.282231 0.738857 0.042963 0.024427
C125  C     C_R   0.282078 0.261512 0.043053 0.024628
C126  C     C_R   0.715087 0.744537 0.958592 0.023533
C127  C     C_R   0.217295 0.760397 0.957422 0.024313
C128  C     C_R   0.781381 0.237492 0.043663 0.024824
C129  C     C_R   0.780167 0.765440 0.043819 0.023880
C130  C     C_R   0.216903 0.240881 0.957920 0.022974
C131  C     C_R   0.765513 0.218845 0.913884 0.051000
C132  C     C_R   0.299988 0.264497 0.322346 0.872488
C133  C     C_R   0.233283 0.779280 0.087077 0.050477
C134  C     C_R   0.231981 0.223099 0.087993 0.054527
C135  C     C_R   0.765159 0.783025 0.913646 0.055378
C136  C     C_R   0.266204 0.719903 0.913351 0.051289
C137  C     C_R   0.732221 0.277493 0.088012 0.054111
C138  C     C_R   0.729702 0.727855 0.089087 0.057036
C139  C     C_R   0.266958 0.279371 0.913061 0.054786
C140  C     C_R   0.799137 0.210693 0.955125 0.048489
C141  C     C_R   0.199630 0.787393 0.045861 0.049075
C142  C     C_R   0.198219 0.215558 0.047004 0.049889
C143  C     C_R   0.699682 0.736263 0.677581 0.889879
C144  C     C_R   0.798947 0.790526 0.954632 0.048682
C145  C     C_R   0.299868 0.711808 0.954550 0.049253
C146  C     C_R   0.698618 0.285678 0.046737 0.049900
C147  C     C_R   0.696107 0.719928 0.047954 0.048123
C148  C     C_R   0.300700 0.286956 0.954060 0.047381
C149  C     C_R   0.636334 0.313052 0.957003 0.070670
C150  C     C_R   0.362820 0.685762 0.043542 0.068993
C151  C     C_R   0.363669 0.312609 0.042904 0.066882
C152  C     C_R   0.634628 0.690578 0.957662 0.067295
C153  C     C_R   0.136871 0.813822 0.956649 0.069094
C154  C     C_R   0.199914 0.764253 0.677492 0.884727
C155  C     C_R   0.862291 0.185070 0.043873 0.068765
C156  C     C_R   0.862488 0.814615 0.043046 0.069231
C157  C     C_R   0.135806 0.188571 0.957498 0.069001
C158  C     C_R   0.609095 0.334378 0.907560 -0.211181
C159  C     C_R   0.390491 0.665197 0.092628 -0.212080
C160  C     C_R   0.391219 0.333831 0.091945 -0.214235
C161  C     C_R   0.608024 0.667287 0.908004 -0.215478
C162  C     C_R   0.109344 0.834639 0.907435 -0.211611
C163  C     C_R   0.890169 0.164861 0.092763 -0.212810
C164  C     C_R   0.890520 0.834681 0.091805 -0.210940
C165  C     C_R   0.799939 0.235481 0.322547 0.867422
C166  C     C_R   0.108627 0.166550 0.908150 -0.211649
C167  C     C_R   0.623934 0.303583 0.823467 -0.099879
C168  C     C_R   0.375843 0.696438 0.176437 -0.089128
C169  C     C_R   0.376046 0.303682 0.176237 -0.089374
C170  C     C_R   0.623336 0.696885 0.823350 -0.098661
C171  C     C_R   0.124054 0.803531 0.823527 -0.091820
C172  C     C_R   0.875567 0.196212 0.176451 -0.093253
C173  C     C_R   0.875332 0.804362 0.175886 -0.102843
C174  C     C_R   0.123882 0.196480 0.823743 -0.098617
C175  C     C_R   0.673968 0.268184 0.777211 -0.216702
C176  C     C_R   0.799659 0.765209 0.322340 0.892764
C177  C     C_R   0.325699 0.731497 0.222845 -0.209868
C178  C     C_R   0.325458 0.269075 0.222809 -0.205486
C179  C     C_R   0.673533 0.732691 0.777179 -0.210677
C180  C     C_R   0.174143 0.768317 0.777204 -0.211264
C181  C     C_R   0.825331 0.231003 0.223000 -0.203318
C182  C     C_R   0.824367 0.770896 0.222980 -0.207905
C183  C     C_R   0.174399 0.231331 0.777184 -0.216972
C184  C     C_R   0.702396 0.246401 0.825124 0.070675
C185  C     C_R   0.296909 0.752669 0.175266 0.072714
C186  C     C_R   0.296266 0.248359 0.175424 0.072111
C187  C     C_R   0.200004 0.235529 0.677627 0.896405
C188  C     C_R   0.701901 0.755346 0.825110 0.072792
C189  C     C_R   0.202768 0.746881 0.824943 0.072397
C190  C     C_R   0.796221 0.251650 0.175740 0.073452
C191  C     C_R   0.794419 0.751784 0.176178 0.075494
C192  C     C_R   0.203354 0.252798 0.824717 0.074827
C193  C     C_R   0.695002 0.128162 0.520130 0.898192
C194  C     C_R   0.309812 0.869665 0.458930 0.899833
C195  C     C_R   0.309654 0.129833 0.460000 0.904370
C196  C     C_R   0.695496 0.871956 0.518843 0.905897
C197  C     C_R   0.190144 0.630137 0.538735 0.884471
C198  C     C_R   0.906096 0.495725 0.477682 0.069667
C199  C     C_R   0.810018 0.369496 0.459600 0.902333
C200  C     C_R   0.804860 0.627304 0.477023 0.910797
C201  C     C_R   0.194951 0.372730 0.523125 0.901136
C202  C     C_R   0.685071 0.272870 0.913324 0.073953
C203  C     C_R   0.313975 0.725720 0.087352 0.072219
C204  C     C_R   0.313996 0.274203 0.087231 0.074070
C205  C     C_R   0.683788 0.730332 0.913774 0.074506
C206  C     C_R   0.185646 0.773722 0.912921 0.072870
C207  C     C_R   0.813265 0.224649 0.087877 0.071797
C208  C     C_R   0.812335 0.777392 0.087799 0.073720
H1    H     H_    0.096809 0.284301 0.356272 0.144261
H2    H     H_    0.845750 0.650988 0.593033 0.175725
H3    H     H_    0.924924 0.330175 0.374679 0.169308
H4    H     H_    0.075206 0.670365 0.621577 0.170692
H5    H     H_    0.639521 0.818696 0.426205 0.190046
H6    H     H_    0.417155 0.182149 0.388305 0.180541
H7    H     H_    0.416829 0.817702 0.383445 0.179665
H8    H     H_    0.642521 0.179151 0.422398 0.190621
H9    H     H_    0.573343 0.343883 0.093127 0.176470
H10   H     H_    0.425490 0.654737 0.907198 0.177350
H11   H     H_    0.427562 0.340998 0.906743 0.175213
H12   H     H_    0.902495 0.714826 0.643148 0.144087
H13   H     H_    0.570383 0.661740 0.093211 0.174545
H14   H     H_    0.074142 0.844895 0.092915 0.177451
H15   H     H_    0.924989 0.154385 0.907414 0.177579
H16   H     H_    0.926387 0.842360 0.906570 0.174468
H17   H     H_    0.071863 0.159698 0.093412 0.174499
H18   H     H_    0.626483 0.327870 0.164661 0.140199
H19   H     H_    0.371716 0.669058 0.836701 0.143806
H20   H     H_    0.373970 0.326063 0.835281 0.144126
H21   H     H_    0.622547 0.681064 0.166638 0.140627
H22   H     H_    0.127762 0.830179 0.163663 0.144558
H23   H     H_    0.013050 0.277796 0.343968 0.141637
H24   H     H_    0.871128 0.168432 0.837092 0.144314
H25   H     H_    0.872346 0.828802 0.835587 0.138536
H26   H     H_    0.125030 0.176158 0.165630 0.138579
H27   H     H_    0.754376 0.160930 0.733732 0.171109
H28   H     H_    0.244916 0.838312 0.266380 0.166373
H29   H     H_    0.242843 0.164152 0.266304 0.175096
H30   H     H_    0.755772 0.839198 0.732530 0.174538
H31   H     H_    0.254631 0.661207 0.733822 0.168248
H32   H     H_    0.743837 0.337066 0.266890 0.168224
H33   H     H_    0.739051 0.669630 0.267979 0.180125
H34   H     H_    0.986853 0.722176 0.653500 0.141361
H35   H     H_    0.258292 0.335742 0.731740 0.179962
H36   H     H_    0.809660 0.144472 0.801004 0.140712
H37   H     H_    0.189298 0.853989 0.199659 0.141300
H38   H     H_    0.186109 0.150304 0.201498 0.142909
H39   H     H_    0.811323 0.855088 0.799511 0.140852
H40   H     H_    0.310127 0.645137 0.800817 0.140168
H41   H     H_    0.687839 0.351667 0.201005 0.139953
H42   H     H_    0.682884 0.656542 0.203689 0.141976
H43   H     H_    0.313196 0.351473 0.799007 0.139904
H44   H     H_    0.709392 0.597817 0.388685 0.290269
H45   H     H_    0.574621 0.752273 0.399574 0.137280
H46   H     H_    0.735666 0.540516 0.288049 0.257181
H47   H     H_    0.669999 0.522099 0.384881 0.238906
H48   H     H_    0.732354 0.436474 0.385970 0.215899
H49   H     H_    0.717473 0.499625 0.477142 0.253735
H50   H     H_    0.812554 0.561197 0.328879 0.208196
H51   H     H_    0.823198 0.468059 0.304906 0.169757
H52   H     H_    0.223935 0.457457 0.767336 0.248622
H53   H     H_    0.166327 0.518064 0.822144 0.266662
H54   H     H_    0.157643 0.422431 0.848848 0.269703
H55   H     H_    0.120526 0.459941 0.745937 0.243850
H56   H     H_    0.493621 0.247500 0.386201 0.144443
H57   H     H_    0.171920 0.390534 0.699132 0.220646
H58   H     H_    0.242319 0.480062 0.600083 0.223102
H59   H     H_    0.199171 0.552424 0.663173 0.199507
H60   H     H_    0.203111 0.101662 0.400768 0.290721
H61   H     H_    0.212365 0.034740 0.315427 0.246267
H62   H     H_    0.153105 0.031429 0.426257 0.244055
H63   H     H_    0.214712 0.938646 0.415975 0.217803
H64   H     H_    0.213896 0.005957 0.494192 0.254370
H65   H     H_    0.301890 0.051326 0.322507 0.198983
H66   H     H_    0.305633 0.956154 0.313226 0.166159
H67   H     H_    0.492074 0.751749 0.383352 0.145477
H68   H     H_    0.691476 0.945528 0.776586 0.249365
H69   H     H_    0.643410 0.020017 0.817882 0.264740
H70   H     H_    0.619623 0.927713 0.848886 0.272214
H71   H     H_    0.599526 0.974431 0.729592 0.242400
H72   H     H_    0.644285 0.897119 0.692964 0.224705
H73   H     H_    0.725904 0.982089 0.610931 0.227169
H74   H     H_    0.680774 0.056769 0.658218 0.205290
H75   H     H_    0.522046 0.246634 0.786461 0.334707
H76   H     H_    0.476724 0.755954 0.214710 0.326484
H77   H     H_    0.476379 0.245886 0.215395 0.327025
H78   H     H_    0.577135 0.246402 0.399524 0.137137
H79   H     H_    0.522307 0.751000 0.784078 0.334326
H80   H     H_    0.023237 0.744655 0.784752 0.323404
H81   H     H_    0.976903 0.256236 0.213229 0.323018
H82   H     H_    0.977747 0.745609 0.208949 0.335628
H83   H     H_    0.022456 0.252662 0.786621 0.335444
H84   H     H_    0.153056 0.347391 0.408088 0.177902
O1    O     O_R   0.746490 0.236330 0.638080 -0.638859
O2    O     O_R   0.325830 0.813840 0.483730 -0.626486
O3    O     O_R   0.325830 0.186160 0.483730 -0.630785
O4    O     O_R   0.674170 0.813840 0.516270 -0.650626
O5    O     O_R   0.174170 0.686160 0.516270 -0.620188
O6    O     O_R   0.825830 0.313840 0.483730 -0.620189
O7    O     O_R   0.825830 0.686160 0.483730 -0.631975
O8    O     O_R   0.174170 0.313840 0.516270 -0.634028
O9    O     O_R   0.739960 0.127620 0.525000 -0.628312
O10   O     O_R   0.260040 0.872380 0.475000 -0.639651
O11   O     O_R   0.260040 0.127620 0.475000 -0.615558
O12   O     O_R   0.253510 0.763670 0.361920 -0.646873
O13   O     O_R   0.739960 0.872380 0.525000 -0.625109
O14   O     O_R   0.239960 0.627620 0.525000 -0.622697
O15   O     O_R   0.760040 0.372380 0.475000 -0.638128
O16   O     O_R   0.760040 0.627620 0.475000 -0.621579
O17   O     O_R   0.239960 0.372380 0.525000 -0.631391
O18   O     O_R   0.680700 0.294870 0.629350 -0.570202
O19   O     O_R   0.319300 0.705130 0.370650 -0.579731
O20   O     O_R   0.319300 0.294870 0.370650 -0.584046
O21   O     O_R   0.680700 0.705130 0.629350 -0.576655
O22   O     O_R   0.180700 0.794870 0.629350 -0.580880
O23   O     O_R   0.253510 0.236330 0.361920 -0.667055
O24   O     O_R   0.819300 0.205130 0.370650 -0.581637
O25   O     O_R   0.819300 0.794870 0.370650 -0.572606
O26   O     O_R   0.180700 0.205130 0.629350 -0.570135
O27   O     O_R   0.062020 0.072840 0.007170 -0.628155
O28   O     O_R   0.937980 0.927160 0.992830 -0.629774
O29   O     O_R   0.937980 0.072840 0.992830 -0.632056
O30   O     O_R   0.062020 0.927160 0.007170 -0.631115
O31   O     O_R   0.562020 0.572840 0.007170 -0.627445
O32   O     O_R   0.437980 0.427160 0.992830 -0.629137
O33   O     O_R   0.437980 0.572840 0.992830 -0.631859
O34   O     O_R   0.746490 0.763670 0.638080 -0.653231
O35   O     O_R   0.562020 0.427160 0.007170 -0.630759
O36   O     O_R   0.947860 0.073950 0.109290 -0.575137
O37   O     O_R   0.052140 0.926050 0.890710 -0.574682
O38   O     O_R   0.052140 0.073950 0.890710 -0.576046
O39   O     O_R   0.947860 0.926050 0.109290 -0.576870
O40   O     O_R   0.447860 0.573950 0.109290 -0.574349
O41   O     O_R   0.552140 0.426050 0.890710 -0.576141
O42   O     O_R   0.552140 0.573950 0.890710 -0.576248
O43   O     O_R   0.447860 0.426050 0.109290 -0.574976
O44   O     O_2   0.583187 0.349317 0.740443 -0.594139
O45   O     O_R   0.246490 0.736330 0.638080 -0.641858
O46   O     O_R   0.547472 0.242674 0.813135 -0.812404
O47   O     O_2   0.417461 0.651361 0.258450 -0.598671
O48   O     O_R   0.451329 0.759269 0.187900 -0.819844
O49   O     O_2   0.417397 0.350001 0.258914 -0.599735
O50   O     O_R   0.451200 0.242057 0.188139 -0.817905
O51   O     O_2   0.583124 0.648783 0.739815 -0.593748
O52   O     O_R   0.547439 0.755929 0.811300 -0.818099
O53   O     O_2   0.082700 0.849035 0.741312 -0.598927
O54   O     O_R   0.048565 0.741128 0.811665 -0.819381
O55   O     O_2   0.917464 0.151794 0.258330 -0.597093
O56   O     O_R   0.753510 0.263670 0.361920 -0.666717
O57   O     O_R   0.951316 0.259358 0.186775 -0.820436
O58   O     O_2   0.917211 0.848208 0.258839 -0.592868
O59   O     O_R   0.951926 0.742365 0.182899 -0.810671
O60   O     O_2   0.082945 0.150039 0.740518 -0.592281
O61   O     O_R   0.047849 0.256885 0.813418 -0.815565
O62   O     O_R   0.753510 0.736330 0.361920 -0.668298
O63   O     O_R   0.246490 0.263670 0.638080 -0.640527
O64   O     O_R   0.674170 0.186160 0.516270 -0.643268
Zn1   Zn    Zn3+2 0.792340 0.208750 0.507670 0.986386
Zn2   Zn    Zn3+2 0.494040 0.500000 0.919480 1.016088
Zn3   Zn    Zn3+2 0.005960 1.000000 0.080520 1.017185
Zn4   Zn    Zn3+2 0.994040 1.000000 0.919480 1.015882
Zn5   Zn    Zn3+2 0.207660 0.791250 0.492330 0.963551
Zn6   Zn    Zn3+2 0.207660 0.208750 0.492330 0.962429
Zn7   Zn    Zn3+2 0.792340 0.791250 0.507670 0.979408
Zn8   Zn    Zn3+2 0.292340 0.708750 0.507670 0.979190
Zn9   Zn    Zn3+2 0.707660 0.291250 0.492330 0.950181
Zn10  Zn    Zn3+2 0.707660 0.708750 0.492330 0.951535
Zn11  Zn    Zn3+2 0.292340 0.291250 0.507670 0.974667
Zn12  Zn    Zn3+2 0.505960 0.500000 0.080520 1.016010

loop_
_geom_bond_atom_site_label_1
_geom_bond_atom_site_label_2
_ccdc_geom_bond_type
O42   Zn2   S    
C176  O62   A    
C90   H6    S    
O13   Zn7   S    
C110  H73   S    
C197  O5    A    
C176  C182  S    
C176  O25   A    
C124  C133  A    
C94   C196  S    
C50   C59   A    
O32   Zn2   S    
C82   C198  A    
C155  C207  A    
C52   C61   A    
H76   O48   S    
C54   C63   A    
C58   C60   A    
C30   C131  A    
C201  O17   A    
C108  C109  S    
C61   C63   A    
C110  C111  S    
C118  O52   S    
C131  C140  A    
C91   C96   A    
C26   H31   S    
C50   C90   A    
O37   Zn4   S    
C121  C173  S    
C162  C171  A    
C70   C74   A    
C4    C12   A    
C24   C85   A    
C88   C97   A    
C10   H16   S    
C49   C69   A    
O14   Zn8   S    
O41   Zn2   S    
C150  C203  A    
C109  H60   S    
C104  C105  S    
C27   H32   S    
C188  C205  A    
C166  C174  A    
C150  C159  A    
C137  C146  A    
H82   O59   S    
C86   C90   A    
C71   C73   A    
C194  O10   A    
C179  C188  A    
C46   H2    S    
C99   C110  S    
C82   C91   A    
O18   Zn9   S    
C5    C150  A    
C51   C66   A    
C111  H71   S    
C88   C197  S    
C121  O58   D    
C52   C72   A    
C181  C190  A    
C33   C135  A    
C54   C70   A    
C34   C136  A    
C189  C206  A    
C105  H55   S    
C29   H35   S    
C199  O6    A    
C164  C173  A    
C116  O48   S    
O7    Zn7   S    
C163  C172  A    
H77   O50   S    
O9    Zn1   S    
C6    C151  A    
C43   O31   A    
C173  C182  A    
C16   C147  A    
C79   C85   A    
C11   C157  A    
C105  C106  S    
C119  O53   D    
C66   C77   A    
C57   C78   A    
C108  H63   S    
C125  C148  A    
H81   O57   S    
C23   C186  A    
C17   H22   S    
O8    Zn6   S    
O19   Zn8   S    
C92   C194  S    
C8    C17   A    
C56   C59   A    
C80   C88   A    
C23   C32   A    
C101  H7    S    
C112  O12   A    
C154  O45   A    
C84   C93   A    
C48   C67   A    
C107  H65   S    
C86   C95   A    
C7    C152  A    
C178  C186  A    
C24   C77   A    
C32   H38   S    
C103  H46   S    
C116  C168  S    
C2    C81   A    
C56   H78   S    
C78   C198  A    
C165  O56   A    
C55   C71   A    
C2    C75   A    
C168  C177  A    
C132  C178  S    
C78   C87   A    
C117  O49   D    
C1    O18   A    
C57   H3    S    
C125  C204  A    
C67   C77   A    
C129  C144  A    
O33   Zn2   S    
C201  O8    A    
O5    Zn5   S    
C40   C164  S    
C180  C189  A    
C117  O50   S    
C7    H13   S    
C44   O32   A    
C126  C205  A    
C105  H57   S    
O10   Zn5   S    
C16   H21   S    
C106  H54   S    
C69   C76   A    
C127  C141  A    
C9    H15   S    
C46   C82   A    
C172  C181  A    
H80   O54   S    
C74   C198  A    
C29   C38   A    
C109  H61   S    
C107  C108  S    
C143  C179  S    
C111  C114  S    
C149  C158  A    
C152  C161  A    
C40   O39   A    
O3    Zn11  S    
C100  H51   S    
C30   H36   S    
C55   C64   A    
C72   C75   A    
C156  C208  A    
C26   C189  A    
C15   H20   S    
C139  C148  A    
C124  C203  A    
C42   O30   A    
C129  C208  A    
O4    Zn10  S    
C155  C163  A    
C122  C174  S    
C126  C147  A    
C12   H18   S    
O12   Zn5   S    
O40   Zn12  S    
C18   C140  A    
C8    C153  A    
C120  O55   D    
C91   C200  S    
C112  O19   A    
C37   C138  A    
C200  O16   A    
O24   Zn1   S    
C68   H4    S    
C28   C191  A    
C8    H14   S    
C167  C175  A    
C195  O3    A    
C1    C175  S    
C83   C101  A    
O30   Zn3   S    
C42   C162  S    
C110  H74   S    
O36   Zn3   S    
O29   Zn4   S    
C1    O1    A    
C170  C179  A    
C128  C140  A    
C3    C192  A    
C32   C134  A    
C28   C37   A    
C96   C100  S    
C102  H48   S    
C102  C103  S    
C130  C142  A    
C50   C65   A    
C51   C79   A    
C45   O33   A    
C117  C169  S    
C190  C207  A    
C9    C155  A    
C119  C171  S    
C3    C157  A    
C143  O34   A    
C48   C113  A    
C41   O29   A    
C51   C60   A    
C113  H8    S    
H83   O61   S    
C149  C202  A    
C25   C33   A    
C125  C134  A    
C21   C184  A    
C19   C144  A    
C154  C180  S    
C103  H47   S    
C73   C74   A    
C45   C159  S    
C104  H59   S    
C87   C199  S    
C151  C204  A    
C183  C192  A    
C114  H68   S    
C14   C145  A    
C65   C76   A    
C41   O36   A    
O34   Zn7   S    
C49   C101  A    
O56   Zn9   S    
C47   O41   A    
C37   H42   S    
C196  O13   A    
C177  C185  A    
C17   C141  A    
C42   O37   A    
C114  H69   S    
C44   O43   A    
C65   C67   A    
C158  C167  A    
C160  C169  A    
C27   C190  A    
C39   O27   A    
C93   C99   A    
C62   C64   A    
C40   O28   A    
C81   C89   A    
O64   Zn9   S    
O15   Zn9   S    
O39   Zn3   S    
C130  C139  A    
C11   C20   A    
C100  H50   S    
O23   Zn6   S    
C200  O7    A    
C108  H64   S    
C53   C57   A    
C115  O46   S    
C98   C107  S    
C63   H12   S    
C109  H62   S    
C4    C149  A    
C183  C187  S    
C134  C142  A    
C5    H10   S    
C123  C146  A    
O16   Zn10  S    
C10   C19   A    
C11   H17   S    
O63   Zn11  S    
O35   Zn12  S    
C46   C54   A    
C36   H41   S    
C127  C136  A    
C5    C14   A    
C120  O57   S    
O26   Zn6   S    
C196  O4    A    
C7    C16   A    
C126  C135  A    
C41   C163  S    
C44   C160  S    
C64   H1    S    
C28   H33   S    
O38   Zn4   S    
C39   O38   A    
C61   H34   S    
O28   Zn4   S    
C95   C195  S    
C123  C131  A    
C93   C193  S    
C174  C183  A    
C27   C36   A    
C21   C30   A    
C13   C83   A    
C133  C141  A    
C153  C162  A    
C111  H72   S    
C185  C203  A    
C39   C166  S    
C121  O59   S    
O1    Zn1   S    
C154  O22   A    
C21   H27   S    
C25   H30   S    
C60   H45   S    
C33   H39   S    
C116  O47   D    
O25   Zn7   S    
C97   C104  S    
C194  O2    A    
C66   C69   A    
O31   Zn12  S    
C62   H23   S    
C193  O64   A    
C112  C177  S    
C175  C184  A    
C68   C80   A    
C119  O54   S    
C89   C201  S    
C84   C113  A    
O62   Zn10  S    
C197  O14   A    
C3    C130  A    
C35   H84   S    
C31   C133  A    
C35   C81   A    
C95   C98   A    
C92   C98   A    
C115  O44   D    
C83   C92   A    
C47   O35   A    
C118  O51   D    
O43   Zn12  S    
C103  H44   S    
C132  O23   A    
C127  C206  A    
C104  H58   S    
C23   H29   S    
C165  O24   A    
C118  C170  S    
C199  O15   A    
C159  C168  A    
C12   C146  A    
C107  H66   S    
C193  O9    A    
C6    C15   A    
C26   C34   A    
C129  C138  A    
C195  O11   A    
C13   C86   A    
C128  C207  A    
C59   H56   S    
C187  O63   A    
O20   Zn11  S    
C136  C145  A    
C52   C68   A    
O17   Zn11  S    
C106  H52   S    
C19   H25   S    
C184  C202  A    
C22   C31   A    
C35   C55   A    
C20   C142  A    
C152  C205  A    
O27   Zn3   S    
C10   C156  A    
C120  C172  S    
C106  H53   S    
C49   C58   A    
C153  C206  A    
C89   C97   A    
C128  C137  A    
C25   C188  A    
C85   C94   A    
C9    C18   A    
O21   Zn10  S    
C13   C76   A    
C138  C147  A    
O11   Zn6   S    
C87   C96   A    
C100  C102  S    
C29   C192  A    
C186  C204  A    
C122  O60   D    
C132  O20   A    
C43   O42   A    
C143  O21   A    
C45   O40   A    
C22   H28   S    
C161  C170  A    
C43   C161  S    
C135  C144  A    
C20   H26   S    
C34   H40   S    
C171  C180  A    
C115  C167  S    
O6    Zn1   S    
C169  C178  A    
C36   C137  A    
C48   C56   A    
C38   H43   S    
C58   H67   S    
H79   O52   S    
C123  C202  A    
C122  O61   S    
H75   O46   S    
C53   C73   A    
C157  C166  A    
C15   C148  A    
C124  C145  A    
C102  H49   S    
O22   Zn5   S    
C165  C181  S    
C151  C160  A    
C22   C185  A    
C24   C84   A    
C14   H19   S    
C18   H24   S    
C71   C75   A    
C94   C99   A    
C191  C208  A    
O2    Zn8   S    
O45   Zn8   S    
C2    C80   A    
C114  H70   S    
C6    H11   S    
C79   H5    S    
C38   C139  A    
C156  C164  A    
C53   C62   A    
C4    H9    S    
C182  C191  A    
C31   H37   S    
C187  O26   A    
C70   C72   A    
C47   C158  S    
