data_mof_unit_36017.cif
_audit_creation_date              2013-03-05T15:46:34-0500
_audit_creation_method            fapswitch 2.2
_symmetry_space_group_name_H-M    P1
_symmetry_Int_Tables_number       1
_space_group_crystal_system       triclinic
_cell_length_a                    17.377531
_cell_length_b                    24.371228
_cell_length_c                    14.874034
_cell_angle_alpha                 89.559695
_cell_angle_beta                  125.476066
_cell_angle_gamma                 90.392619
_cell_volume                      5129.73506061

loop_
_atom_site_label
_atom_site_type_symbol
_atom_site_description
_atom_site_fract_x
_atom_site_fract_y
_atom_site_fract_z
_atom_type_partial_charge
C1    C     C_R   0.352649 0.347565 0.910086 -0.142184
C2    C     C_R   0.686921 0.372941 0.092707 -0.136526
C3    C     C_R   0.852650 0.847565 0.910088 -0.142192
C4    C     C_R   0.186883 0.872887 0.092705 -0.136571
H1    H     H_    0.313954 0.333413 0.825796 0.088505
H2    H     H_    0.743278 0.364687 0.178003 0.097298
H3    H     H_    0.813954 0.833412 0.825800 0.088480
H4    H     H_    0.243219 0.864603 0.177997 0.097331
N1    N     N_R   0.394180 0.396910 0.943210 -0.036837
N2    N     N_R   0.605820 0.396910 0.056790 -0.038521
N3    N     N_R   0.894180 0.896910 0.943210 -0.036826
N4    N     N_R   0.105820 0.896910 0.056790 -0.038505
C5    C     C_R   0.449719 0.652987 0.091049 0.542563
C6    C     C_R   0.597203 0.628060 0.909466 0.552146
C7    C     C_R   0.949656 0.152981 0.091038 0.542503
C8    C     C_R   0.097202 0.128057 0.909461 0.552167
N5    N     N_R   0.450950 0.603070 0.056740 -0.080586
N6    N     N_R   0.549050 0.603070 0.943260 -0.096074
N7    N     N_R   0.950950 0.103070 0.056740 -0.080680
N8    N     N_R   0.049050 0.103070 0.943260 -0.096053
C9    C     C_R   0.483965 0.454425 0.253920 -0.136025
C10   C     C_R   0.444741 0.454180 0.693721 -0.148440
C11   C     C_R   0.983978 0.954421 0.253938 -0.135853
C12   C     C_R   0.944735 0.954188 0.693708 -0.148355
H5    H     H_    0.474508 0.411839 0.265548 0.095591
H6    H     H_    0.425966 0.412006 0.667842 0.092315
H7    H     H_    0.974557 0.911835 0.265615 0.095550
H8    H     H_    0.925967 0.912015 0.667817 0.092301
N9    N     N_R   0.525650 0.471570 0.206150 -0.044645
N10   N     N_R   0.474350 0.471570 0.793850 -0.045577
N11   N     N_R   0.025650 0.971570 0.206150 -0.044621
N12   N     N_R   0.974350 0.971570 0.793850 -0.045578
C13   C     C_R   0.234996 0.546452 0.760459 -0.167597
C14   C     C_R   0.757541 0.545053 0.301530 -0.105176
C15   C     C_R   0.734997 0.046453 0.760454 -0.167644
C16   C     C_R   0.257552 0.045052 0.301520 -0.105272
H9    H     H_    0.218810 0.588352 0.763660 0.135035
H10   H     H_    0.767764 0.586315 0.332662 0.084302
H11   H     H_    0.718806 0.088353 0.763644 0.135058
H12   H     H_    0.267783 0.086313 0.332657 0.084110
N13   N     N_R   0.319480 0.528420 0.793810 -0.041773
N14   N     N_R   0.680520 0.528420 0.206190 -0.033540
N15   N     N_R   0.819480 0.028420 0.793810 -0.041787
N16   N     N_R   0.180520 0.028420 0.206190 -0.033549
C17   C     C_R   0.482365 0.546124 0.250202 -0.123333
C18   C     C_R   0.442867 0.544874 0.692020 -0.041091
C19   C     C_R   0.982285 0.046112 0.250107 -0.123707
C20   C     C_R   0.942861 0.044881 0.692029 -0.041060
H13   H     H_    0.469348 0.588489 0.253653 0.197741
H14   H     H_    0.422158 0.586462 0.664466 0.184791
H15   H     H_    0.969107 0.088461 0.253380 0.198193
H16   H     H_    0.922137 0.086468 0.664504 0.184847
N17   N     N_R   0.525640 0.528390 0.206120 -0.046380
N18   N     N_R   0.474360 0.528390 0.793880 -0.052811
N19   N     N_R   0.025640 0.028390 0.206120 -0.046386
N20   N     N_R   0.974360 0.028390 0.793880 -0.052820
C21   C     C_R   0.230858 0.455043 0.752663 -0.119230
C22   C     C_R   0.758791 0.453741 0.300071 -0.155763
C23   C     C_R   0.730857 0.955044 0.752660 -0.119244
C24   C     C_R   0.258802 0.953739 0.300054 -0.155737
H17   H     H_    0.207806 0.412794 0.740376 0.095759
H18   H     H_    0.771441 0.411669 0.328549 0.091581
H19   H     H_    0.707803 0.912795 0.740369 0.095775
H20   H     H_    0.271460 0.911665 0.328526 0.091602
N21   N     N_R   0.319490 0.471590 0.793840 -0.040845
N22   N     N_R   0.680510 0.471590 0.206160 -0.037334
N23   N     N_R   0.819490 0.971590 0.793840 -0.040844
N24   N     N_R   0.180510 0.971590 0.206160 -0.037309
C25   C     C_R   0.354332 0.652317 0.908283 -0.264882
C26   C     C_R   0.689798 0.624381 0.092965 -0.253586
C27   C     C_R   0.854303 0.152312 0.908278 -0.264887
C28   C     C_R   0.189809 0.124366 0.092956 -0.253786
H21   H     H_    0.313103 0.665947 0.823360 0.129065
H22   H     H_    0.746703 0.628634 0.178763 0.124555
H23   H     H_    0.813089 0.165944 0.823357 0.129010
H24   H     H_    0.246728 0.128608 0.178750 0.124698
N25   N     N_R   0.394130 0.603080 0.943110 -0.060631
N26   N     N_R   0.605870 0.603080 0.056890 -0.067110
N27   N     N_R   0.894130 0.103080 0.943110 -0.060605
N28   N     N_R   0.105870 0.103080 0.056890 -0.067286
C29   C     C_R   0.444524 0.348387 0.093308 -0.140837
C30   C     C_R   0.594271 0.372240 0.907117 -0.128531
C31   C     C_R   0.944524 0.848389 0.093311 -0.140863
C32   C     C_R   0.094242 0.872210 0.907110 -0.128554
H25   H     H_    0.492700 0.335202 0.178085 0.085886
H26   H     H_    0.565163 0.363342 0.821867 0.099235
H27   H     H_    0.992701 0.835205 0.178089 0.085892
H28   H     H_    0.065125 0.863311 0.821858 0.099255
N29   N     N_R   0.450990 0.396900 0.056840 -0.036644
N30   N     N_R   0.549010 0.396900 0.943160 -0.038608
N31   N     N_R   0.950990 0.896900 0.056840 -0.036635
N32   N     N_R   0.049010 0.896900 0.943160 -0.038600
C33   C     C_R   0.384069 0.315959 0.003147 0.047795
C34   C     C_R   0.681021 0.357047 0.000199 0.040470
C35   C     C_R   0.884071 0.815960 0.003153 0.047783
C36   C     C_R   0.180970 0.856988 0.000188 0.040447
C37   C     C_R   0.386709 0.684052 0.999127 -0.131464
C38   C     C_R   0.688643 0.639465 0.002132 -0.106204
C39   C     C_R   0.886623 0.184034 0.999125 -0.131366
C40   C     C_R   0.188647 0.139454 0.002120 -0.106025
C41   C     C_R   0.454879 0.500801 0.282134 0.098890
C42   C     C_R   0.421490 0.499313 0.626181 0.076366
C43   C     C_R   0.954857 0.000794 0.282106 0.098794
C44   C     C_R   0.921480 0.999329 0.626173 0.076288
C45   C     C_R   0.176367 0.501975 0.731066 0.066146
C46   C     C_R   0.809285 0.499180 0.360438 0.064283
C47   C     C_R   0.676368 0.001977 0.731060 0.066171
C48   C     C_R   0.309300 0.999178 0.360415 0.064365
Ni1   Ni    Ni4+2 0.434860 0.434850 0.869700 0.206739
Ni2   Ni    Ni4+2 0.565140 0.434850 0.130300 0.210051
Ni3   Ni    Ni4+2 0.934860 0.934850 0.869700 0.206741
Ni4   Ni    Ni4+2 0.065140 0.934850 0.130300 0.210071
Ni5   Ni    Ni4+2 0.565130 0.565140 0.130240 0.231129
Ni6   Ni    Ni4+2 0.434870 0.565140 0.869760 0.199995
Ni7   Ni    Ni4+2 0.065130 0.065140 0.130240 0.230811
Ni8   Ni    Ni4+2 0.934870 0.065140 0.869760 0.199933
C49   C     C_R   0.025496 0.554504 0.615494 0.091923
C50   C     C_R   0.946182 0.548643 0.510052 0.065208
C51   C     C_R   0.525506 0.054508 0.615451 0.091933
C52   C     C_R   0.446201 0.048641 0.510007 0.065160
C53   C     C_R   0.073918 0.505849 0.672101 0.028448
C54   C     C_R   0.895293 0.500225 0.471160 0.060442
C55   C     C_R   0.573920 0.005855 0.672082 0.028422
C56   C     C_R   0.395312 0.000223 0.471129 0.060419
C57   C     C_R   0.020075 0.457094 0.642787 -0.185132
C58   C     C_R   0.929389 0.454702 0.543023 -0.203085
C59   C     C_R   0.520074 0.957102 0.642779 -0.185105
C60   C     C_R   0.429394 0.954706 0.543007 -0.203064
H29   H     H_    0.051329 0.419557 0.689316 0.127368
H30   H     H_    0.890737 0.416349 0.518733 0.126984
H31   H     H_    0.551321 0.919568 0.689325 0.127381
H32   H     H_    0.390736 0.916355 0.518727 0.127016
C61   C     C_3   0.969019 0.593431 0.459902 -0.095194
C62   C     C_3   0.048890 0.607096 0.579400 -0.113152
C63   C     C_3   0.469056 0.093412 0.459843 -0.095162
C64   C     C_3   0.548914 0.107089 0.579340 -0.113176
H33   H     H_    0.914001 0.625653 0.415695 0.120259
H34   H     H_    0.118731 0.609420 0.593047 0.131664
H35   H     H_    0.414041 0.125634 0.415609 0.120325
H36   H     H_    0.618762 0.109404 0.593003 0.131634
C65   C     C_R   0.313448 0.773926 0.925922 -0.187616
C66   C     C_R   0.838588 0.691420 0.108351 -0.149330
C67   C     C_R   0.813272 0.273877 0.925761 -0.187671
C68   C     C_R   0.338590 0.191413 0.108336 -0.149461
H37   H     H_    0.333167 0.774155 0.868955 0.132025
H38   H     H_    0.851639 0.679888 0.186264 0.110732
H39   H     H_    0.832823 0.274037 0.868637 0.131959
H40   H     H_    0.351642 0.179881 0.186250 0.110780
C69   C     C_R   0.763091 0.317281 0.927090 -0.185627
C70   C     C_R   0.386884 0.236432 0.108250 -0.177689
C71   C     C_R   0.263213 0.817303 0.927233 -0.185664
C72   C     C_R   0.886883 0.736438 0.108263 -0.177725
H41   H     H_    0.742345 0.351268 0.870071 0.122588
H42   H     H_    0.434574 0.257013 0.185994 0.107509
H43   H     H_    0.242597 0.851345 0.870360 0.122631
H44   H     H_    0.934571 0.757021 0.186005 0.107526
C73   C     C_R   0.739454 0.316008 0.002284 0.153575
C74   C     C_R   0.362680 0.258428 0.007695 0.150453
C75   C     C_R   0.239377 0.815944 0.002244 0.153444
C76   C     C_R   0.862683 0.758430 0.007707 0.150388
C77   C     C_R   0.763526 0.271898 0.074287 -0.197111
C78   C     C_R   0.306123 0.227673 0.910864 -0.204901
C79   C     C_R   0.263275 0.771768 0.074054 -0.196790
C80   C     C_R   0.806133 0.727672 0.910880 -0.204899
H45   H     H_    0.741921 0.269601 0.129484 0.121572
H46   H     H_    0.291468 0.241512 0.833108 0.116929
H47   H     H_    0.241517 0.769417 0.129100 0.121593
H48   H     H_    0.791484 0.741507 0.833125 0.116894
C81   C     C_R   0.311270 0.728671 0.071372 -0.179657
C82   C     C_R   0.759397 0.681410 0.911726 -0.181747
C83   C     C_R   0.811472 0.228778 0.071599 -0.179291
C84   C     C_R   0.259391 0.181409 0.911709 -0.181790
H49   H     H_    0.326705 0.693691 0.124759 0.139337
H50   H     H_    0.711354 0.660147 0.834947 0.162656
H51   H     H_    0.827041 0.193854 0.125158 0.139777
H52   H     H_    0.211345 0.160148 0.834927 0.162566
C85   C     C_R   0.337498 0.730229 0.998868 0.168594
C86   C     C_R   0.765787 0.668167 0.007790 0.166101
C87   C     C_R   0.837474 0.230242 0.998880 0.168562
C88   C     C_R   0.265788 0.168160 0.007775 0.166161
C89   C     C_R   0.364665 0.547390 0.448938 0.396254
C90   C     C_R   0.392124 0.550657 0.377256 0.391643
C91   C     C_R   0.864776 0.047442 0.448999 0.396863
C92   C     C_R   0.892264 0.050681 0.377356 0.391515
C93   C     C_R   0.410743 0.501389 0.342285 -0.056872
C94   C     C_R   0.382330 0.498356 0.508040 -0.074050
C95   C     C_R   0.910736 0.001401 0.342271 -0.057218
C96   C     C_R   0.882310 0.998393 0.508022 -0.074513
C97   C     C_R   0.396521 0.450941 0.377032 -0.228731
C98   C     C_R   0.385626 0.449348 0.462045 -0.231556
C99   C     C_R   0.896393 0.950963 0.376932 -0.228602
C100  C     C_R   0.885494 0.949380 0.461950 -0.231514
H53   H     H_    0.404246 0.412203 0.348372 0.144337
H54   H     H_    0.389899 0.409859 0.498217 0.143020
H55   H     H_    0.904023 0.912222 0.348192 0.144316
H56   H     H_    0.889669 0.909889 0.498061 0.143000
C101  C     C_3   0.011175 0.573702 0.398053 -0.334562
C102  C     C_3   0.938890 0.551521 0.282593 -0.863016
H57   H     H_    0.913437 0.510472 0.286669 0.265065
H58   H     H_    0.879047 0.580148 0.234410 0.256780
H59   H     H_    0.972789 0.546639 0.238866 0.239266
H60   H     H_    0.046876 0.609378 0.390085 0.185591
H61   H     H_    0.065726 0.541586 0.446665 0.193627
C103  C     C_3   0.025126 0.659181 0.617669 -0.342593
C104  C     C_3   0.095317 0.670411 0.740596 -0.879613
H62   H     H_    0.105551 0.633402 0.790404 0.264748
H63   H     H_    0.163410 0.683894 0.757736 0.252461
H64   H     H_    0.068467 0.704117 0.765140 0.252355
H65   H     H_    0.024422 0.695171 0.570821 0.186956
H66   H     H_    0.953354 0.655460 0.599137 0.194209
C105  C     C_3   0.511223 0.073658 0.398022 -0.334572
C106  C     C_3   0.438922 0.051508 0.282537 -0.863020
H67   H     H_    0.413397 0.010475 0.286569 0.265080
H68   H     H_    0.379125 0.080165 0.234363 0.256769
H69   H     H_    0.472832 0.046601 0.238827 0.239269
H70   H     H_    0.546995 0.109311 0.390103 0.185647
H71   H     H_    0.565721 0.041515 0.446626 0.193654
C107  C     C_3   0.525136 0.159186 0.617562 -0.342539
C108  C     C_3   0.595302 0.170432 0.740487 -0.879684
H72   H     H_    0.605530 0.133430 0.790308 0.264763
H73   H     H_    0.663400 0.183915 0.757642 0.252442
H74   H     H_    0.568433 0.204143 0.764996 0.252362
H75   H     H_    0.524450 0.195167 0.570704 0.186958
H76   H     H_    0.453354 0.155474 0.599005 0.194221
O1    O     O_3   0.338239 0.594669 0.475130 -0.685084
C109  C     C_3   0.238657 0.599819 0.406845 0.187003
H77   H     H_    0.217772 0.617970 0.457998 0.112780
H78   H     H_    0.200240 0.559817 0.375879 0.077617
C110  C     C_3   0.207936 0.638786 0.310058 -0.246823
H79   H     H_    0.250786 0.677016 0.341806 0.205877
H80   H     H_    0.220083 0.618949 0.252366 0.220242
C111  C     C_3   0.103648 0.653870 0.246385 -1.044407
H81   H     H_    0.058962 0.616461 0.212718 0.278816
H82   H     H_    0.084204 0.681471 0.176439 0.280164
H83   H     H_    0.089721 0.675675 0.300847 0.263341
O2    O     O_3   0.399303 0.601974 0.342264 -0.686319
C112  C     C_3   0.481051 0.629346 0.430247 0.214199
H84   H     H_    0.544858 0.613201 0.439106 0.096362
H85   H     H_    0.491913 0.624148 0.511395 0.133515
C113  C     C_3   0.472110 0.690763 0.404744 -0.238441
H86   H     H_    0.456977 0.697457 0.322125 0.221530
H87   H     H_    0.412245 0.707622 0.403476 0.189362
C114  C     C_3   0.562403 0.721567 0.490606 -1.071919
H88   H     H_    0.578368 0.716166 0.574054 0.266658
H89   H     H_    0.553232 0.766003 0.469948 0.270089
H90   H     H_    0.622840 0.706253 0.491360 0.272900
O3    O     O_3   0.838564 0.094770 0.475306 -0.684733
C115  C     C_3   0.738992 0.099987 0.407223 0.186213
H91   H     H_    0.718295 0.118281 0.458452 0.112827
H92   H     H_    0.700490 0.059997 0.376502 0.077713
C116  C     C_3   0.708159 0.138822 0.310221 -0.246457
H93   H     H_    0.751016 0.177056 0.341734 0.205804
H94   H     H_    0.720209 0.118870 0.252540 0.219971
C117  C     C_3   0.603883 0.153920 0.246637 -1.044468
H95   H     H_    0.559188 0.116508 0.213136 0.278822
H96   H     H_    0.584363 0.181456 0.176578 0.280188
H97   H     H_    0.590043 0.175798 0.301110 0.263306
O4    O     O_3   0.899729 0.102008 0.342644 -0.686270
C118  C     C_3   0.981732 0.129166 0.430717 0.215757
H98   H     H_    0.045275 0.113190 0.438741 0.096637
H99   H     H_    0.993139 0.123539 0.512100 0.132132
C119  C     C_3   0.972744 0.190693 0.406173 -0.237394
H100  H     H_    0.956895 0.197820 0.323285 0.220828
H101  H     H_    0.913324 0.207368 0.406041 0.189466
C120  C     C_3   0.063363 0.221282 0.491923 -1.072390
H102  H     H_    0.080410 0.215153 0.575750 0.266664
H103  H     H_    0.053957 0.265851 0.472433 0.270134
H104  H     H_    0.123221 0.206387 0.491067 0.272903
O5    O     O_3   0.514594 0.669434 0.200077 -0.705565
C121  C     C_3   0.551408 0.723009 0.210970 0.146615
H105  H     H_    0.592059 0.733863 0.299772 0.143073
H106  H     H_    0.496274 0.754862 0.167871 0.116475
C122  C     C_3   0.619528 0.725440 0.177161 -0.303694
H107  H     H_    0.677786 0.695917 0.228804 0.201012
H108  H     H_    0.581782 0.714269 0.088829 0.199193
C123  C     C_3   0.661623 0.782697 0.193449 -1.014974
H109  H     H_    0.604751 0.813021 0.141608 0.273211
H110  H     H_    0.710904 0.782798 0.168732 0.272704
H111  H     H_    0.701412 0.794877 0.281521 0.263371
O6    O     O_3   0.559511 0.640330 0.800653 -0.702051
C124  C     C_3   0.535314 0.696632 0.779490 0.134884
H112  H     H_    0.530378 0.707844 0.703795 0.147616
H113  H     H_    0.590176 0.723956 0.846368 0.101018
C125  C     C_3   0.439752 0.707538 0.759303 -0.309051
H114  H     H_    0.387078 0.676481 0.701777 0.208365
H115  H     H_    0.448727 0.704636 0.839274 0.186717
C126  C     C_3   0.403073 0.764689 0.710980 -1.016563
H116  H     H_    0.453758 0.796507 0.768406 0.268700
H117  H     H_    0.334127 0.771342 0.697992 0.262674
H118  H     H_    0.392668 0.768872 0.630159 0.269786
O7    O     O_3   0.014244 0.169410 0.200139 -0.705492
C127  C     C_3   0.051374 0.222907 0.211200 0.146769
H119  H     H_    0.091667 0.233816 0.299944 0.143104
H120  H     H_    0.996430 0.254837 0.167694 0.116314
C128  C     C_3   0.120002 0.225077 0.178123 -0.303974
H121  H     H_    0.177851 0.195328 0.229806 0.201098
H122  H     H_    0.082468 0.214054 0.089749 0.199201
C129  C     C_3   0.162810 0.282174 0.195107 -1.015081
H123  H     H_    0.106357 0.312718 0.143274 0.273212
H124  H     H_    0.212404 0.282087 0.170843 0.272647
H125  H     H_    0.202411 0.294198 0.283245 0.263355
O8    O     O_3   0.059513 0.140319 0.800645 -0.702029
C130  C     C_3   0.035297 0.196618 0.779457 0.134847
H126  H     H_    0.030359 0.207824 0.703757 0.148056
H127  H     H_    0.090152 0.223949 0.846325 0.100970
C131  C     C_3   0.939730 0.207518 0.759260 -0.309057
H128  H     H_    0.887064 0.176454 0.701747 0.208305
H129  H     H_    0.948700 0.204624 0.839230 0.186724
C132  C     C_3   0.903032 0.264662 0.710905 -1.016552
H130  H     H_    0.953705 0.296489 0.768315 0.268703
H131  H     H_    0.834081 0.271311 0.697906 0.262641
H132  H     H_    0.892630 0.268835 0.630083 0.269760

loop_
_geom_bond_atom_site_label_1
_geom_bond_atom_site_label_2
_geom_bond_distance
_ccdc_geom_bond_type
C61   H33   1.111659 S    
C30   C34   1.379745 A    
C66   H38   1.078995 S    
C63   C105  1.551767 S    
O7    C127  1.418394 S    
C14   N14   1.328550 A    
C64   H36   1.109354 S    
C68   H40   1.078994 S    
C130  H127  1.114711 S    
C124  C125  1.531183 S    
C63   H35   1.111663 S    
C42   C94   1.471035 S    
C82   C86   1.402639 A    
C125  H114  1.110960 S    
C122  C123  1.525286 S    
C69   H41   1.083404 S    
C117  H96   1.110584 S    
C4    C36   1.377627 A    
C11   C43   1.403627 A    
C72   H44   1.080017 S    
C26   H22   1.073801 S    
N11   Ni4   1.862042 S    
C126  H117  1.110226 S    
C71   H43   1.083401 S    
C4    N4    1.321190 A    
C65   H37   1.082753 S    
C132  H131  1.110224 S    
C48   C56   1.445570 S    
C115  H92   1.117749 S    
N8    N28   1.376394 A    
N10   Ni1   1.849143 S    
C99   C100  1.383324 A    
C14   C46   1.382161 A    
C80   H48   1.081450 S    
C43   C95   1.478387 S    
C89   O1    1.382785 S    
C27   C39   1.366834 A    
C90   C93   1.423833 A    
C11   N11   1.339046 A    
C94   C98   1.398868 A    
C91   C92   1.399635 A    
C12   N12   1.334132 A    
C110  H79   1.111139 S    
C130  H126  1.110482 S    
C8    N8    1.341764 A    
C111  H82   1.110585 S    
C131  H128  1.110965 S    
N20   Ni8   1.862764 S    
C132  H130  1.110972 S    
N22   Ni2   1.859973 S    
C107  H76   1.113354 S    
C34   C73   1.417471 S    
C57   H29   1.082420 S    
C121  H106  1.105046 S    
C16   N16   1.328540 A    
N26   Ni5   1.848928 S    
C129  H123  1.110950 S    
C33   C74   1.459197 S    
C100  H56   1.080676 S    
C82   H50   1.079933 S    
C61   C101  1.551765 S    
C125  C126  1.525751 S    
C32   H28   1.081190 S    
C118  H99   1.114760 S    
N13   N21   1.385012 A    
N32   Ni3   1.864931 S    
C21   H17   1.079969 S    
C51   C55   1.413877 A    
C31   N31   1.328062 A    
C23   H19   1.079970 S    
C51   C64   1.527089 S    
C24   H20   1.080481 S    
C52   C63   1.493494 S    
C127  H120  1.105077 S    
C91   C96   1.403885 A    
N18   Ni6   1.862764 S    
C5    C37   1.378132 A    
C92   O4    1.383370 S    
C3    N3    1.339518 A    
N3    N31   1.376390 A    
C67   C69   1.383019 A    
C106  H67   1.106469 S    
C1    C33   1.385490 A    
C102  H58   1.104068 S    
C22   C46   1.374755 A    
C77   H45   1.083920 S    
N12   Ni3   1.849143 S    
C16   C48   1.382162 A    
C25   N25   1.331379 A    
C27   N27   1.331413 A    
N5    Ni5   1.865047 S    
C107  H75   1.111718 S    
C128  H122  1.110549 S    
N10   N18   1.384775 A    
N19   Ni7   1.849859 S    
C110  C111  1.525769 S    
O2    C112  1.420643 S    
N24   Ni4   1.859973 S    
C68   C70   1.377217 A    
C23   N23   1.345480 A    
C68   C88   1.402038 A    
C67   C87   1.395722 A    
C38   C86   1.466484 S    
C15   N15   1.324647 A    
C105  H70   1.109658 S    
C17   N17   1.327921 A    
C112  H84   1.112315 S    
C83   C87   1.393507 A    
C41   C93   1.478428 S    
C81   C85   1.393510 A    
C6    C38   1.399866 A    
C59   H31   1.082419 S    
C104  H63   1.104065 S    
C44   C96   1.471112 S    
C2    C34   1.377602 A    
C15   C47   1.370838 A    
O6    C124  1.416442 S    
C8    C40   1.399850 A    
C116  C117  1.525775 S    
C117  H97   1.110486 S    
N29   Ni2   1.859770 S    
C23   C47   1.401501 A    
C71   C75   1.397548 A    
N31   Ni4   1.859770 S    
C53   C57   1.413020 A    
C5    O5    1.393988 S    
N15   Ni8   1.859968 S    
C55   C59   1.413012 A    
C106  H69   1.109533 S    
C20   H16   1.073332 S    
C114  H90   1.110903 S    
C46   C54   1.445611 S    
C101  H60   1.109624 S    
C120  H103  1.110486 S    
C24   N24   1.335674 A    
C40   C88   1.466501 S    
N4    Ni4   1.863296 S    
C9    H5    1.077962 S    
C10   N10   1.334050 A    
N4    N32   1.376392 A    
C12   H8    1.080152 S    
C3    C35   1.385498 A    
C89   C94   1.403832 A    
C93   C97   1.405044 A    
C119  H100  1.108707 S    
C90   O2    1.383395 S    
C124  H113  1.114708 S    
C92   C95   1.423794 A    
C5    N5    1.327935 A    
C96   C100  1.398933 A    
C125  H115  1.108042 S    
O4    C118  1.420717 S    
C28   N28   1.330488 A    
C49   C50   1.368018 A    
C108  H74   1.110558 S    
C66   C86   1.402027 A    
C7    O7    1.393974 S    
C113  H86   1.108300 S    
C122  H108  1.110542 S    
C101  C102  1.523293 S    
C99   H55   1.079570 S    
C77   C83   1.360672 A    
C97   H53   1.079542 S    
C36   C75   1.417435 S    
C78   C84   1.389237 A    
C103  C104  1.523244 S    
N15   N23   1.385012 A    
C109  H77   1.110947 S    
C112  C113  1.527910 S    
C81   H49   1.083870 S    
C32   N32   1.329686 A    
N30   Ni1   1.864931 S    
C29   H25   1.079963 S    
C84   H52   1.079933 S    
C25   C37   1.366816 A    
C22   H18   1.080484 S    
C31   H27   1.079962 S    
C47   C55   1.461576 S    
C119  C120  1.526275 S    
C63   C64   1.528340 S    
C89   C90   1.399832 A    
C7    N7    1.328001 A    
C1    H1    1.080680 S    
C76   C80   1.401973 A    
C3    H3    1.080680 S    
C104  H64   1.110559 S    
C64   C107  1.548220 S    
C58   H30   1.081794 S    
C114  H88   1.110485 S    
C66   C72   1.377214 A    
C78   H46   1.081453 S    
C80   C82   1.389232 A    
N17   Ni5   1.849859 S    
C103  H65   1.111716 S    
C131  H129  1.108059 S    
C25   H21   1.079612 S    
C24   C48   1.374754 A    
C28   H24   1.073789 S    
C56   C60   1.407171 A    
C29   N29   1.328076 A    
C84   C88   1.402644 A    
O5    C121  1.418389 S    
C121  C122  1.532070 S    
C129  H124  1.110867 S    
C49   C62   1.527071 S    
C130  C131  1.531196 S    
N1    Ni1   1.850101 S    
C105  H71   1.113535 S    
C131  C132  1.525753 S    
C19   C43   1.386197 A    
N3    Ni3   1.850101 S    
N9    Ni2   1.862042 S    
C1    N1    1.339515 A    
C116  H93   1.111138 S    
N1    N29   1.376390 A    
C128  H121  1.109786 S    
C19   H15   1.066294 S    
C30   H26   1.081187 S    
C113  C114  1.526183 S    
C13   H9    1.069745 S    
C129  H125  1.110893 S    
C15   H11   1.069745 S    
C39   C87   1.416743 S    
C117  H95   1.109459 S    
C37   C85   1.416730 S    
C105  C106  1.523304 S    
N28   Ni7   1.848928 S    
C17   H13   1.066453 S    
C18   N18   1.337001 A    
N5    N25   1.376389 A    
C126  H118  1.110985 S    
C13   C45   1.370864 A    
C91   O3    1.382761 S    
N7    N27   1.376389 A    
N21   Ni1   1.864843 S    
C17   C41   1.386293 A    
N23   Ni3   1.864843 S    
C106  H68   1.104080 S    
C57   C58   1.405195 A    
C59   C60   1.405184 A    
C73   C77   1.395040 A    
C108  H72   1.110399 S    
C115  H91   1.110977 S    
C70   C74   1.400656 A    
C21   N21   1.345478 A    
C51   C52   1.368003 A    
C62   C103  1.548213 S    
C30   N30   1.329702 A    
C13   N13   1.324661 A    
C110  H80   1.110248 S    
C9    N9    1.338988 A    
C111  H81   1.109462 S    
N2    Ni2   1.863296 S    
C97   C98   1.383212 A    
C79   C81   1.360759 A    
N2    N30   1.376392 A    
C10   H6    1.080152 S    
C121  H105  1.110580 S    
N11   N19   1.384771 A    
C69   C73   1.397554 A    
N12   N20   1.384775 A    
C21   C45   1.401499 A    
C72   C76   1.400658 A    
C26   N26   1.330443 A    
C6    N6    1.341752 A    
N13   Ni6   1.859968 S    
C4    H4    1.079706 S    
C118  C119  1.527989 S    
N6    Ni6   1.859890 S    
C104  H62   1.110400 S    
C67   H39   1.082753 S    
C18   C42   1.385178 A    
C127  H119  1.110566 S    
C50   C54   1.382571 A    
C116  H94   1.110273 S    
C20   C44   1.385144 A    
C32   C36   1.379713 A    
C49   C53   1.413868 A    
C52   C56   1.382558 A    
C22   N22   1.335693 A    
C126  H116  1.110961 S    
N16   Ni7   1.864831 S    
C114  H89   1.110407 S    
C123  H111  1.110884 S    
C102  H57   1.106471 S    
C11   H7    1.077980 S    
C120  H102  1.110733 S    
C95   C99   1.405043 A    
C115  C116  1.534020 S    
N6    N26   1.376394 A    
C9    C41   1.403688 A    
N27   Ni8   1.862120 S    
C2    H2    1.079695 S    
C60   H32   1.081796 S    
C128  C129  1.525315 S    
C35   C76   1.459183 S    
C16   H12   1.080011 S    
N8    Ni8   1.859890 S    
C98   H54   1.080671 S    
C119  H101  1.111201 S    
C124  H112  1.110461 S    
C83   H51   1.083893 S    
C111  H83   1.110473 S    
C12   C44   1.378615 A    
C54   C58   1.407176 A    
C79   H47   1.083929 S    
C108  H73   1.104055 S    
C29   C33   1.377059 A    
N14   Ni5   1.864831 S    
N7    Ni7   1.865047 S    
C65   C85   1.395704 A    
C31   C35   1.377045 A    
C102  H59   1.109531 S    
C113  H87   1.111028 S    
O1    C109  1.415221 S    
C45   C53   1.461604 S    
C123  H109  1.110930 S    
C50   C61   1.493489 S    
C123  H110  1.110845 S    
C109  H78   1.117745 S    
C112  H85   1.114474 S    
C75   C79   1.395004 A    
N16   N24   1.385017 A    
C8    O8    1.379397 S    
C118  H98   1.112368 S    
C2    N2    1.321135 A    
C65   C71   1.383031 A    
C19   N19   1.327851 A    
C28   C40   1.386324 A    
C132  H132  1.111001 S    
C6    O6    1.379390 S    
C20   N20   1.336907 A    
O8    C130  1.416443 S    
C14   H10   1.080005 S    
C127  C128  1.531956 S    
C7    C39   1.377998 A    
C62   H34   1.109352 S    
O3    C115  1.415223 S    
C109  C110  1.534016 S    
C18   H14   1.073391 S    
C10   C42   1.378531 A    
C27   H23   1.079603 S    
C107  C108  1.523235 S    
C61   C62   1.528354 S    
N9    N17   1.384771 A    
C101  H61   1.113536 S    
C120  H104  1.111101 S    
C74   C78   1.401980 A    
C26   C38   1.386322 A    
C70   H42   1.080016 S    
C103  H66   1.113353 S    
N14   N22   1.385017 A    
N25   Ni6   1.862120 S    
C122  H107  1.109727 S    
