data_mof_unit_27885.cif
_audit_creation_date              2012-12-10T16:35:53-0500
_audit_creation_method            fapswitch 2.2
_symmetry_space_group_name_H-M    P1
_symmetry_Int_Tables_number       1
_space_group_crystal_system       triclinic
_cell_length_a                    14.100296
_cell_length_b                    16.510059
_cell_length_c                    13.214343
_cell_angle_alpha                 90.383923
_cell_angle_beta                  106.911447
_cell_angle_gamma                 90.025434
_cell_volume                      2943.14922912

loop_
_atom_site_label
_atom_site_type_symbol
_atom_type_description
_atom_site_fract_x
_atom_site_fract_y
_atom_site_fract_z
_atom_type_partial_charge
C1    C     C_R   0.314428 0.844932 0.475355 0.742882
C2    C     C_R   0.686523 0.844528 0.522025 0.866164
C3    C     C_R   0.185347 0.656887 0.525010 0.888857
C4    C     C_R   0.186523 0.344528 0.522025 0.866164
C5    C     C_R   0.545651 0.002125 0.785374 0.863205
C6    C     C_R   0.045651 0.502125 0.785374 0.863205
C7    C     C_R   0.454048 0.999719 0.216082 0.813952
C8    C     C_R   0.954048 0.499719 0.216082 0.813952
C9    C     C_2   0.436098 0.998482 0.102530 -0.158485
C10   C     C_2   0.936098 0.498482 0.102530 -0.158485
C11   C     C_2   0.504726 0.028418 0.058095 -0.070728
C12   C     C_R   0.313723 0.154197 0.476020 0.747559
C13   C     C_2   0.004726 0.528418 0.058095 -0.070728
C14   C     C_2   0.558891 0.006176 0.899757 -0.393171
C15   C     C_2   0.058891 0.506176 0.899757 -0.393172
C16   C     C_2   0.485366 0.029828 0.941619 -0.014169
C17   C     C_2   0.985366 0.529828 0.941619 -0.014169
C18   C     C_2   0.756452 0.224100 0.541333 -0.299494
C19   C     C_2   0.763964 0.785354 0.522988 -0.303967
C20   C     C_2   0.256452 0.724100 0.541333 -0.299494
C21   C     C_2   0.263964 0.285354 0.522988 -0.303967
C22   C     C_R   0.388797 0.064259 0.876593 0.175157
C23   C     C_R   0.814428 0.344932 0.475355 0.742883
C24   C     C_R   0.313150 0.013796 0.814311 -0.032727
C25   C     C_R   0.225210 0.047118 0.750666 -0.092834
C26   C     C_R   0.210572 0.130588 0.750291 -0.098317
C27   C     C_R   0.282843 0.180909 0.815624 -0.188523
C28   C     C_R   0.371740 0.147977 0.878501 -0.200730
C29   C     C_R   0.888797 0.564259 0.876593 0.175157
C30   C     C_R   0.813150 0.513796 0.814311 -0.032727
C31   C     C_R   0.725210 0.547118 0.750666 -0.092833
C32   C     C_R   0.710572 0.630587 0.750291 -0.098317
C33   C     C_R   0.782843 0.680909 0.815624 -0.188523
C34   C     C_R   0.813723 0.654197 0.476020 0.747559
C35   C     C_R   0.871740 0.647977 0.878501 -0.200730
C36   C     C_R   0.601919 0.061383 0.124915 0.149500
C37   C     C_R   0.665906 0.013993 0.203996 -0.169766
C38   C     C_R   0.755637 0.046129 0.267016 -0.169962
C39   C     C_R   0.783087 0.125190 0.250770 -0.068194
C40   C     C_R   0.721317 0.172033 0.170758 -0.074620
C41   C     C_R   0.631293 0.140342 0.107935 -0.136150
C42   C     C_R   0.101919 0.561383 0.124915 0.149501
C43   C     C_R   0.165906 0.513993 0.203996 -0.169766
C44   C     C_R   0.255637 0.546129 0.267016 -0.169963
C45   C     C_2   0.242846 0.780631 0.464110 0.360162
C46   C     C_R   0.283087 0.625190 0.250770 -0.068194
C47   C     C_R   0.221317 0.672033 0.170758 -0.074620
C48   C     C_R   0.131293 0.640342 0.107935 -0.136150
C49   C     C_R   0.338539 0.964487 0.043154 0.107940
C50   C     C_R   0.329172 0.883030 0.010755 -0.136143
C51   C     C_R   0.235098 0.849951 0.963139 -0.183139
C52   C     C_R   0.150437 0.897785 0.947987 -0.118972
C53   C     C_R   0.159306 0.978591 0.981428 -0.136771
C54   C     C_R   0.252879 0.011644 0.030081 -0.158112
C55   C     C_R   0.838539 0.464487 0.043154 0.107940
C56   C     C_2   0.237673 0.213954 0.471275 0.363394
C57   C     C_R   0.829172 0.383030 0.010755 -0.136143
C58   C     C_R   0.735098 0.349951 0.963139 -0.183139
C59   C     C_R   0.650437 0.397785 0.947987 -0.118971
C60   C     C_R   0.659306 0.478591 0.981428 -0.136771
C61   C     C_R   0.752879 0.511644 0.030081 -0.158112
C62   C     C_R   0.335275 0.730946 0.645999 0.067288
C63   C     C_R   0.309930 0.720899 0.740684 -0.089220
C64   C     C_R   0.381938 0.728134 0.838682 -0.154353
C65   C     C_R   0.479131 0.748831 0.843858 -0.112210
C66   C     C_R   0.505535 0.758712 0.750889 -0.144443
C67   C     C_2   0.742846 0.280631 0.464110 0.360161
C68   C     C_R   0.435270 0.746648 0.652662 -0.136188
C69   C     C_R   0.369694 0.308306 0.573382 0.081174
C70   C     C_R   0.429932 0.262741 0.657099 -0.144047
C71   C     C_R   0.530153 0.281955 0.700041 -0.170747
C72   C     C_R   0.571391 0.346564 0.659542 -0.114720
C73   C     C_R   0.511923 0.392807 0.577002 -0.133690
C74   C     C_R   0.411285 0.374144 0.534467 -0.078729
C75   C     C_R   0.835275 0.230946 0.645999 0.067287
C76   C     C_R   0.809930 0.220899 0.740684 -0.089220
C77   C     C_R   0.881938 0.228134 0.838682 -0.154353
C78   C     C_2   0.737673 0.713954 0.471275 0.363394
C79   C     C_R   0.979131 0.248831 0.843858 -0.112210
C80   C     C_R   0.005535 0.258713 0.750889 -0.144443
C81   C     C_R   0.935270 0.246648 0.652662 -0.136187
C82   C     C_R   0.869695 0.808306 0.573382 0.081174
C83   C     C_R   0.929932 0.762741 0.657099 -0.144047
C84   C     C_R   0.030153 0.781955 0.700042 -0.170748
C85   C     C_R   0.071391 0.846564 0.659542 -0.114720
C86   C     C_R   0.011923 0.892807 0.577003 -0.133690
C87   C     C_R   0.911285 0.874144 0.534468 -0.078728
C88   C     C_3   0.631236 0.339254 0.318499 -0.289521
C89   C     C_R   0.685347 0.156887 0.525010 0.888857
C90   C     C_3   0.617993 0.640042 0.346957 -0.313296
C91   C     C_3   0.131237 0.839254 0.318498 -0.289521
C92   C     C_3   0.117993 0.140042 0.346957 -0.313298
H1    H     H_    0.630357 0.987622 0.951643 0.152850
H2    H     H_    0.643371 0.655935 0.698669 0.144481
H3    H     H_    0.771061 0.745679 0.815698 0.140707
H4    H     H_    0.927708 0.688037 0.926758 0.125251
H5    H     H_    0.646374 0.952265 0.216836 0.123204
H6    H     H_    0.804026 0.009690 0.328347 0.116972
H7    H     H_    0.852261 0.150121 0.300026 0.136044
H8    H     H_    0.742863 0.233172 0.157898 0.141975
H9    H     H_    0.584311 0.177795 0.046909 0.107973
H10   H     H_    0.146374 0.452265 0.216836 0.123204
H11   H     H_    0.304026 0.509691 0.328347 0.116972
H12   H     H_    0.130357 0.487622 0.951643 0.152850
H13   H     H_    0.352261 0.650121 0.300026 0.136044
H14   H     H_    0.242863 0.733172 0.157898 0.141975
H15   H     H_    0.084311 0.677795 0.046909 0.107973
H16   H     H_    0.394344 0.845315 0.023703 0.129397
H17   H     H_    0.227229 0.787057 0.938874 0.119818
H18   H     H_    0.077885 0.872013 0.911241 0.136486
H19   H     H_    0.093663 0.015444 0.970409 0.134116
H20   H     H_    0.258837 0.074034 0.057140 0.131098
H21   H     H_    0.894344 0.345315 0.023703 0.129397
H22   H     H_    0.727229 0.287056 0.938874 0.119818
H23   H     H_    0.323826 0.948896 0.812644 0.137916
H24   H     H_    0.577884 0.372013 0.911241 0.136486
H25   H     H_    0.593663 0.515444 0.970409 0.134116
H26   H     H_    0.758837 0.574034 0.057140 0.131097
H27   H     H_    0.234426 0.707332 0.738894 0.112000
H28   H     H_    0.362419 0.718022 0.910841 0.116443
H29   H     H_    0.534182 0.756405 0.919865 0.121089
H30   H     H_    0.580850 0.775006 0.754975 0.114321
H31   H     H_    0.459466 0.749914 0.582359 0.143812
H32   H     H_    0.399790 0.211499 0.687779 0.147007
H33   H     H_    0.575828 0.246323 0.764297 0.110162
H34   H     H_    0.168726 0.008419 0.700790 0.121068
H35   H     H_    0.649392 0.360570 0.692038 0.129536
H36   H     H_    0.543875 0.442751 0.545374 0.121092
H37   H     H_    0.366310 0.409740 0.469720 0.094189
H38   H     H_    0.734426 0.207332 0.738894 0.112000
H39   H     H_    0.862419 0.218022 0.910841 0.116443
H40   H     H_    0.034182 0.256405 0.919866 0.121089
H41   H     H_    0.080850 0.275006 0.754976 0.114321
H42   H     H_    0.959466 0.249915 0.582359 0.143812
H43   H     H_    0.899790 0.711498 0.687778 0.147007
H44   H     H_    0.075828 0.746322 0.764297 0.110163
H45   H     H_    0.143371 0.155935 0.698669 0.144481
H46   H     H_    0.149392 0.860570 0.692039 0.129536
H47   H     H_    0.043875 0.942751 0.545375 0.121092
H48   H     H_    0.866310 0.909740 0.469721 0.094189
H49   H     H_    0.683526 0.374949 0.287585 0.145731
H50   H     H_    0.603744 0.376189 0.374961 0.141058
H51   H     H_    0.566409 0.323790 0.250288 0.190954
H52   H     H_    0.645903 0.577697 0.368764 0.149285
H53   H     H_    0.649355 0.665229 0.285517 0.144154
H54   H     H_    0.536517 0.635820 0.311765 0.181254
H55   H     H_    0.183527 0.874949 0.287584 0.145731
H56   H     H_    0.271062 0.245679 0.815699 0.140706
H57   H     H_    0.103745 0.876190 0.374961 0.141057
H58   H     H_    0.066410 0.823790 0.250288 0.190954
H59   H     H_    0.145903 0.077697 0.368765 0.149285
H60   H     H_    0.149355 0.165229 0.285517 0.144154
H61   H     H_    0.036517 0.135820 0.311765 0.181254
H62   H     H_    0.427708 0.188037 0.926758 0.125252
H63   H     H_    0.823826 0.448896 0.812644 0.137916
H64   H     H_    0.668726 0.508419 0.700790 0.121068
O1    O     O_3   0.500010 0.000000 0.500000 -0.491194
O2    O     O_R   0.103010 0.337110 0.452470 -0.586974
O3    O     O_R   0.316670 0.095240 0.537470 -0.641328
O4    O     O_R   0.316670 0.904760 0.537470 -0.664295
O5    O     O_R   0.816670 0.595240 0.537470 -0.641328
O6    O     O_R   0.816670 0.404760 0.537470 -0.664295
O7    O     O_R   0.703490 0.904800 0.585920 -0.651476
O8    O     O_R   0.703490 0.095200 0.585920 -0.659356
O9    O     O_R   0.203490 0.404800 0.585920 -0.651476
O10   O     O_R   0.203490 0.595200 0.585920 -0.659355
O11   O     O_R   0.458050 0.000000 0.725250 -0.637409
O12   O     O_3   0.000010 0.500000 0.500000 -0.491194
O13   O     O_R   0.958050 0.500000 0.725250 -0.637409
O14   O     O_R   0.461630 0.932310 0.264690 -0.651560
O15   O     O_R   0.461630 0.067690 0.264690 -0.627539
O16   O     O_R   0.961630 0.432310 0.264690 -0.651560
O17   O     O_R   0.961630 0.567690 0.264690 -0.627539
O18   O     O_R   0.618750 0.000000 0.745380 -0.645711
O19   O     O_R   0.118750 0.500000 0.745380 -0.645711
O20   O     O_3   0.675599 0.266522 0.364687 -0.575067
O21   O     O_3   0.638047 0.690625 0.437369 -0.587892
O22   O     O_3   0.175599 0.766523 0.364687 -0.575068
O23   O     O_R   0.376880 0.837120 0.424150 -0.639288
O24   O     O_3   0.138047 0.190625 0.437369 -0.587892
O25   O     O_R   0.376880 0.162880 0.424150 -0.653110
O26   O     O_R   0.876880 0.337120 0.424150 -0.639288
O27   O     O_R   0.876880 0.662880 0.424150 -0.653110
O28   O     O_R   0.603010 0.162890 0.452470 -0.563281
O29   O     O_R   0.603010 0.837110 0.452470 -0.586974
O30   O     O_R   0.103010 0.662890 0.452470 -0.563281
Zn1   Zn    Zn3+2 0.485630 0.096680 0.411850 0.994717
Zn2   Zn    Zn3+2 0.485630 0.903320 0.411850 0.971381
Zn3   Zn    Zn3+2 0.985630 0.596680 0.411850 0.994717
Zn4   Zn    Zn3+2 0.985630 0.403320 0.411850 0.971381
Zn5   Zn    Zn3+2 0.399590 0.000000 0.573760 0.947879
Zn6   Zn    Zn3+2 0.899590 0.500000 0.573760 0.947879
Zn7   Zn    Zn3+2 0.629190 1.000000 0.602520 0.958963
Zn8   Zn    Zn3+2 0.129190 0.500000 0.602520 0.958963

loop_
_geom_bond_atom_site_label_1
_geom_bond_atom_site_label_2
_ccdc_geom_bond_type
C66   C68   A    
C24   C25   A    
C46   H13   S    
C75   C76   A    
C18   C75   S    
C7    O15   A    
C78   O21   S    
C17   C29   S    
C5    O18   A    
C32   H2    S    
O1    Zn2   S    
C87   H48   S    
C38   H6    S    
C34   O5    A    
O9    Zn8   S    
C91   H55   S    
C31   H64   S    
O25   Zn1   S    
C81   H42   S    
C53   C54   A    
C26   C27   A    
C37   C38   A    
C83   C84   A    
O1    Zn7   S    
C36   C37   A    
C90   H53   S    
O2    Zn4   S    
C77   H39   S    
C30   C31   A    
C48   H15   S    
C6    O19   A    
O7    Zn7   S    
C49   C54   A    
C91   O22   S    
O27   Zn3   S    
O12   Zn4   S    
C4    O9    A    
C7    C9    S    
C73   C74   A    
C23   C67   S    
C92   O24   S    
C33   C35   A    
C6    C15   S    
O12   Zn6   S    
C76   H38   S    
C4    O2    A    
C12   O25   A    
C27   H56   S    
C82   C87   A    
C92   H60   S    
C66   H30   S    
C35   H4    S    
C92   H61   S    
C65   H29   S    
C15   H12   S    
C19   C82   S    
C14   H1    S    
C83   H43   S    
C20   C45   D    
C72   C73   A    
C23   O6    A    
C26   H45   S    
C2    C19   S    
C90   O21   S    
C59   C60   A    
C51   H17   S    
O12   Zn8   S    
C28   H62   S    
C36   C41   A    
O5    Zn6   S    
C30   H63   S    
C33   H3    S    
C68   H31   S    
C37   H5    S    
C13   C42   S    
C25   C26   A    
C44   H11   S    
C44   C46   A    
O26   Zn4   S    
C77   C79   A    
O6    Zn6   S    
C72   H35   S    
C51   C52   A    
C47   C48   A    
O3    Zn5   S    
C69   C74   A    
C9    C49   S    
C84   C85   A    
C23   O26   A    
C39   C40   A    
C91   H57   S    
C86   C87   A    
C59   H24   S    
O29   Zn2   S    
C57   H21   S    
O23   Zn2   S    
O16   Zn4   S    
C18   C67   D    
C85   C86   A    
C82   C83   A    
C80   H41   S    
C63   C64   A    
C21   C69   S    
C60   C61   A    
C11   C36   S    
C53   H19   S    
C19   C78   D    
C25   H34   S    
C89   O28   A    
C62   C63   A    
C21   C56   D    
C63   H27   S    
C11   C16   S    
C39   H7    S    
C31   C32   A    
C52   H18   S    
C67   O20   S    
C47   H14   S    
C92   H59   S    
C50   C51   A    
C54   H20   S    
C34   O27   A    
C42   C48   A    
C76   C77   A    
C10   C55   S    
C9    C11   D    
C5    C14   S    
C70   C71   A    
C86   H47   S    
C24   H23   S    
C45   O22   S    
C40   C41   A    
C49   C50   A    
C55   C57   A    
C43   C44   A    
C60   H25   S    
C14   C16   D    
C74   H37   S    
C42   C43   A    
C3    O30   A    
C88   H49   S    
C52   C53   A    
C56   O24   S    
C88   H50   S    
C46   C47   A    
C84   H44   S    
C16   C22   S    
C88   H51   S    
C61   H26   S    
O8    Zn7   S    
C18   C89   S    
C50   H16   S    
C1    O4    A    
C75   C81   A    
O10   Zn8   S    
O4    Zn5   S    
C80   C81   A    
C10   C13   D    
C89   O8    A    
C2    O7    A    
C40   H8    S    
C91   H58   S    
C15   C17   D    
O15   Zn1   S    
C73   H36   S    
O11   Zn5   S    
C29   C35   A    
O19   Zn8   S    
C64   H28   S    
O28   Zn1   S    
C13   C17   S    
C32   C33   A    
O30   Zn3   S    
C58   C59   A    
C2    O29   A    
O1    Zn5   S    
C90   H54   S    
C3    C20   S    
C64   C65   A    
C4    C21   S    
C1    O23   A    
C1    C45   S    
C57   C58   A    
C38   C39   A    
C79   H40   S    
C55   C61   A    
O17   Zn3   S    
C12   C56   S    
C41   H9    S    
C22   C24   A    
C62   C68   A    
C5    O11   A    
C12   O3    A    
C20   C62   S    
C69   C70   A    
C90   H52   S    
C43   H10   S    
O1    Zn1   S    
O12   Zn3   S    
C29   C30   A    
C79   C80   A    
C70   H32   S    
C88   O20   S    
C71   C72   A    
O18   Zn7   S    
C8    C10   S    
C65   C66   A    
C7    O14   A    
O14   Zn2   S    
C27   C28   A    
C58   H22   S    
C71   H33   S    
C22   C28   A    
C8    O17   A    
O13   Zn6   S    
C85   H46   S    
C34   C78   S    
C8    O16   A    
C3    O10   A    
C6    O13   A    
