data_mof_unit_19473.cif
_audit_creation_date              2012-12-11T14:21:13-0500
_audit_creation_method            fapswitch 2.2
_symmetry_space_group_name_H-M    P1
_symmetry_Int_Tables_number       1
_space_group_crystal_system       triclinic
_cell_length_a                    11.549646
_cell_length_b                    11.529231
_cell_length_c                    19.540388
_cell_angle_alpha                 90.496129
_cell_angle_beta                  89.973567
_cell_angle_gamma                 59.955618
_cell_volume                      2252.2442082

loop_
_atom_site_label
_atom_site_type_symbol
_atom_type_description
_atom_site_fract_x
_atom_site_fract_y
_atom_site_fract_z
_atom_type_partial_charge
C1    C     C_R   0.640397 0.117495 0.599223 0.546439
C2    C     C_1   0.652741 0.149940 0.668617 0.009632
C3    C     C_R   0.663482 0.673845 0.192848 0.004326
C4    C     C_R   0.612408 0.745973 0.598602 0.549423
C5    C     C_R   0.537928 0.723444 0.224203 -0.044763
C6    C     C_R   0.535950 0.693009 0.293185 -0.060857
C7    C     C_R   0.769514 0.634130 0.304171 0.179650
C8    C     C_R   0.778810 0.628777 0.233417 -0.131782
C9    C     C_R   0.417158 0.784472 0.186685 0.423290
C10   C     C_R   0.302612 0.791223 0.213852 -0.094614
C11   C     C_R   0.305895 0.741427 0.278650 -0.144920
C12   C     C_1   0.641113 0.703855 0.667961 0.010971
C13   C     C_R   0.422573 0.687699 0.317290 0.384849
C14   C     C_R   0.646467 0.672176 0.335002 0.047684
C15   C     C_R   0.157971 0.184500 0.187836 0.054589
C16   C     C_R   0.240741 0.145423 0.598127 0.548967
C17   C     C_R   0.222570 0.248456 0.216212 -0.032392
C18   C     C_R   0.220061 0.262447 0.287803 -0.018557
C19   C     C_R   0.154222 0.091432 0.298058 -0.160770
C20   C     C_R   0.125257 0.105302 0.228932 -0.149869
C21   C     C_R   0.274248 0.312574 0.174803 0.453778
C22   C     C_R   0.291936 0.414029 0.202062 0.431347
C23   C     C_1   0.126952 0.198502 0.859330 0.017606
C24   C     C_R   0.268496 0.444946 0.271148 -0.170760
C25   C     C_R   0.234246 0.370581 0.313684 -0.119764
C26   C     C_R   0.199456 0.170386 0.328982 0.043434
C27   C     C_R   0.665119 0.183160 0.191797 0.041411
C28   C     C_R   0.647097 0.111138 0.402128 0.550291
C29   C     C_R   0.734731 0.051200 0.216893 -0.032471
C30   C     C_R   0.761160 0.033829 0.287408 -0.047409
C31   C     C_R   0.593964 0.268644 0.306979 -0.158977
C32   C     C_R   0.596915 0.291209 0.237553 -0.155245
C33   C     C_R   0.793452 0.937663 0.172718 0.440008
C34   C     C_1   0.171369 0.170281 0.727693 -0.025879
C35   C     C_R   0.901043 0.817757 0.194907 0.404129
C36   C     C_R   0.944473 0.807004 0.261996 -0.152268
C37   C     C_R   0.874474 0.912392 0.308338 -0.157461
C38   C     C_R   0.675061 0.140359 0.332987 0.015662
C39   C     C_R   0.081991 0.230944 0.928638 0.565961
C40   C     C_R   0.617459 0.734304 0.403307 0.605006
C41   C     C_R   0.683873 0.604470 0.929516 0.561840
C42   C     C_R   0.708353 0.206512 0.930162 0.571670
C43   C     C_R   0.087019 0.232737 0.123549 0.601065
C44   C     C_R   0.682122 0.614921 0.124771 0.617212
C45   C     C_1   0.150274 0.182069 0.798943 -0.023454
C46   C     C_R   0.705407 0.209887 0.125630 0.610017
C47   C     C_R   0.247158 0.141453 0.399904 0.555462
C48   C     C_1   0.670461 0.646526 0.860144 0.018461
C49   C     C_1   0.654708 0.683655 0.728408 -0.026168
C50   C     C_1   0.663484 0.666704 0.799686 -0.023784
C51   C     C_1   0.195020 0.161053 0.667331 0.008826
C52   C     C_1   0.678666 0.190960 0.860823 0.018871
C53   C     C_1   0.658357 0.167350 0.729040 -0.025548
C54   C     C_1   0.665646 0.180740 0.800370 -0.023219
Cl1   Cl    Cl    0.915620 0.577058 0.353042 -0.651824
Cr1   Cr    Cr6+3 0.404720 0.198220 0.499960 1.058691
Cr2   Cr    Cr6+3 0.698290 0.897110 0.500380 1.077835
Cr3   Cr    Cr6+3 0.396970 0.904720 0.499610 1.082694
Cr4   Cr    Cr6+3 0.926180 0.151990 0.028120 1.109197
Cr5   Cr    Cr6+3 0.921330 0.451820 0.027470 1.161591
Cr6   Cr    Cr6+3 0.626260 0.446870 0.028710 1.152029
F1    F     F_    0.327511 0.485393 0.160980 -0.586563
F2    F     F_    0.749856 0.944579 0.107479 -0.560982
F3    F     F_    0.966955 0.713723 0.150455 -0.580559
F4    F     F_    0.410953 0.835190 0.123411 -0.586145
F5    F     F_    0.427290 0.621535 0.375368 -0.633184
F6    F     F_    0.305130 0.278526 0.107773 -0.558352
H1    H     H_    0.279331 0.525074 0.292691 0.155677
H2    H     H_    0.134930 0.024170 0.327998 0.129251
H3    H     H_    0.071749 0.058213 0.208291 0.134498
H4    H     H_    0.209406 0.408966 0.365226 0.220213
H5    H     H_    0.531562 0.351958 0.340743 0.185798
H6    H     H_    0.549061 0.393678 0.220065 0.189047
H7    H     H_    0.031089 0.715589 0.278602 0.174988
H8    H     H_    0.916649 0.899349 0.358838 0.183673
H9    H     H_    0.877581 0.581668 0.210558 0.212953
H10   H     H_    0.212241 0.831386 0.183804 0.165823
H11   H     H_    0.217508 0.744727 0.299173 0.122013
O1    O     O_R   0.267740 0.231960 0.575440 -0.495827
O2    O     O_R   0.596130 0.579390 0.952730 -0.485194
O3    O     O_R   0.639060 0.321160 0.958670 -0.485607
O4    O     O_R   0.527280 0.186640 0.570530 -0.490646
O5    O     O_R   0.821240 0.124200 0.104370 -0.482918
O6    O     O_R   0.036890 0.167040 0.097840 -0.513176
O7    O     O_R   0.056180 0.349610 0.102880 -0.447220
O8    O     O_R   0.797660 0.564870 0.097950 -0.480326
O9    O     O_R   0.595880 0.584250 0.104270 -0.453750
O10   O     O_R   0.638830 0.325670 0.099150 -0.469770
O11   O     O_3   0.824590 0.350230 0.028100 -0.321931
O12   O     O_R   0.685970 0.784660 0.430010 -0.454901
O13   O     O_R   0.728090 0.003450 0.576380 -0.503493
O14   O     O_R   0.682970 0.789190 0.570490 -0.490953
O15   O     O_R   0.499290 0.771880 0.575530 -0.494943
O16   O     O_R   0.285330 0.030870 0.569730 -0.495077
O17   O     O_R   0.270980 0.227080 0.423890 -0.521909
O18   O     O_R   0.530280 0.182120 0.430050 -0.496770
O19   O     O_R   0.731330 0.998570 0.424830 -0.516320
O20   O     O_R   0.502530 0.767000 0.423990 -0.453061
O21   O     O_R   0.288330 0.026350 0.429250 -0.501185
O22   O     O_3   0.499990 0.000020 0.499980 -0.280672
O23   O     O_R   0.821500 0.119340 0.952830 -0.478254
O24   O     O_R   0.037130 0.162530 0.957360 -0.492919
O25   O     O_R   0.056440 0.344740 0.951340 -0.475933
O26   O     O_R   0.797900 0.560360 0.957470 -0.486555

loop_
_geom_bond_atom_site_label_1
_geom_bond_atom_site_label_2
_ccdc_geom_bond_type
C28   O19   A    
Cr1   O17   S    
C23   C45   T    
Cr2   O14   S    
C27   C29   A    
C19   C20   A    
Cr3   O20   S    
C16   C51   S    
C7    Cl1   S    
C41   O2    A    
C12   C49   T    
C7    C8    A    
C53   C54   S    
C18   C25   A    
C34   C51   T    
Cr1   O1    S    
C36   C37   A    
Cr6   O10   S    
Cr3   O15   S    
Cr4   O5    S    
C40   O20   A    
C5    C6    A    
C6    C14   A    
Cr6   O2    S    
C29   C33   A    
C8    H9    S    
C47   O21   A    
C30   C38   A    
C15   C17   A    
C1    C2    S    
Cr4   O11   S    
C19   C26   A    
Cr6   O9    S    
C7    C14   A    
C35   C36   A    
C52   C54   T    
C18   C26   A    
C35   F3    S    
C25   H4    S    
C4    C12   S    
Cr5   O25   S    
C9    C10   A    
C48   C50   T    
C37   H8    S    
C1    O13   A    
C21   C22   A    
C21   F6    S    
C43   O6    A    
C20   H3    S    
C42   O3    A    
C44   O8    A    
C10   H10   S    
Cr6   O11   S    
C46   O10   A    
C13   F5    S    
C15   C20   A    
C3    C44   S    
Cr2   O12   S    
Cr4   O23   S    
Cr3   O22   S    
C24   C25   A    
C3    C8    A    
C32   H6    S    
Cr5   O8    S    
C1    O4    A    
Cr5   O11   S    
Cr2   O22   S    
C17   C21   A    
C4    O15   A    
C30   C37   A    
C43   O7    A    
C5    C9    A    
C29   C30   A    
C11   H11   S    
C22   F1    S    
C31   C32   A    
C28   C38   S    
C33   F2    S    
Cr2   O19   S    
C17   C18   A    
C34   C45   S    
Cr4   O6    S    
Cr1   O4    S    
C36   H7    S    
C26   C47   S    
C27   C46   S    
C31   H5    S    
C22   C24   A    
C19   H2    S    
Cr1   O22   S    
C44   O9    A    
C42   O23   A    
C39   O24   A    
Cr1   O18   S    
Cr2   O13   S    
C27   C32   A    
Cr4   O24   S    
Cr3   O21   S    
C3    C5    A    
C2    C53   T    
Cr5   O7    S    
C31   C38   A    
C39   O25   A    
C16   O16   A    
C41   O26   A    
C28   O18   A    
C16   O1    A    
Cr3   O16   S    
C15   C43   S    
Cr6   O3    S    
C6    C13   A    
C11   C13   A    
C23   C39   S    
C33   C35   A    
C41   C48   S    
C9    F4    S    
C10   C11   A    
C24   H1    S    
C14   C40   S    
C46   O5    A    
C49   C50   S    
C47   O17   A    
C40   O12   A    
Cr5   O26   S    
C42   C52   S    
C4    O14   A    
