data_mof_unit_39255.cif
_audit_creation_date              2012-12-10T17:31:08-0500
_audit_creation_method            fapswitch 2.2
_symmetry_space_group_name_H-M    P1
_symmetry_Int_Tables_number       1
_space_group_crystal_system       triclinic
_cell_length_a                    12.067986
_cell_length_b                    12.789733
_cell_length_c                    15.667049
_cell_angle_alpha                 86.169627
_cell_angle_beta                  116.197485
_cell_angle_gamma                 93.707371
_cell_volume                      2163.23550544

loop_
_atom_site_label
_atom_site_type_symbol
_atom_type_description
_atom_site_fract_x
_atom_site_fract_y
_atom_site_fract_z
_atom_type_partial_charge
C1    C     C_R   0.478394 0.300198 0.501208 0.871432
C2    C     C_R   0.521650 0.699809 0.498734 0.868165
C3    C     C_R   0.640477 0.463674 0.110105 -0.229839
C4    C     C_R   0.364148 0.546118 0.891126 -0.229834
C5    C     C_R   0.732708 0.460482 0.078619 0.138631
C6    C     C_R   0.270918 0.545489 0.921872 0.138847
C7    C     C_R   0.531798 0.811028 0.489795 -0.135650
C8    C     C_R   0.468769 0.188973 0.510123 -0.130174
C9    C     C_R   0.505976 0.036587 0.614941 -0.206336
C10   C     C_R   0.496300 0.963600 0.385350 -0.199430
C11   C     C_R   0.487067 0.143392 0.599418 0.095314
C12   C     C_R   0.513827 0.856572 0.400555 0.094378
C13   C     C_R   0.462783 0.130532 0.435313 0.087641
C14   C     C_R   0.539531 0.869731 0.564975 0.096317
C15   C     C_R   0.489770 0.023686 0.454654 0.063627
C16   C     C_R   0.512776 0.976623 0.545695 0.064009
C17   C     C_R   0.002721 0.603800 0.415008 -0.295188
C18   C     C_R   0.998616 0.397804 0.586676 -0.324248
C19   C     C_R   0.119092 0.589282 0.416277 0.306329
C20   C     C_R   0.877897 0.405271 0.578244 0.331001
C21   C     C_R   0.162646 0.458171 0.540499 -0.089821
C22   C     C_R   0.840835 0.546995 0.464657 -0.095285
C23   C     C_R   0.576693 0.495092 0.680062 0.839549
C24   C     C_R   0.423377 0.504755 0.319857 0.840950
C25   C     C_R   0.041712 0.464930 0.533496 0.050539
C26   C     C_R   0.961965 0.540044 0.471662 0.036944
C27   C     C_R   0.623764 0.492391 0.783451 -0.054600
C28   C     C_R   0.377297 0.508447 0.216378 -0.055546
C29   C     C_R   0.786473 0.477464 0.943312 -0.215038
C30   C     C_R   0.215319 0.519990 0.055889 -0.214983
C31   C     C_R   0.749008 0.485040 0.845324 -0.196613
C32   C     C_R   0.251802 0.509796 0.153636 -0.192010
C33   C     C_R   0.538090 0.497089 0.819922 -0.252531
C34   C     C_R   0.464452 0.510117 0.180562 -0.252133
C35   C     C_R   0.573844 0.499303 0.917318 0.081189
C36   C     C_R   0.429872 0.508161 0.083318 0.080869
C37   C     C_R   0.699257 0.480761 0.980789 0.104068
C38   C     C_R   0.303882 0.523105 0.019319 0.102356
C39   C     C_R   0.485300 0.513477 0.951756 0.010613
C40   C     C_R   0.519308 0.496055 0.049327 0.010496
H1    H     H_    0.939125 0.659565 0.365801 0.164528
H2    H     H_    0.059136 0.339425 0.635459 0.151671
H3    H     H_    0.560784 0.517494 0.229834 0.157446
H4    H     H_    0.441566 0.493807 0.770817 0.158017
H5    H     H_    0.182187 0.505569 0.179545 0.140856
H6    H     H_    0.817118 0.481821 0.818170 0.146067
H7    H     H_    0.883737 0.467735 0.988637 0.125860
H8    H     H_    0.117588 0.525739 0.009981 0.126087
H9    H     H_    0.663022 0.437143 0.182077 0.164937
H10   H     H_    0.341928 0.574677 0.819707 0.164432
H11   H     H_    0.518653 0.001214 0.682521 0.178901
H12   H     H_    0.483911 0.998937 0.317823 0.177657
H13   H     H_    0.779458 0.605057 0.416486 0.128734
H14   H     H_    0.225176 0.401937 0.590421 0.130466
N1    N     N_R   0.799120 0.480200 0.517090 -0.112108
N2    N     N_R   0.200880 0.519800 0.482910 -0.122829
O1    O     O_R   0.580150 0.341050 0.504560 -0.621518
O2    O     O_R   0.419850 0.658950 0.495440 -0.633926
O3    O     O_R   0.388090 0.353760 0.493600 -0.614480
O4    O     O_R   0.611910 0.646240 0.506400 -0.612710
O5    O     O_R   0.650890 0.490020 0.640860 -0.638896
O6    O     O_R   0.349110 0.509980 0.359140 -0.637055
O7    O     O_R   0.458830 0.502730 0.629890 -0.621132
O8    O     O_R   0.541170 0.497270 0.370110 -0.621277
Zn1   Zn    Zn3+2 0.628240 0.491510 0.507320 0.919224
Zn2   Zn    Zn3+2 0.371760 0.508490 0.492680 0.914415
C41   C     C_3   0.864778 0.430867 0.146566 -0.425711
C42   C     C_3   0.889859 0.400649 0.249391 -0.865600
H15   H     H_    0.866872 0.465551 0.281389 0.265060
H16   H     H_    0.835124 0.328414 0.252267 0.257914
H17   H     H_    0.989436 0.385147 0.292019 0.255928
H18   H     H_    0.889183 0.362878 0.118455 0.210515
H19   H     H_    0.928665 0.498161 0.148211 0.203736
C43   C     C_3   0.138027 0.572358 0.853497 -0.420123
C44   C     C_3   0.113435 0.605476 0.751273 -0.870306
H20   H     H_    0.166350 0.679385 0.749826 0.258587
H21   H     H_    0.138875 0.542735 0.718562 0.263068
H22   H     H_    0.013461 0.619192 0.708314 0.257591
H23   H     H_    0.076359 0.502781 0.850360 0.197121
H24   H     H_    0.110317 0.637869 0.882220 0.211365
C45   C     C_3   0.842808 0.328311 0.640533 -0.394912
C46   C     C_3   0.822581 0.217043 0.604749 -0.852236
H25   H     H_    0.754181 0.215497 0.528739 0.276776
H26   H     H_    0.910786 0.186785 0.612303 0.247332
H27   H     H_    0.787316 0.164222 0.647260 0.250283
H28   H     H_    0.917895 0.328521 0.714502 0.171649
H29   H     H_    0.760587 0.349475 0.646597 0.254739
C47   C     C_3   0.146550 0.640715 0.336889 -0.349741
C48   C     C_3   0.054485 0.719801 0.269019 -0.983392
H30   H     H_    0.962534 0.680801 0.228061 0.269207
H31   H     H_    0.046422 0.785085 0.309037 0.273676
H32   H     H_    0.088085 0.753533 0.217090 0.265149
H33   H     H_    0.236725 0.682968 0.366053 0.247449
H34   H     H_    0.147358 0.577457 0.292661 0.212913
C49   C     C_3   0.576627 0.817466 0.664533 -0.397519
C50   C     C_3   0.708226 0.851418 0.733499 -0.871096
H35   H     H_    0.774520 0.827322 0.707622 0.265763
H36   H     H_    0.718355 0.937549 0.741084 0.256928
H37   H     H_    0.731989 0.812815 0.804727 0.252673
H38   H     H_    0.509756 0.833321 0.692524 0.194224
H39   H     H_    0.574868 0.730782 0.664893 0.210332
C51   C     C_3   0.427245 0.183039 0.336020 -0.402761
C52   C     C_3   0.295721 0.149991 0.266227 -0.865759
H40   H     H_    0.284883 0.063903 0.258388 0.259433
H41   H     H_    0.229041 0.174600 0.291510 0.264944
H42   H     H_    0.273145 0.188740 0.195226 0.250755
H43   H     H_    0.429841 0.269729 0.335854 0.210111
H44   H     H_    0.494644 0.166756 0.308667 0.192892
C53   C     C_3   0.507755 0.787746 0.322103 -0.371089
C54   C     C_3   0.488404 0.843525 0.227382 -0.899718
H45   H     H_    0.398489 0.882544 0.194381 0.260269
H46   H     H_    0.565341 0.901659 0.237954 0.258667
H47   H     H_    0.486875 0.784840 0.177653 0.260639
H48   H     H_    0.595132 0.745347 0.348989 0.213984
H49   H     H_    0.430485 0.728617 0.306576 0.195374
C55   C     C_3   0.492199 0.212026 0.677672 -0.370017
C56   C     C_3   0.511833 0.156189 0.772432 -0.901984
H50   H     H_    0.435458 0.097440 0.761847 0.259214
H51   H     H_    0.602198 0.117884 0.805639 0.259856
H52   H     H_    0.512529 0.214718 0.821986 0.260563
H53   H     H_    0.568944 0.271675 0.693199 0.193306
H54   H     H_    0.404362 0.253783 0.650589 0.214613

loop_
_geom_bond_atom_site_label_1
_geom_bond_atom_site_label_2
_ccdc_geom_bond_type
C19   N2    A    
C8    C13   A    
C5    C37   A    
C1    C8    S    
C32   H5    S    
C49   C50   S    
C9    H11   S    
C5    C41   S    
C10   H12   S    
C45   C46   S    
C3    H9    S    
C27   C33   A    
C55   H54   S    
C29   H7    S    
C17   C26   A    
C30   H8    S    
C35   C37   A    
C9    C16   A    
C10   C15   A    
C18   H2    S    
O3    Zn2   S    
C21   H14   S    
C2    O4    A    
C15   C16   A    
C50   H37   S    
C55   C56   S    
C30   C38   A    
C41   H18   S    
C54   H45   S    
C17   C19   A    
O2    Zn2   S    
C7    C14   A    
C2    C7    S    
C42   H15   S    
C31   H6    S    
C50   H36   S    
C6    C38   A    
C51   H44   S    
C41   H19   S    
C23   C27   S    
C48   H31   S    
C18   C20   A    
C45   H28   S    
C23   O7    A    
O7    Zn2   S    
C28   C34   A    
C24   O8    A    
C43   H24   S    
C20   C45   S    
C18   C25   A    
C20   N1    A    
C12   C53   S    
N1    Zn1   S    
C6    C43   S    
C22   H13   S    
C17   H1    S    
C7    C12   A    
C47   H34   S    
C55   H53   S    
O6    Zn2   S    
C27   C31   A    
C41   C42   S    
C28   C32   A    
C4    C6    A    
C19   C47   S    
C43   C44   S    
C56   H52   S    
C39   C40   A    
C49   H38   S    
C25   C26   A    
C4    H10   S    
C35   C39   A    
C44   H20   S    
C1    O1    A    
C44   H21   S    
C4    C39   A    
C36   C40   A    
C50   H35   S    
C51   H43   S    
C52   H41   S    
C48   H32   S    
C11   C55   S    
C9    C11   A    
C54   H47   S    
C45   H29   S    
C10   C12   A    
C53   H48   S    
C1    O3    A    
O4    Zn1   S    
C46   H26   S    
C43   H23   S    
C13   C15   A    
C14   C16   A    
C14   C49   S    
C21   C25   A    
C47   H33   S    
C24   O6    A    
C33   H4    S    
C34   H3    S    
C24   C28   S    
O1    Zn1   S    
C3    C5    A    
C3    C40   A    
C21   N2    A    
C2    O2    A    
C42   H17   S    
C22   N1    A    
C46   H27   S    
O8    Zn1   S    
C56   H51   S    
C13   C51   S    
C29   C31   A    
C56   H50   S    
C30   C32   A    
C8    C11   A    
N2    Zn2   S    
C36   C38   A    
C33   C35   A    
C52   H42   S    
C34   C36   A    
C51   C52   S    
C44   H22   S    
C54   H46   S    
C53   H49   S    
O5    Zn1   S    
C23   O5    A    
C47   C48   S    
C42   H16   S    
C46   H25   S    
C22   C26   A    
C29   C37   A    
C52   H40   S    
C48   H30   S    
C53   C54   S    
C49   H39   S    
