data_mof_unit_63405.cif
_audit_creation_date              2013-03-05T16:43:54-0500
_audit_creation_method            fapswitch 2.2
_symmetry_space_group_name_H-M    P1
_symmetry_Int_Tables_number       1
_space_group_crystal_system       triclinic
_cell_length_a                    28.281987
_cell_length_b                    25.992156
_cell_length_c                    13.015827
_cell_angle_alpha                 90.13142
_cell_angle_beta                  82.999692
_cell_angle_gamma                 90.012971
_cell_volume                      9496.71206975

loop_
_atom_site_label
_atom_site_type_symbol
_atom_site_description
_atom_site_fract_x
_atom_site_fract_y
_atom_site_fract_z
_atom_type_partial_charge
Zn1   Zn    Zn3+2 0.506960 0.939150 0.414470 1.086924
Zn2   Zn    Zn3+2 0.506960 0.060850 0.414470 1.061766
Zn3   Zn    Zn3+2 0.006960 0.439150 0.414470 1.086947
Zn4   Zn    Zn3+2 0.006960 0.560850 0.414470 1.061678
Zn5   Zn    Zn3+2 0.548670 0.000000 0.592090 1.093978
Zn6   Zn    Zn3+2 0.048670 0.500000 0.592090 1.094170
Zn7   Zn    Zn3+2 0.437380 0.000000 0.578960 1.037886
Zn8   Zn    Zn3+2 0.937380 0.500000 0.578960 1.037899
O1    O     O_3   0.499990 0.000000 0.500000 -0.535243
O2    O     O_3   0.999990 0.500000 0.500000 -0.535229
O3    O     O_R   0.559670 0.102510 0.446620 -0.603653
O4    O     O_R   0.559670 0.897490 0.446620 -0.602968
O5    O     O_R   0.059670 0.602510 0.446620 -0.603891
O6    O     O_R   0.059670 0.397490 0.446620 -0.603019
O7    O     O_R   0.450070 0.897480 0.433660 -0.624209
O8    O     O_R   0.450070 0.102520 0.433660 -0.630780
O9    O     O_R   0.950070 0.397480 0.433660 -0.624244
O10   O     O_R   0.950070 0.602520 0.433660 -0.630797
O11   O     O_R   0.588860 0.940050 0.570910 -0.625317
O12   O     O_R   0.588860 0.059950 0.570910 -0.602871
O13   O     O_R   0.088860 0.440050 0.570910 -0.625248
O14   O     O_R   0.088860 0.559950 0.570910 -0.602769
O15   O     O_R   0.401370 0.059920 0.548800 -0.616689
O16   O     O_R   0.401370 0.940080 0.548800 -0.616526
O17   O     O_R   0.901370 0.559920 0.548800 -0.616699
O18   O     O_R   0.901370 0.440080 0.548800 -0.616486
O19   O     O_R   0.520330 0.000000 0.732910 -0.602220
O20   O     O_R   0.020330 0.500000 0.732910 -0.602237
O21   O     O_R   0.518600 0.042600 0.271700 -0.625382
O22   O     O_R   0.518600 0.957400 0.271700 -0.582897
O23   O     O_R   0.018600 0.542600 0.271700 -0.625506
O24   O     O_R   0.018600 0.457400 0.271700 -0.582846
O25   O     O_R   0.442440 0.000000 0.723710 -0.597429
O26   O     O_R   0.942440 0.500000 0.723710 -0.597479
C1    C     C_R   0.590224 0.098272 0.510090 0.919197
C2    C     C_R   0.590505 0.901650 0.509732 0.893157
C3    C     C_R   0.090212 0.598282 0.510119 0.919431
C4    C     C_R   0.090505 0.401650 0.509732 0.893258
C5    C     C_R   0.409784 0.901371 0.488972 0.851983
C6    C     C_R   0.409599 0.098521 0.488723 0.848443
C7    C     C_R   0.909784 0.401371 0.488971 0.851961
C8    C     C_R   0.909599 0.598521 0.488724 0.848459
C9    C     C_R   0.477502 0.001525 0.777904 0.828332
C10   C     C_R   0.977501 0.501511 0.777904 0.828577
C11   C     C_R   0.522298 0.999846 0.222343 0.817876
C12   C     C_R   0.022297 0.499847 0.222342 0.817847
H1    H     H_    0.471390 0.051638 0.103533 0.152729
H2    H     H_    0.971311 0.551564 0.103603 0.152617
C13   C     C_2   0.527930 0.998865 0.108467 0.205446
C14   C     C_2   0.027922 0.498875 0.108463 0.205415
C15   C     C_2   0.498464 0.028286 0.058944 -0.247047
C16   C     C_2   0.998412 0.528259 0.058977 -0.246950
C17   C     C_2   0.469376 0.004724 0.892592 0.061862
C18   C     C_2   0.969370 0.504663 0.892593 0.061864
C19   C     C_2   0.500956 0.031003 0.945012 0.253200
C20   C     C_2   0.000890 0.531014 0.945049 0.253204
C21   C     C_R   0.372706 0.862166 0.481430 -0.044029
C22   C     C_R   0.371783 0.136977 0.479749 -0.054058
C23   C     C_R   0.872705 0.362166 0.481430 -0.044091
C24   C     C_R   0.871783 0.636977 0.479752 -0.054061
C25   C     C_R   0.324597 0.877277 0.483389 -0.061696
C26   C     C_R   0.323432 0.121450 0.490539 -0.063409
C27   C     C_R   0.824585 0.377270 0.483548 -0.061675
C28   C     C_R   0.823432 0.621450 0.490537 -0.063424
C29   C     C_R   0.289154 0.839879 0.473787 0.283320
C30   C     C_R   0.287300 0.157913 0.480553 0.282465
C31   C     C_R   0.789142 0.339874 0.473948 0.283360
C32   C     C_R   0.787300 0.657914 0.480554 0.282472
C33   C     C_R   0.302307 0.787423 0.464160 0.189668
C34   C     C_R   0.299841 0.209784 0.460064 0.192186
C35   C     C_R   0.802304 0.287428 0.464141 0.189708
C36   C     C_R   0.799841 0.709785 0.460075 0.192182
C37   C     C_R   0.350017 0.773173 0.459376 -0.232293
C38   C     C_R   0.347577 0.224469 0.446346 -0.231515
C39   C     C_R   0.850020 0.273184 0.459204 -0.232260
C40   C     C_R   0.847577 0.724471 0.446363 -0.231502
C41   C     C_R   0.385423 0.809820 0.468854 0.059368
C42   C     C_R   0.383761 0.188882 0.457239 0.054556
C43   C     C_R   0.885428 0.309827 0.468697 0.059382
C44   C     C_R   0.883761 0.688883 0.457252 0.054565
C45   C     C_R   0.703483 0.173578 0.442844 -0.238790
C46   C     C_R   0.685481 0.802661 0.426734 -0.225693
C47   C     C_R   0.203596 0.673413 0.443239 -0.238961
C48   C     C_R   0.185493 0.302679 0.426719 -0.225682
C49   C     C_R   0.668723 0.135743 0.437110 0.271103
C50   C     C_R   0.651284 0.840909 0.419861 0.267329
C51   C     C_R   0.168839 0.635571 0.437526 0.271226
C52   C     C_R   0.151297 0.340928 0.419852 0.267356
C53   C     C_R   0.698200 0.212369 0.519780 0.185384
C54   C     C_R   0.697854 0.786526 0.523347 0.185922
C55   C     C_R   0.198175 0.712398 0.519768 0.185361
C56   C     C_R   0.197853 0.286526 0.523332 0.185927
N1    N     N_2   0.268463 0.747865 0.457365 -0.139065
N2    N     N_2   0.264972 0.248124 0.452368 -0.138938
N3    N     N_2   0.768459 0.247875 0.457311 -0.139107
N4    N     N_2   0.764972 0.748124 0.452381 -0.138945
N5    N     N_2   0.733514 0.251043 0.525423 -0.061293
N6    N     N_2   0.734198 0.749305 0.529652 -0.057272
N7    N     N_2   0.233480 0.751087 0.525371 -0.061354
N8    N     N_2   0.234197 0.249303 0.529635 -0.057277
C57   C     C_R   0.627736 0.136650 0.510703 -0.168657
C58   C     C_R   0.627944 0.862689 0.511766 -0.181381
C59   C     C_R   0.127722 0.636661 0.510736 -0.168478
C60   C     C_R   0.127944 0.362691 0.511761 -0.181357
H3    H     H_    0.734721 0.172757 0.385876 0.219341
H4    H     H_    0.703289 0.786154 0.355898 0.224733
H5    H     H_    0.234940 0.672444 0.386571 0.219270
H6    H     H_    0.203311 0.286185 0.355879 0.224725
H7    H     H_    0.359384 0.732839 0.450650 0.182912
H8    H     H_    0.356411 0.264413 0.429869 0.183704
H9    H     H_    0.859392 0.232856 0.450348 0.182928
H10   H     H_    0.856410 0.764416 0.429892 0.183702
C61   C     C_R   0.622565 0.174251 0.588237 -0.286691
C62   C     C_R   0.639611 0.846195 0.607997 -0.289324
C63   C     C_R   0.122411 0.674453 0.587881 -0.286822
C64   C     C_R   0.139599 0.346180 0.607991 -0.289334
C65   C     C_R   0.657125 0.212528 0.593559 0.304928
C66   C     C_R   0.673792 0.807690 0.615239 0.291322
C67   C     C_R   0.156969 0.712735 0.593186 0.305095
C68   C     C_R   0.173779 0.307673 0.615227 0.291349
H11   H     H_    0.590857 0.174028 0.644170 0.218725
H12   H     H_    0.620960 0.862653 0.678082 0.227409
H13   H     H_    0.090602 0.674367 0.643526 0.218434
H14   H     H_    0.120939 0.362625 0.678078 0.227380
N9    N     N_R   0.536677 0.064517 0.892327 0.235805
O27   O     O_R   0.525691 0.095589 0.820583 -0.400820
O28   O     O_R   0.576836 0.071389 0.929733 -0.280950
N10   N     N_R   0.036529 0.564640 0.892416 0.235755
O29   O     O_R   0.025491 0.595637 0.820596 -0.400879
O30   O     O_R   0.076636 0.571688 0.929940 -0.281173
N11   N     N_R   0.240836 0.855277 0.466570 0.226101
O31   O     O_R   0.218518 0.837722 0.392087 -0.314688
O32   O     O_R   0.218675 0.886206 0.534939 -0.310881
N12   N     N_R   0.238416 0.141935 0.485242 0.219206
O33   O     O_R   0.212963 0.155742 0.413164 -0.324866
O34   O     O_R   0.218487 0.115679 0.563818 -0.324244
N13   N     N_R   0.740807 0.355270 0.466932 0.225996
O35   O     O_R   0.718449 0.337788 0.392449 -0.314792
O36   O     O_R   0.718664 0.386103 0.535516 -0.310933
N14   N     N_R   0.738417 0.641935 0.485238 0.219198
O37   O     O_R   0.712964 0.655747 0.413163 -0.324899
O38   O     O_R   0.718487 0.615674 0.563807 -0.324298
N15   N     N_R   0.649926 0.250857 0.674426 0.233887
O39   O     O_R   0.619673 0.242619 0.756391 -0.307069
O40   O     O_R   0.671119 0.295317 0.664720 -0.275486
N16   N     N_R   0.684056 0.791260 0.716033 0.233220
O41   O     O_R   0.672182 0.820094 0.796968 -0.293854
O42   O     O_R   0.702306 0.746158 0.729297 -0.296818
N17   N     N_R   0.149628 0.751253 0.673666 0.233920
O43   O     O_R   0.119181 0.743230 0.755405 -0.307305
O44   O     O_R   0.170906 0.795662 0.663813 -0.275319
N18   N     N_R   0.184028 0.291224 0.716019 0.233219
O45   O     O_R   0.172145 0.320044 0.796970 -0.293863
O46   O     O_R   0.202275 0.246118 0.729263 -0.296793
N19   N     N_3   0.312732 0.931011 0.488121 -0.406463
H15   H     H_    0.294577 0.940244 0.425296 0.228217
H16   H     H_    0.290615 0.938271 0.556903 0.260262
N20   N     N_3   0.311673 0.067995 0.504934 -0.400909
H17   H     H_    0.291580 0.056184 0.446804 0.224734
H18   H     H_    0.291400 0.063370 0.576939 0.261318
N21   N     N_3   0.812703 0.430999 0.488442 -0.406365
H19   H     H_    0.794512 0.440265 0.425691 0.228135
H20   H     H_    0.790613 0.438211 0.557282 0.260284
N22   N     N_3   0.811674 0.567994 0.504922 -0.400931
H21   H     H_    0.791581 0.556186 0.446788 0.224710
H22   H     H_    0.791401 0.563366 0.576925 0.261306
N23   N     N_R   0.429456 0.976936 0.946257 0.207188
O47   O     O_R   0.390963 0.970198 0.902393 -0.311607
O48   O     O_R   0.433048 0.953325 0.033024 -0.356138
N24   N     N_R   0.929523 0.476739 0.946210 0.207180
O49   O     O_R   0.891073 0.469837 0.902276 -0.311687
O50   O     O_R   0.933166 0.453151 0.032979 -0.356114
N25   N     N_R   0.562376 0.964039 0.054678 0.249509
O51   O     O_R   0.597286 0.946806 0.101406 -0.246633
O52   O     O_R   0.557264 0.945980 0.963355 -0.325486
N26   N     N_R   0.062425 0.464118 0.054643 0.249463
O53   O     O_R   0.097314 0.446874 0.101421 -0.246715
O54   O     O_R   0.057410 0.446160 0.963193 -0.325448
N27   N     N_R   0.676533 0.096457 0.358199 0.223473
O55   O     O_R   0.641100 0.074669 0.320003 -0.343499
O56   O     O_R   0.719682 0.084830 0.318394 -0.317432
N28   N     N_R   0.642518 0.858721 0.319342 0.238091
O57   O     O_R   0.639356 0.907760 0.301405 -0.306695
O58   O     O_R   0.644956 0.826774 0.241744 -0.288081
N29   N     N_R   0.176761 0.596111 0.359000 0.223487
O59   O     O_R   0.141397 0.574262 0.320656 -0.343707
O60   O     O_R   0.219953 0.584378 0.319666 -0.317515
N30   N     N_R   0.142543 0.358758 0.319338 0.238078
O61   O     O_R   0.139372 0.407799 0.301439 -0.306492
O62   O     O_R   0.144999 0.326827 0.241711 -0.288100
N31   N     N_3   0.434206 0.793976 0.467793 -0.385066
H23   H     H_    0.437849 0.754597 0.452175 0.215171
H24   H     H_    0.443471 0.799617 0.542352 0.188072
N32   N     N_3   0.432606 0.205507 0.447544 -0.386282
H25   H     H_    0.435497 0.244069 0.424914 0.213547
H26   H     H_    0.443835 0.203507 0.521053 0.196665
N33   N     N_3   0.934219 0.293984 0.467490 -0.384981
H27   H     H_    0.937862 0.254616 0.451763 0.215167
H28   H     H_    0.943517 0.299578 0.542036 0.188120
N34   N     N_3   0.932606 0.705508 0.447562 -0.386294
H29   H     H_    0.935497 0.744072 0.424940 0.213559
H30   H     H_    0.943834 0.703504 0.521071 0.196690

loop_
_geom_bond_atom_site_label_1
_geom_bond_atom_site_label_2
_geom_bond_distance
_ccdc_geom_bond_type
C67   N17   1.443932 S    
N32   H26   1.045599 S    
C22   C26   1.416242 A    
C43   N33   1.438375 S    
N19   H16   1.044575 S    
C57   C61   1.398065 A    
C18   N24   1.447090 S    
O22   C11   1.275799 A    
C47   C51   1.398690 A    
C28   N22   1.435958 S    
N10   O29   1.301957 A    
C13   N25   1.445649 S    
N21   H19   1.045555 S    
N23   O48   1.301369 A    
Zn5   O12   1.928949 S    
C30   C34   1.411745 A    
N25   O51   1.301211 A    
C49   N27   1.444423 S    
N13   O36   1.300760 A    
Zn2   O21   1.906165 S    
C28   C32   1.411670 A    
C2    C58   1.467926 S    
N22   H21   1.045606 S    
C65   N15   1.443908 S    
N14   O38   1.300748 A    
H2    C16   1.087148 S    
C33   N1    1.414569 S    
O11   C2    1.272708 A    
N17   O44   1.300972 A    
Zn7   O15   1.928192 S    
N29   O60   1.301674 A    
C35   N3    1.414530 S    
N24   O49   1.301063 A    
O15   C6    1.277264 A    
Zn6   O14   1.928949 S    
O16   C5    1.275404 A    
Zn8   O18   1.926366 S    
C14   N26   1.445685 S    
C42   N32   1.438226 S    
Zn4   O5    1.928521 S    
N33   H28   1.045585 S    
N28   O57   1.301419 A    
C4    C60   1.467911 S    
O10   C8    1.278634 A    
N21   H20   1.044575 S    
C60   C64   1.401694 A    
O12   C1    1.271402 A    
C17   N23   1.447053 S    
Zn6   O20   1.908878 S    
O13   C4    1.272701 A    
C19   N9    1.443312 S    
N30   O62   1.301383 A    
N34   H29   1.045723 S    
C13   C15   1.352104 D    
O23   C12   1.280205 A    
N4    N6    1.247580 D    
C34   C38   1.393424 A    
C14   C16   1.352137 D    
C26   N20   1.435959 S    
C33   C37   1.393348 A    
Zn1   O7    1.930471 S    
N2    N8    1.247580 D    
O4    C2    1.273247 A    
Zn2   O8    1.930237 S    
N1    N7    1.247247 D    
O5    C3    1.271141 A    
C32   C36   1.411742 A    
Zn4   O10   1.930237 S    
N25   O52   1.301294 A    
N32   H25   1.045724 S    
Zn5   O19   1.908878 S    
N20   H18   1.044532 S    
Zn8   O17   1.928192 S    
Zn7   O25   1.906779 S    
Zn3   O24   1.908249 S    
Zn1   O4    1.929977 S    
Zn2   O3    1.928521 S    
C25   N19   1.435920 S    
C29   N11   1.438103 S    
C9    C17   1.484542 S    
N16   O42   1.301322 A    
C17   C19   1.369639 D    
C18   C20   1.369637 D    
C68   N18   1.443333 S    
C6    C22   1.479212 S    
C63   H13   1.084011 S    
C26   C30   1.411668 A    
C16   C20   1.477857 S    
N31   H23   1.045722 S    
C41   N31   1.438376 S    
C30   N12   1.437649 S    
C66   N16   1.443334 S    
Zn1   O1    1.928285 S    
N14   O37   1.301313 A    
C7    C23   1.473739 S    
C51   N29   1.444399 S    
C23   C43   1.411483 A    
N23   O47   1.301063 A    
C3    C59   1.456747 S    
H1    C15   1.087137 S    
C15   C19   1.477841 S    
C1    C57   1.456763 S    
C46   C50   1.397738 A    
O14   C3    1.271392 A    
O20   C10   1.280123 A    
C64   C68   1.402909 A    
O21   C11   1.280218 A    
N30   O61   1.301418 A    
O25   C9    1.285622 A    
C59   C63   1.398036 A    
N31   H24   1.045587 S    
C27   C31   1.412362 A    
Zn5   O1    1.932466 S    
C58   C62   1.401699 A    
O19   C9    1.280108 A    
O6    C4    1.273242 A    
C46   H4    1.083009 S    
C11   C13   1.471459 S    
C40   H10   1.083610 S    
Zn7   O1    1.936013 S    
O26   C10   1.285589 A    
C36   C40   1.393423 A    
Zn8   O26   1.906779 S    
C39   H9    1.083692 S    
C21   C25   1.413478 A    
O7    C5    1.275322 A    
C62   C66   1.402908 A    
Zn3   O6    1.929977 S    
O8    C6    1.278634 A    
C51   C59   1.410983 A    
Zn8   O2    1.936013 S    
N26   O53   1.301200 A    
C53   C65   1.414124 A    
C63   C67   1.402069 A    
N9    O27   1.301961 A    
C55   C67   1.414172 A    
C32   N14   1.437650 S    
C39   C43   1.397991 A    
C8    C24   1.479211 S    
N11   O31   1.301327 A    
C50   C58   1.411286 A    
C54   C66   1.412441 A    
C49   C57   1.411056 A    
C56   N8    1.421505 S    
C50   N28   1.438545 S    
N16   O41   1.301714 A    
C61   C65   1.402049 A    
N15   O40   1.300980 A    
C45   H3    1.082146 S    
C24   C44   1.413564 A    
C64   H14   1.083686 S    
N28   O58   1.301382 A    
C34   N2    1.414417 S    
O24   C12   1.275827 A    
C40   C44   1.399763 A    
N18   O46   1.301325 A    
N11   O32   1.300765 A    
N10   O30   1.301271 A    
O17   C8    1.277261 A    
C38   H8    1.083610 S    
N12   O34   1.300748 A    
N3    N5    1.247240 D    
C37   H7    1.083694 S    
N12   O33   1.301312 A    
Zn5   O11   1.928346 S    
C47   C55   1.414471 A    
N13   O35   1.301330 A    
C12   C14   1.471497 S    
C23   C27   1.413503 A    
C46   C54   1.410463 A    
C24   C28   1.416241 A    
C21   C41   1.411449 A    
O3    C1    1.271140 A    
N15   O39   1.301742 A    
C56   C68   1.412443 A    
C45   C53   1.414438 A    
Zn3   O2    1.928285 S    
C27   N21   1.435921 S    
N17   O43   1.301741 A    
C35   C39   1.393328 A    
Zn6   O13   1.928346 S    
N29   O59   1.300782 A    
N20   H17   1.045606 S    
C48   C52   1.397740 A    
N24   O50   1.301361 A    
C29   C33   1.414598 A    
C62   H12   1.083685 S    
N22   H22   1.044530 S    
Zn1   O22   1.908249 S    
C48   H6    1.083006 S    
C47   H5    1.082148 S    
Zn3   O9    1.930471 S    
C31   C35   1.414566 A    
C20   N10   1.443335 S    
C25   C29   1.412402 A    
N33   H27   1.045722 S    
C31   N13   1.438083 S    
O9    C7    1.275331 A    
Zn4   O23   1.906165 S    
Zn6   O2    1.932466 S    
C22   C42   1.413563 A    
N27   O55   1.300767 A    
C36   N4    1.414417 S    
C10   C18   1.484496 S    
C52   N30   1.438550 S    
C61   H11   1.084021 S    
N18   O45   1.301712 A    
N34   H30   1.045599 S    
C38   C42   1.399761 A    
C44   N34   1.438223 S    
C53   N5    1.424948 S    
N19   H15   1.045551 S    
N9    O28   1.301261 A    
C37   C41   1.397998 A    
C48   C56   1.410466 A    
C55   N7    1.424978 S    
Zn2   O1    1.932394 S    
Zn4   O2    1.932394 S    
C52   C60   1.411282 A    
C54   N6    1.421501 S    
C45   C49   1.398676 A    
Zn7   O16   1.926366 S    
O18   C7    1.275407 A    
N26   O54   1.301300 A    
N27   O56   1.301679 A    
C5    C21   1.473717 S    
