data_mof_unit_46705.cif
_audit_creation_date              2012-12-11T15:20:04-0500
_audit_creation_method            fapswitch 2.2
_symmetry_space_group_name_H-M    P1
_symmetry_Int_Tables_number       1
_space_group_crystal_system       triclinic
_cell_length_a                    16.918548
_cell_length_b                    16.995503
_cell_length_c                    42.362229
_cell_angle_alpha                 90.596788
_cell_angle_beta                  89.301514
_cell_angle_gamma                 120.269479
_cell_volume                      10519.2128099

loop_
_atom_site_label
_atom_site_type_symbol
_atom_type_description
_atom_site_fract_x
_atom_site_fract_y
_atom_site_fract_z
_atom_type_partial_charge
C1    C     C_R   0.582898 0.426325 0.794480 0.570308
C2    C     C_R   0.845878 0.418099 0.705961 0.556272
C3    C     C_R   0.570227 0.151159 0.792354 0.563189
C4    C     C_R   0.581086 0.427659 0.706447 0.563034
C5    C     C_R   0.843081 0.416617 0.794435 0.564502
C6    C     C_R   0.573943 0.156876 0.705235 0.558374
C7    C     C_R   0.426393 0.583401 0.294747 0.559323
C8    C     C_R   0.418042 0.845750 0.206528 0.567463
C9    C     C_R   0.156402 0.573498 0.294454 0.559480
C10   C     C_R   0.428004 0.583303 0.205545 0.568119
C11   C     C_R   0.416219 0.842937 0.294833 0.553292
C12   C     C_R   0.157730 0.573451 0.205222 0.570095
C13   C     C_R   0.105319 0.527158 0.117620 0.308895
C14   C     C_R   0.429044 0.936196 0.379110 0.290664
C15   C     C_R   0.495033 0.598123 0.120250 0.292249
C16   C     C_R   0.087351 0.519905 0.380459 0.265198
C17   C     C_R   0.398433 0.863218 0.123201 0.271621
C18   C     C_R   0.476137 0.573407 0.381935 0.227006
C19   C     C_R   0.521456 0.085307 0.618703 0.284388
C20   C     C_R   0.887523 0.425807 0.881726 0.242870
C21   C     C_R   0.554270 0.520968 0.627826 0.290953
C22   C     C_R   0.491526 0.084146 0.872501 0.235270
C23   C     C_R   0.990616 0.451443 0.630509 0.287753
C24   C     C_R   0.539123 0.437226 0.881870 0.314653
C25   C     C_R   0.125560 0.514229 0.148842 0.080985
C26   C     C_R   0.396798 0.908300 0.347819 0.078046
C27   C     C_R   0.507110 0.618889 0.152606 0.071344
C28   C     C_R   0.117654 0.513575 0.349912 0.061119
C29   C     C_R   0.380993 0.876227 0.154084 0.079866
C30   C     C_R   0.490362 0.606176 0.350520 0.048494
C31   C     C_R   0.510015 0.110181 0.649652 0.070465
C32   C     C_R   0.870803 0.391233 0.850638 0.080133
C33   C     C_R   0.582654 0.524238 0.659605 0.077693
C34   C     C_R   0.478161 0.085492 0.840403 0.081261
C35   C     C_R   0.954343 0.421714 0.661546 0.076587
C36   C     C_R   0.587058 0.450063 0.853127 0.072537
C37   C     C_R   0.054222 0.598425 0.168720 0.050078
C38   C     C_R   0.542224 0.919568 0.334754 0.048625
C39   C     C_R   0.405619 0.460469 0.164852 0.047098
C40   C     C_R   0.045312 0.594899 0.329457 0.048128
C41   C     C_R   0.540899 0.938273 0.165996 0.047128
C42   C     C_R   0.394487 0.451843 0.331208 0.060074
C43   C     C_R   0.608781 0.056714 0.669500 0.048426
C44   C     C_R   0.949431 0.546112 0.830346 0.049043
C45   C     C_R   0.451451 0.374655 0.668236 0.057186
C46   C     C_R   0.599811 0.053658 0.829756 0.049201
C47   C     C_R   0.908638 0.536009 0.662789 0.041259
C48   C     C_R   0.456379 0.433414 0.824342 0.043864
C49   C     C_R   0.020341 0.596152 0.138506 -0.067563
C50   C     C_R   0.564164 0.928010 0.366822 -0.065569
C51   C     C_R   0.412815 0.438344 0.133081 -0.073461
C52   C     C_R   0.003677 0.587412 0.358958 -0.059296
C53   C     C_R   0.560434 0.956205 0.133641 -0.050605
C54   C     C_R   0.390192 0.418960 0.361892 -0.060063
C55   C     C_R   0.607272 0.019284 0.639738 -0.068450
C56   C     C_R   0.979398 0.579069 0.860977 -0.059393
C57   C     C_R   0.429807 0.366900 0.636340 -0.082333
C58   C     C_R   0.594846 0.027572 0.861302 -0.057731
C59   C     C_R   0.929641 0.552805 0.630920 -0.077810
C60   C     C_R   0.415717 0.437038 0.853003 -0.058832
C61   C     C_R   0.046277 0.562636 0.112511 0.176854
C62   C     C_R   0.504641 0.929824 0.389794 0.164701
C63   C     C_R   0.452089 0.506563 0.109624 0.170811
C64   C     C_R   0.024814 0.551121 0.384762 0.162002
C65   C     C_R   0.488974 0.914915 0.111447 0.170634
C66   C     C_R   0.427703 0.478617 0.387605 0.157181
C67   C     C_R   0.565250 0.033973 0.614087 0.163198
C68   C     C_R   0.947461 0.520239 0.886922 0.145768
C69   C     C_R   0.485188 0.436532 0.615258 0.158314
C70   C     C_R   0.545532 0.048225 0.883594 0.135272
C71   C     C_R   0.965577 0.507339 0.613659 0.163765
C72   C     C_R   0.455973 0.438474 0.881861 0.174728
C73   C     C_R   0.892735 0.451480 0.824836 -0.017352
C74   C     C_R   0.560561 0.103999 0.675094 -0.026414
C75   C     C_R   0.543447 0.441110 0.824051 -0.010985
C76   C     C_R   0.905361 0.459445 0.677078 -0.035408
C77   C     C_R   0.546007 0.090572 0.819812 -0.026951
C78   C     C_R   0.537650 0.444631 0.678541 -0.030663
C79   C     C_R   0.452336 0.894069 0.325456 -0.041374
C80   C     C_R   0.108444 0.558227 0.174506 -0.013430
C81   C     C_R   0.440702 0.546797 0.325207 -0.018145
C82   C     C_R   0.448883 0.894225 0.176339 -0.023033
C83   C     C_R   0.102919 0.557544 0.324367 -0.022653
C84   C     C_R   0.448800 0.552598 0.174705 -0.026840
C85   C     C_R   0.995580 0.633532 0.034326 0.031166
C86   C     C_R   0.615406 0.959001 0.469707 0.009509
C87   C     C_R   0.361889 0.402309 0.028660 -0.002518
C88   C     C_R   0.987069 0.616030 0.466076 0.043193
C89   C     C_R   0.597434 0.967591 0.029718 -0.001273
C90   C     C_R   0.352344 0.386715 0.470082 0.005150
C91   C     C_R   0.629266 0.976768 0.535507 0.028131
C92   C     C_R   0.985534 0.631075 0.967119 0.022727
C93   C     C_R   0.371863 0.373837 0.535853 0.017570
C94   C     C_R   0.613148 0.008433 0.963987 0.010788
C95   C     C_R   0.981109 0.599713 0.532251 0.043134
C96   C     C_R   0.353458 0.387546 0.961427 -0.006835
C97   C     C_R   0.016114 0.635560 0.067054 0.540800
C98   C     C_R   0.603198 0.970048 0.437227 0.483813
C99   C     C_R   0.368777 0.416658 0.062129 0.500706
C100  C     C_R   0.007676 0.622616 0.433102 0.517075
C101  C     C_R   0.581201 0.941842 0.062228 0.481278
C102  C     C_R   0.348749 0.404621 0.437373 0.479561
C103  C     C_R   0.636994 0.011010 0.566585 0.518304
C104  C     C_R   0.966924 0.615348 0.934200 0.490908
C105  C     C_R   0.385410 0.389181 0.568703 0.489709
C106  C     C_R   0.619811 0.040169 0.932531 0.483511
C107  C     C_R   0.998777 0.595819 0.564528 0.523233
C108  C     C_R   0.351463 0.386007 0.927627 0.505919
C109  C     C_R   0.970910 0.477915 0.064767 0.498225
C110  C     C_R   0.443811 0.859549 0.441613 0.531354
C111  C     C_R   0.525354 0.531740 0.056946 0.515498
C112  C     C_R   0.926884 0.460709 0.428127 0.520049
C113  C     C_R   0.440361 0.942558 0.061185 0.437598
C114  C     C_R   0.507640 0.453667 0.430218 0.514105
C115  C     C_R   0.474108 0.925416 0.572944 0.503414
C116  C     C_R   0.022463 0.510759 0.933686 0.511170
C117  C     C_R   0.542937 0.433491 0.562153 0.497150
C118  C     C_R   0.458457 0.982454 0.931882 0.490544
C119  C     C_R   0.927806 0.433685 0.561416 0.515967
C120  C     C_R   0.474984 0.536532 0.925703 0.489263
C121  C     C_R   0.974149 0.480277 0.031591 0.021677
C122  C     C_R   0.449773 0.861150 0.474982 0.023687
C123  C     C_R   0.517854 0.538050 0.023783 0.017374
C124  C     C_R   0.921321 0.449329 0.461255 0.057100
C125  C     C_R   0.440271 0.938152 0.028562 -0.027641
C126  C     C_R   0.518076 0.443830 0.462828 0.023887
C127  C     C_R   0.462245 0.898963 0.540652 0.022071
C128  C     C_R   0.017038 0.505381 0.966765 0.032888
C129  C     C_R   0.533259 0.426902 0.528791 0.009601
C130  C     C_R   0.454772 0.975931 0.964588 0.005011
C131  C     C_R   0.917950 0.435611 0.528133 0.033186
C132  C     C_R   0.493013 0.537566 0.957910 0.015733
C133  C     C_R   0.990005 0.560678 0.016508 -0.110080
C134  C     C_R   0.535594 0.917392 0.488763 -0.090759
C135  C     C_R   0.435880 0.468057 0.009650 -0.117104
C136  C     C_R   0.952231 0.528626 0.480256 -0.059490
C137  C     C_R   0.523270 0.962374 0.012881 -0.127980
C138  C     C_R   0.439258 0.410210 0.482695 -0.102086
C139  C     C_R   0.542228 0.930886 0.521703 -0.105645
C140  C     C_R   0.996406 0.565410 0.983395 -0.108259
C141  C     C_R   0.448493 0.405158 0.515767 -0.100925
C142  C     C_R   0.530636 0.981656 0.980427 -0.121390
C143  C     C_R   0.951735 0.521330 0.513478 -0.065951
C144  C     C_R   0.426977 0.464741 0.976477 -0.114721
C145  C     C_R   0.987778 0.703167 0.018415 0.256714
C146  C     C_R   0.701489 0.983964 0.484111 0.222769
C147  C     C_R   0.285320 0.325563 0.013430 0.232276
C148  C     C_R   0.999553 0.691474 0.485511 0.256126
C149  C     C_R   0.681658 0.993963 0.013246 0.225696
C150  C     C_R   0.273704 0.346677 0.490885 0.179153
C151  C     C_R   0.704361 0.983414 0.517973 0.270983
C152  C     C_R   0.987254 0.704344 0.984512 0.263699
C153  C     C_R   0.284158 0.329304 0.522569 0.237261
C154  C     C_R   0.685909 0.005763 0.979722 0.231615
C155  C     C_R   0.985772 0.677778 0.518729 0.259397
C156  C     C_R   0.290493 0.312783 0.980282 0.232288
C157  C     C_R   0.975490 0.411131 0.013223 0.245376
C158  C     C_R   0.373203 0.810027 0.495149 0.174363
C159  C     C_R   0.588357 0.609812 0.004439 0.213507
C160  C     C_R   0.887654 0.362771 0.475898 0.251097
C161  C     C_R   0.362777 0.920797 0.011372 0.205020
C162  C     C_R   0.603558 0.464458 0.476327 0.264743
C163  C     C_R   0.375328 0.839892 0.526615 0.242947
C164  C     C_R   0.018378 0.434477 0.983455 0.245475
C165  C     C_R   0.605351 0.441376 0.508102 0.192596
C166  C     C_R   0.374843 0.956199 0.981545 0.243376
C167  C     C_R   0.874281 0.355228 0.509132 0.195659
C168  C     C_R   0.576951 0.604936 0.970980 0.229460
Cr1   Cr    Cr6+3 0.530290 0.262330 0.750000 1.131007
Cr2   Cr    Cr6+3 0.732040 0.469710 0.750000 1.131170
Cr3   Cr    Cr6+3 0.737670 0.267960 0.750000 1.129764
Cr4   Cr    Cr6+3 0.262330 0.530290 0.250000 1.132229
Cr5   Cr    Cr6+3 0.469710 0.732040 0.250000 1.131902
Cr6   Cr    Cr6+3 0.267960 0.737670 0.250000 1.131636
H1    H     H_    0.026483 0.651032 0.864699 0.193785
H2    H     H_    0.639900 0.978925 0.636411 0.192103
H3    H     H_    0.352462 0.438453 0.852860 0.189179
H4    H     H_    0.917632 0.602411 0.619665 0.217235
H5    H     H_    0.631925 0.994389 0.868568 0.204427
H6    H     H_    0.369241 0.306306 0.628055 0.205018
H7    H     H_    0.627908 0.932900 0.373608 0.209882
H8    H     H_    0.974233 0.622036 0.135173 0.192913
H9    H     H_    0.356603 0.346244 0.365834 0.184694
H10   H     H_    0.630682 0.998986 0.126037 0.203807
H11   H     H_    0.956810 0.612748 0.362137 0.190879
H12   H     H_    0.384196 0.367406 0.126673 0.201706
N1    N     N_R   0.008058 0.558720 0.081438 -0.383330
N2    N     N_R   0.517858 0.920561 0.423417 -0.355528
N3    N     N_R   0.448470 0.484006 0.075752 -0.365824
N4    N     N_R   0.982850 0.545288 0.415375 -0.386273
N5    N     N_R   0.505235 0.934474 0.077947 -0.415351
N6    N     N_R   0.427038 0.443354 0.418857 -0.380830
N7    N     N_R   0.559320 0.989406 0.584079 -0.390504
N8    N     N_R   0.983564 0.553568 0.918195 -0.391230
N9    N     N_R   0.470890 0.420519 0.581460 -0.380347
N10   N     N_R   0.541795 0.023225 0.916434 -0.405223
N11   N     N_R   0.968415 0.513042 0.579197 -0.361998
N12   N     N_R   0.421396 0.455257 0.910968 -0.383186
O1    O     O_R   0.509640 0.171340 0.784000 -0.477384
O2    O     O_R   0.661700 0.490360 0.716000 -0.468263
O3    O     O_R   0.828660 0.338300 0.784000 -0.469885
O4    O     O_R   0.509640 0.171340 0.716000 -0.466955
O5    O     O_R   0.661700 0.490360 0.784000 -0.466449
O6    O     O_R   0.828660 0.338300 0.716000 -0.471653
O7    O     O_R   0.171340 0.509640 0.284000 -0.467029
O8    O     O_R   0.490360 0.661700 0.216000 -0.472880
O9    O     O_R   0.338300 0.828660 0.284000 -0.471922
O10   O     O_R   0.171340 0.509640 0.216000 -0.474515
O11   O     O_R   0.490360 0.661700 0.284000 -0.466672
O12   O     O_R   0.338300 0.828660 0.216000 -0.475352
O13   O     O_R   0.539230 0.345420 0.781810 -0.469541
O14   O     O_R   0.806190 0.460770 0.718190 -0.469090
O15   O     O_R   0.654580 0.193810 0.781810 -0.467544
O16   O     O_R   0.539230 0.345420 0.718190 -0.470961
O17   O     O_R   0.806190 0.460770 0.781810 -0.467040
O18   O     O_R   0.654580 0.193810 0.718190 -0.473982
O19   O     O_R   0.345420 0.539230 0.281810 -0.469709
O20   O     O_R   0.460770 0.806190 0.218190 -0.466081
O21   O     O_R   0.193810 0.654580 0.281810 -0.472919
O22   O     O_R   0.345420 0.539230 0.218190 -0.463280
O23   O     O_R   0.460770 0.806190 0.281810 -0.472500
O24   O     O_R   0.193810 0.654580 0.218190 -0.462013
O25   O     O_3   0.666667 0.333333 0.750000 -0.293624
O26   O     O_3   0.333333 0.666667 0.250000 -0.296501
O27   O     O_2   0.045966 0.706243 0.082117 -0.374506
O28   O     O_2   0.666407 0.028103 0.421824 -0.405359
O29   O     O_2   0.304582 0.369195 0.079343 -0.403431
O30   O     O_2   0.050586 0.696296 0.420237 -0.392237
O31   O     O_2   0.631734 0.922463 0.076066 -0.370063
O32   O     O_2   0.276564 0.385597 0.425121 -0.405652
O33   O     O_2   0.712320 0.062702 0.577587 -0.359728
O34   O     O_2   0.930521 0.651278 0.920403 -0.418812
O35   O     O_2   0.322274 0.379283 0.585716 -0.430620
O36   O     O_2   0.694665 0.086026 0.920040 -0.380365
O37   O     O_2   0.043334 0.666517 0.579423 -0.408911
O38   O     O_2   0.287571 0.325923 0.913020 -0.392282
O39   O     O_2   0.943605 0.406483 0.078911 -0.389364
O40   O     O_2   0.371988 0.807097 0.428656 -0.410782
O41   O     O_2   0.599924 0.565788 0.069255 -0.399400
O42   O     O_2   0.882424 0.396508 0.410440 -0.388875
O43   O     O_2   0.383793 0.955497 0.074806 -0.408677
O44   O     O_2   0.569369 0.470013 0.411526 -0.395661
O45   O     O_2   0.409800 0.891618 0.591431 -0.396378
O46   O     O_2   0.052680 0.470385 0.918366 -0.394683
O47   O     O_2   0.616389 0.454833 0.574085 -0.405844
O48   O     O_2   0.387408 0.949528 0.916934 -0.402982
O49   O     O_2   0.902671 0.361575 0.574655 -0.411979
O50   O     O_2   0.505193 0.606967 0.910695 -0.407223
S1    S     S_3+6 0.084932 0.385690 0.970865 0.131886
O51   O     O_2   0.108937 0.349135 0.998901 -0.209771
O52   O     O_2   0.032668 0.309659 0.947706 -0.104665
O53   O     O_3   0.182635 0.466202 0.953937 -0.509433
H13   H     H_    0.209945 0.432413 0.943955 0.374333
S2    S     S_3+6 0.269098 0.809110 0.546138 0.151589
O54   O     O_2   0.192235 0.775205 0.522958 -0.255801
O55   O     O_2   0.248240 0.735668 0.569799 -0.160379
O56   O     O_3   0.274449 0.899281 0.564763 -0.398616
H14   H     H_    0.216129 0.874418 0.576737 0.405044
S3    S     S_3+6 0.673840 0.670881 0.945117 0.166050
O57   O     O_2   0.691034 0.766444 0.943079 -0.167879
O58   O     O_2   0.755018 0.670415 0.958839 -0.170923
O59   O     O_3   0.664026 0.631498 0.907898 -0.458600
H15   H     H_    0.723989 0.672260 0.897742 0.388860
S4    S     S_3+6 0.793984 0.246673 0.526089 0.181836
O60   O     O_2   0.742897 0.257795 0.553387 -0.117833
O61   O     O_2   0.724303 0.185448 0.502346 -0.194568
O62   O     O_3   0.850885 0.196215 0.539223 -0.374763
H16   H     H_    0.916704 0.242681 0.537718 0.391600
S5    S     S_3+6 0.310731 0.009737 0.973292 0.188869
O63   O     O_2   0.251800 0.001846 0.001275 -0.139055
O64   O     O_2   0.375234 0.109044 0.967705 -0.169180
O65   O     O_3   0.243698 0.961553 0.941834 -0.382039
H17   H     H_    0.209295 0.994143 0.939657 0.395607
S6    S     S_3+6 0.681863 0.404139 0.519388 0.129812
O66   O     O_2   0.630084 0.320986 0.539488 -0.135131
O67   O     O_2   0.717900 0.378966 0.490843 -0.219688
O68   O     O_3   0.769236 0.485175 0.540392 -0.469281
H18   H     H_    0.764309 0.540547 0.538596 0.396947
S7    S     S_3+6 0.285023 0.699748 0.483334 0.149582
O69   O     O_2   0.327538 0.655824 0.464121 -0.170946
O70   O     O_2   0.237418 0.640207 0.511319 -0.202155
O71   O     O_3   0.207949 0.708606 0.461300 -0.391771
H19   H     H_    0.225933 0.773662 0.462238 0.397678
S8    S     S_3+6 0.906912 0.294357 0.022882 0.173754
O72   O     O_2   0.881004 0.239024 0.992962 -0.177772
O73   O     O_2   0.958636 0.265478 0.043822 -0.109297
O74   O     O_3   0.810724 0.276272 0.041500 -0.464081
H20   H     H_    0.763779 0.212828 0.036129 0.375779
S9    S     S_3+6 0.710830 0.529539 0.456047 0.123292
O75   O     O_2   0.725001 0.468647 0.433550 -0.201766
O76   O     O_2   0.788327 0.571207 0.479038 -0.289074
O77   O     O_3   0.713178 0.615093 0.435815 -0.391346
H21   H     H_    0.771211 0.642419 0.423579 0.395980
S10   S     S_3+6 0.250321 0.834878 0.021951 0.113183
O78   O     O_2   0.215778 0.865863 0.049370 -0.078281
O79   O     O_2   0.187425 0.813964 0.994521 -0.248012
O80   O     O_3   0.248475 0.738455 0.030891 -0.458683
H22   H     H_    0.269939 0.721747 0.011466 0.337138
S11   S     S_3+6 0.874035 0.265959 0.454019 0.176642
O81   O     O_2   0.888295 0.203924 0.475129 -0.179693
O82   O     O_2   0.779137 0.215787 0.440648 -0.146514
O83   O     O_3   0.949683 0.295308 0.424209 -0.413592
H23   H     H_    0.932641 0.237573 0.412975 0.405127
S12   S     S_3+6 0.673626 0.718526 0.021251 0.169399
O84   O     O_2   0.749701 0.778429 0.999273 -0.103702
O85   O     O_2   0.625303 0.769743 0.029163 -0.255421
O86   O     O_3   0.726736 0.711076 0.053323 -0.381645
H24   H     H_    0.766008 0.774660 0.060699 0.406091
I1    I     I_    0.997207 0.642971 0.793291 -0.179880
I2    I     I_    0.679206 0.029364 0.704924 -0.146960
I3    I     I_    0.387463 0.426304 0.782112 -0.179171
I4    I     I_    0.897405 0.640056 0.687168 -0.137346
I5    I     I_    0.679242 0.023993 0.798041 -0.156578
I6    I     I_    0.343568 0.291601 0.700208 -0.128130
I7    I     I_    0.651287 0.956699 0.301704 -0.130905
I8    I     I_    0.011846 0.657270 0.204457 -0.164457
I9    I     I_    0.336076 0.352565 0.294749 -0.151956
I10   I     I_    0.651266 0.988687 0.198054 -0.161812
I11   I     I_    0.012664 0.660428 0.294069 -0.154888
I12   I     I_    0.338580 0.351570 0.197248 -0.158137
S13   S     S_3+6 0.012654 0.806185 0.963877 0.168642
O87   O     O_2   0.925771 0.803083 0.954702 -0.157939
O88   O     O_2   0.067930 0.889321 0.983912 -0.134804
O89   O     O_3   0.073565 0.815938 0.930957 -0.463214
H25   H     H_    0.062147 0.854707 0.916591 0.375099
S14   S     S_3+6 0.780849 0.958174 0.538536 0.157454
O90   O     O_2   0.743478 0.920357 0.570740 -0.261157
O91   O     O_2   0.791790 0.887503 0.520523 -0.151079
O92   O     O_3   0.883728 0.052799 0.542716 -0.378208
H26   H     H_    0.922984 0.031826 0.552299 0.397853
S15   S     S_3+6 0.231102 0.200416 0.963349 0.156713
O93   O     O_2   0.288399 0.190189 0.938087 -0.156493
O94   O     O_2   0.210040 0.129148 0.987789 -0.162261
O95   O     O_3   0.132874 0.182685 0.947359 -0.398573
H27   H     H_    0.101795 0.118749 0.939777 0.386184
S16   S     S_3+6 0.947915 0.740532 0.542410 0.135867
O96   O     O_2   0.029483 0.828358 0.553079 -0.193560
O97   O     O_2   0.884635 0.760076 0.523828 -0.138373
O98   O     O_3   0.889233 0.680801 0.574343 -0.515274
H28   H     H_    0.888089 0.726207 0.588899 0.400677
S17   S     S_3+6 0.771927 0.999632 0.956544 0.171593
O99   O     O_2   0.848747 0.094301 0.949514 -0.127731
O100  O     O_2   0.809368 0.948209 0.973344 -0.127743
O101  O     O_3   0.726756 0.945229 0.922277 -0.478954
H29   H     H_    0.779494 0.951904 0.909684 0.388410
S18   S     S_3+6 0.193411 0.235411 0.543111 0.134191
O102  O     O_2   0.143778 0.268091 0.564297 -0.153526
O103  O     O_2   0.127182 0.166425 0.520069 -0.175509
O104  O     O_3   0.237350 0.185349 0.565304 -0.490169
H30   H     H_    0.184359 0.136783 0.576974 0.392428
S19   S     S_3+6 0.794699 0.991143 0.460591 0.183186
O105  O     O_2   0.819532 0.053434 0.432779 -0.185424
O106  O     O_2   0.880798 0.025026 0.479253 -0.091862
O107  O     O_3   0.762762 0.886010 0.447090 -0.407467
H31   H     H_    0.715660 0.873246 0.431026 0.369901
S20   S     S_3+6 0.962835 0.777767 0.040903 0.153610
O108  O     O_2   0.050340 0.858368 0.052189 -0.144199
O109  O     O_2   0.912055 0.811345 0.021704 -0.150600
O110  O     O_3   0.897252 0.721805 0.072317 -0.486528
H32   H     H_    0.903274 0.770046 0.087096 0.380929
S21   S     S_3+6 0.169940 0.343437 0.481442 0.171451
O111  O     O_2   0.122426 0.278295 0.454654 -0.105433
O112  O     O_2   0.103951 0.317841 0.508662 -0.193474
O113  O     O_3   0.200681 0.449919 0.471270 -0.395429
H33   H     H_    0.231276 0.487039 0.490207 0.376033
S22   S     S_3+6 0.783799 0.024979 0.035024 0.156482
O114  O     O_2   0.784134 0.940388 0.044697 -0.163143
O115  O     O_2   0.869285 0.083741 0.016286 -0.119572
O116  O     O_3   0.786200 0.083563 0.067627 -0.493239
H34   H     H_    0.839478 0.091518 0.079741 0.399222
S23   S     S_3+6 0.026874 0.799094 0.468317 0.166991
O117  O     O_2   0.956687 0.781906 0.443660 -0.205217
O118  O     O_2   0.030299 0.868288 0.491378 -0.133718
O119  O     O_3   0.130663 0.847208 0.451172 -0.440423
H35   H     H_    0.136458 0.900345 0.439664 0.401100
S24   S     S_3+6 0.184504 0.243327 0.034920 0.188294
O120  O     O_2   0.149962 0.289319 0.056767 -0.129307
O121  O     O_2   0.106065 0.183546 0.013628 -0.119906
O122  O     O_3   0.212125 0.177831 0.056239 -0.440641
H36   H     H_    0.154562 0.133459 0.067008 0.393964
I13   I     I_    0.175247 0.421924 0.156025 -0.053460
I14   I     I_    0.262313 0.883495 0.336875 -0.049818
I15   I     I_    0.622992 0.748768 0.165916 -0.066232
I16   I     I_    0.184689 0.435371 0.343821 -0.137580
I17   I     I_    0.250879 0.865414 0.164148 -0.043982
I18   I     I_    0.602182 0.740029 0.341765 -0.130969
I19   I     I_    0.402934 0.139591 0.657129 -0.127628
I20   I     I_    0.824275 0.249356 0.843946 -0.054790
I21   I     I_    0.680407 0.651539 0.680427 -0.054354
I22   I     I_    0.350164 0.069966 0.824748 -0.054695
I23   I     I_    0.979700 0.324945 0.684786 -0.035768
I24   I     I_    0.729524 0.498961 0.854150 -0.179922
S25   S     S_3+6 0.160916 0.506021 0.085367 0.143875
O123  O     O_2   0.256610 0.530558 0.093996 -0.165316
O124  O     O_2   0.106895 0.406472 0.077698 -0.179802
O125  O     O_3   0.167135 0.566070 0.053310 -0.474370
H37   H     H_    0.187999 0.540957 0.036034 0.371616
S26   S     S_3+6 0.380201 0.985505 0.404049 0.093781
O126  O     O_2   0.288761 0.911768 0.415767 -0.220255
O127  O     O_2   0.440912 0.033706 0.431713 -0.232069
O128  O     O_3   0.366054 0.061445 0.383391 -0.471227
H38   H     H_    0.332549 0.080802 0.397875 0.382143
S27   S     S_3+6 0.515379 0.688300 0.095313 0.124548
O129  O     O_2   0.484943 0.745581 0.112699 -0.254449
O130  O     O_2   0.616308 0.745193 0.089586 -0.167633
O131  O     O_3   0.457321 0.650936 0.061310 -0.483733
H39   H     H_    0.472122 0.706314 0.049317 0.378524
S28   S     S_3+6 0.144020 0.506428 0.412803 0.152386
O132  O     O_2   0.118132 0.530654 0.443816 -0.184700
O133  O     O_2   0.122577 0.409452 0.413719 -0.138930
O134  O     O_3   0.256962 0.575337 0.406597 -0.472462
H40   H     H_    0.286175 0.540986 0.413867 0.401865
S29   S     S_3+6 0.313003 0.760722 0.105716 0.146310
O135  O     O_2   0.281238 0.690434 0.131218 -0.283059
O136  O     O_2   0.233322 0.770068 0.095983 -0.133183
O137  O     O_3   0.348107 0.722008 0.075267 -0.376460
H41   H     H_    0.386200 0.774513 0.061680 0.328697
S30   S     S_3+6 0.514638 0.652360 0.413987 0.077104
O138  O     O_2   0.467357 0.609163 0.444533 -0.239924
O139  O     O_2   0.615773 0.692120 0.417741 -0.160199
O140  O     O_3   0.494867 0.737343 0.405916 -0.508220
H42   H     H_    0.433540 0.707459 0.396162 0.368202
S31   S     S_3+6 0.489013 0.127047 0.585884 0.122467
O141  O     O_2   0.534628 0.122489 0.555821 -0.187901
O142  O     O_2   0.387078 0.072226 0.582053 -0.199236
O143  O     O_3   0.519503 0.236269 0.593034 -0.465226
H43   H     H_    0.474225 0.245761 0.581639 0.373502
S32   S     S_3+6 0.826864 0.351389 0.913752 0.106872
O144  O     O_2   0.733256 0.279920 0.903226 -0.239770
O145  O     O_2   0.877053 0.304473 0.924176 -0.126897
O146  O     O_3   0.815290 0.407825 0.944646 -0.502922
H44   H     H_    0.788020 0.442372 0.935798 0.387720
S33   S     S_3+6 0.600366 0.622097 0.604730 0.110794
O147  O     O_2   0.699885 0.655870 0.598230 -0.210570
O148  O     O_2   0.551113 0.606093 0.573953 -0.239522
O149  O     O_3   0.590352 0.702550 0.624832 -0.469769
H45   H     H_    0.622668 0.758017 0.611691 0.395168
S34   S     S_3+6 0.457131 0.147261 0.896290 0.160543
O150  O     O_2   0.473278 0.229393 0.878061 -0.223971
O151  O     O_2   0.356457 0.090810 0.902625 -0.133407
O152  O     O_3   0.515121 0.179965 0.930402 -0.424834
H46   H     H_    0.577702 0.193454 0.925208 0.379310
S35   S     S_3+6 0.072522 0.425838 0.613948 0.133876
O153  O     O_2   0.027140 0.325495 0.606972 -0.170361
O154  O     O_2   0.113934 0.478369 0.584076 -0.204321
O155  O     O_3   0.156929 0.454157 0.640058 -0.468604
H47   H     H_    0.196512 0.432980 0.630312 0.401162
S36   S     S_3+6 0.575552 0.404421 0.916364 0.093899
O156  O     O_2   0.626506 0.357141 0.906601 -0.207713
O157  O     O_2   0.638351 0.484367 0.936347 -0.256411
O158  O     O_3   0.485160 0.332100 0.938431 -0.442554
H48   H     H_    0.510799 0.330647 0.959170 0.383869

loop_
_geom_bond_atom_site_label_1
_geom_bond_atom_site_label_2
_ccdc_geom_bond_type
C132  C144  A    
Cr6   O24   S    
C2    C76   S    
C16   S28   S    
C45   C57   A    
O71   H19   S    
S8    O72   D    
S27   O130  D    
C47   C76   A    
C112  C124  A    
C146  S19   S    
C33   C78   A    
C21   C33   A    
C60   C72   A    
C25   C80   A    
S6    O66   D    
S2    O55   D    
C156  S15   S    
C86   C134  A    
S12   O86   S    
O89   H25   S    
C48   C60   A    
C45   C78   A    
S24   O122  S    
C96   C108  A    
C19   C31   A    
S29   O136  D    
C28   C83   A    
C23   S35   S    
C18   S30   S    
C40   C83   A    
C37   C80   A    
S31   O143  S    
S21   O113  S    
C4    O16   A    
C58   C70   A    
C106  N10   Am   
Cr2   O17   S    
C101  N5    Am   
C60   H3    S    
S20   O110  S    
C28   I16   S    
C47   I4    S    
C163  S2    S    
C67   N7    S    
C4    C78   S    
C46   C77   A    
C162  C165  A    
C15   C27   A    
S33   O149  S    
S14   O92   S    
C122  C158  A    
Cr6   O26   S    
C14   C26   A    
C39   I12   S    
C40   I11   S    
C11   C79   S    
C9    C83   S    
Cr3   O18   S    
S28   O133  D    
C111  N3    Am   
S5    O64   D    
C3    C77   S    
C32   C73   A    
C131  C143  A    
O149  H45   S    
C62   N2    S    
C155  S16   S    
C97   N1    Am   
C89   C101  A    
C20   C68   A    
S8    O74   S    
C100  N4    Am   
C91   C103  A    
S16   O96   D    
S3    O58   D    
C138  C141  A    
C57   H6    S    
Cr3   O25   S    
C118  O48   D    
C3    O15   A    
S25   O123  D    
O137  H41   S    
C93   C153  A    
C29   C82   A    
C46   I5    S    
C63   N3    S    
S36   O156  D    
C109  C121  A    
C96   C156  A    
C123  C159  A    
C152  S13   S    
C41   C82   A    
C124  C160  A    
C159  S12   S    
S7    O70   D    
S6    O68   S    
S35   O154  D    
C85   C97   A    
C92   C104  A    
C47   C59   A    
C96   C144  A    
Cr2   O14   S    
S13   O87   D    
C38   C79   A    
C123  C135  A    
O110  H32   S    
C102  O32   D    
C54   H9    S    
C30   I18   S    
Cr5   O26   S    
C110  C122  A    
O53   H13   S    
Cr1   O13   S    
C148  S23   S    
C39   C51   A    
C137  C142  A    
C116  O46   D    
O140  H42   S    
S19   O105  D    
C61   N1    S    
C90   C150  A    
C162  S9    S    
C11   O23   A    
O128  H38   S    
S19   O107  S    
C109  N1    Am   
C42   I9    S    
C110  N2    Am   
S1    O51   D    
C24   C36   A    
C41   I10   S    
Cr4   O7    S    
C168  S3    S    
C85   C145  A    
C39   C84   A    
C136  C143  A    
C5    O3    A    
C114  C126  A    
C145  S20   S    
C14   C62   A    
C128  C164  A    
O113  H33   S    
C48   C75   A    
O56   H14   S    
Cr3   O6    S    
C119  O49   D    
O119  H35   S    
C90   C102  A    
Cr1   O4    S    
S22   O114  D    
C65   N5    S    
S4    O60   D    
C112  O42   D    
C66   N6    S    
C119  C131  A    
Cr5   O8    S    
C148  C155  A    
C117  C129  A    
Cr4   O22   S    
C116  N8    Am   
S13   O89   S    
S12   O85   D    
C131  C167  A    
O68   H18   S    
C46   C58   A    
C15   S27   S    
C153  S18   S    
C42   C81   A    
C11   O9    A    
S16   O98   S    
C8    O12   A    
C90   C138  A    
S24   O121  D    
S30   O139  D    
S17   O100  D    
C103  O33   D    
C22   C34   A    
S25   O125  S    
C35   C76   A    
C94   C142  A    
S36   O158  S    
C33   I21   S    
C134  C139  A    
O95   H27   S    
O65   H17   S    
C31   C74   A    
S2    O56   S    
C56   C68   A    
C21   C69   A    
C117  N9    Am   
C36   C75   A    
S30   O140  S    
S15   O94   D    
S18   O103  D    
O146  H44   S    
C151  S14   S    
C68   N8    S    
S23   O119  S    
C41   C53   A    
S20   O109  D    
S9    O75   D    
Cr5   O20   S    
C157  C164  A    
C12   O24   A    
S14   O90   D    
C158  C163  A    
C43   C55   A    
C7    C81   S    
C166  S5    S    
S26   O127  D    
S32   O144  D    
C24   C72   A    
S18   O104  S    
C26   I14   S    
C135  C144  A    
S1    O53   S    
C106  O36   D    
C114  O44   D    
C44   I1    S    
C59   H4    S    
Cr5   O11   S    
O62   H16   S    
C110  O40   D    
O59   H15   S    
C54   C66   A    
C18   C66   A    
S8    O73   D    
C128  C140  A    
C51   H12   S    
C19   S31   S    
S4    O62   S    
S6    O67   D    
C5    C73   S    
C130  C142  A    
S15   O95   S    
C55   H2    S    
C145  C152  A    
C112  N4    Am   
O158  H48   S    
C4    O2    A    
C6    O18   A    
O101  H29   S    
C22   S34   S    
O107  H31   S    
C104  N8    Am   
S14   O91   D    
C120  O50   D    
C22   C70   A    
C99   O29   D    
C13   S25   S    
C97   O27   D    
C108  O38   D    
C95   C143  A    
S29   O135  D    
C1    O13   A    
C150  S21   S    
C17   C29   A    
C43   I2    S    
Cr5   O23   S    
O122  H36   S    
S31   O142  D    
S21   O112  D    
O104  H30   S    
C87   C147  A    
S7    O71   S    
C154  S17   S    
C8    C82   S    
C160  S11   S    
O116  H34   S    
C34   C77   A    
C20   C32   A    
S10   O78   D    
C129  C141  A    
O143  H43   S    
S23   O117  D    
C32   I20   S    
S9    O77   S    
O80   H22   S    
C100  O30   D    
S34   O150  D    
C98   N2    Am   
C126  C138  A    
C161  S10   S    
S33   O148  D    
C150  C153  A    
C120  N12   Am   
S7    O69   D    
C19   C67   A    
C165  S6    S    
C118  N10   Am   
S32   O146  S    
Cr1   O1    S    
C9    O21   A    
C89   C149  A    
Cr6   O12   S    
S5    O63   D    
C27   I15   S    
C86   C146  A    
C7    O11   A    
C6    C74   S    
C37   I8    S    
C49   C61   A    
C124  C136  A    
C111  C123  A    
O86   H24   S    
C87   C135  A    
S27   O131  S    
C51   C63   A    
O125  H37   S    
C88   C136  A    
S10   O80   S    
S16   O97   D    
C52   C64   A    
C53   H10   S    
C107  N11   Am   
C125  C137  A    
C38   I7    S    
S34   O152  S    
S36   O157  D    
S11   O81   D    
S2    O54   D    
C118  C130  A    
C23   C71   A    
S34   O151  D    
C37   C49   A    
C44   C56   A    
C64   N4    S    
O74   H20   S    
C102  N6    Am   
C147  C156  A    
Cr2   O5    S    
C88   C100  A    
C95   C107  A    
C157  S8    S    
C91   C139  A    
S29   O137  S    
C23   C35   A    
Cr6   O9    S    
C34   I22   S    
C107  O37   D    
C1    O5    A    
C93   C141  A    
O152  H46   S    
C27   C84   A    
C127  C163  A    
C119  N11   Am   
C17   C65   A    
C125  C161  A    
S22   O116  S    
S19   O106  D    
C117  O47   D    
C17   S29   S    
C2    O14   A    
C26   C79   A    
C129  C165  A    
C30   C81   A    
C21   S33   S    
C164  S1    S    
S15   O93   D    
C42   C54   A    
C108  N12   Am   
C44   C73   A    
C86   C98   A    
C8    O20   A    
C72   N12   S    
Cr2   O25   S    
Cr3   O15   S    
S28   O132  D    
C133  C140  A    
S4    O61   D    
S5    O65   S    
C35   I23   S    
O134  H40   S    
O131  H39   S    
C101  O31   D    
Cr6   O21   S    
C103  N7    Am   
Cr4   O19   S    
C85   C133  A    
C5    O17   A    
C16   C28   A    
C91   C151  A    
O155  H47   S    
C48   I3    S    
O92   H26   S    
S27   O129  D    
C69   N9    S    
C149  C154  A    
S3    O59   S    
Cr2   O2    S    
S18   O102  D    
C10   O22   A    
C24   S36   S    
S17   O99   D    
Cr1   O16   S    
S25   O124  D    
Cr4   O26   S    
C12   O10   A    
O77   H21   S    
C20   S32   S    
C6    O4    A    
C104  O34   D    
C113  C125  A    
C36   I24   S    
C115  C127  A    
C159  C168  A    
C160  C167  A    
C130  C166  A    
S35   O155  S    
C93   C105  A    
C122  C134  A    
O98   H28   S    
S13   O88   D    
C92   C152  A    
C3    O1    A    
C10   O8    A    
C58   H5    S    
C18   C30   A    
C161  C166  A    
C43   C74   A    
C149  S22   S    
C115  N7    Am   
C121  C157  A    
S26   O128  S    
C13   C25   A    
C127  C139  A    
S11   O83   S    
S32   O145  D    
C71   N11   S    
C87   C99   A    
C88   C148  A    
C113  N5    Am   
S1    O52   D    
C114  N6    Am   
C56   H1    S    
C1    C75   S    
Cr4   O10   S    
C2    O6    A    
S31   O141  D    
C99   N3    Am   
S23   O118  D    
C40   C52   A    
C111  O41   D    
C146  C151  A    
Cr3   O3    S    
C14   S26   S    
S28   O134  S    
C94   C154  A    
S11   O82   D    
C115  O45   D    
C70   N10   S    
S12   O84   D    
C113  O43   D    
C50   C62   A    
C50   H7    S    
C52   H11   S    
S3    O57   D    
C53   C65   A    
S24   O120  D    
S30   O138  D    
S17   O101  S    
C105  N9    Am   
C25   I13   S    
O83   H23   S    
C94   C106  A    
C31   I19   S    
C120  C132  A    
C105  O35   D    
C29   I17   S    
C132  C168  A    
C55   C67   A    
C38   C50   A    
C109  O39   D    
S21   O111  D    
C89   C137  A    
C57   C69   A    
S35   O153  D    
C9    O7    A    
S10   O79   D    
C158  S7    S    
Cr1   O25   S    
C12   C80   S    
C10   C84   S    
S20   O108  D    
S9    O76   D    
C147  S24   S    
C95   C155  A    
C167  S4    S    
S22   O115  D    
C45   I6    S    
C49   H8    S    
C7    O19   A    
C13   C61   A    
S33   O147  D    
C116  C128  A    
C15   C63   A    
S26   O126  D    
C16   C64   A    
C121  C133  A    
C126  C162  A    
C59   C71   A    
C98   O28   D    
C92   C140  A    
