data_mof_unit_35783.cif
_audit_creation_date              2012-12-10T17:10:27-0500
_audit_creation_method            fapswitch 2.2
_symmetry_space_group_name_H-M    P1
_symmetry_Int_Tables_number       1
_space_group_crystal_system       triclinic
_cell_length_a                    10.941288
_cell_length_b                    13.052943
_cell_length_c                    11.78189
_cell_angle_alpha                 100.323151
_cell_angle_beta                  94.453205
_cell_angle_gamma                 94.537212
_cell_volume                      1642.96880502

loop_
_atom_site_label
_atom_site_type_symbol
_atom_type_description
_atom_site_fract_x
_atom_site_fract_y
_atom_site_fract_z
_atom_type_partial_charge
C1    C     C_R   0.510803 0.300363 0.478920 0.860894
C2    C     C_R   0.489197 0.699637 0.521080 0.860893
C3    C     C_R   0.473125 0.812537 0.531023 -0.175938
C4    C     C_R   0.526876 0.187463 0.468977 -0.175937
C5    C     C_R   0.518636 0.015702 0.348622 -0.170022
C6    C     C_R   0.481365 0.984298 0.651378 -0.170021
C7    C     C_R   0.537493 0.123769 0.360826 0.295556
C8    C     C_R   0.462508 0.876231 0.639173 0.295557
C9    C     C_R   0.528691 0.140226 0.568686 -0.094550
C10   C     C_R   0.471310 0.859774 0.431314 -0.094551
C11   C     C_R   0.504198 0.031331 0.555743 0.043740
C12   C     C_R   0.495803 0.968669 0.444256 0.043740
C13   C     C_R   0.428621 0.371856 0.016514 -0.140066
C14   C     C_R   0.571381 0.628143 0.983486 -0.140068
C15   C     C_R   0.423535 0.389029 0.138168 0.453768
C16   C     C_R   0.576465 0.610971 0.861832 0.453762
C17   C     C_R   0.525485 0.558390 0.159014 0.013665
C18   C     C_R   0.474515 0.441610 0.840986 0.013667
C19   C     C_R   0.523612 0.547502 0.036047 -0.023663
C20   C     C_R   0.476389 0.452498 0.963953 -0.023663
C21   C     C_R   0.260901 0.487263 0.498095 0.803892
C22   C     C_R   0.739099 0.512737 0.501905 0.803892
C23   C     C_R   0.121012 0.459315 0.704697 -0.010290
C24   C     C_R   0.878987 0.540678 0.295302 -0.010288
C25   C     C_R   0.087274 0.508058 0.812715 -0.011638
C26   C     C_R   0.912722 0.491930 0.187286 -0.011641
C27   C     C_R   0.991712 0.572617 0.816118 -0.134513
C28   C     C_R   0.008284 0.427371 0.183885 -0.134507
C29   C     C_R   0.921210 0.577553 0.714216 -0.109503
C30   C     C_R   0.078788 0.422438 0.285788 -0.109499
C31   C     C_R   0.952801 0.528588 0.606511 0.049229
C32   C     C_R   0.047199 0.471409 0.393490 0.049226
C33   C     C_R   0.067482 0.486760 0.602250 0.036339
C34   C     C_R   0.932519 0.513238 0.397751 0.036335
C35   C     C_R   0.877016 0.526882 0.503332 -0.187508
C36   C     C_R   0.122984 0.473117 0.496669 -0.187511
Cu1   Cu    Cu3+1 0.509250 0.507730 0.615930 1.023789
Cu2   Cu    Cu3+1 0.490750 0.492270 0.384070 1.023789
H1    H     H_    0.031470 0.384136 0.102330 0.180021
H2    H     H_    0.968523 0.615847 0.897675 0.180017
H3    H     H_    0.847699 0.626066 0.717676 0.203072
H4    H     H_    0.152298 0.373922 0.282331 0.203068
H5    H     H_    0.525887 0.968567 0.264292 0.193532
H6    H     H_    0.474115 0.031433 0.735708 0.193532
H7    H     H_    0.434875 0.370577 0.785447 0.160266
H8    H     H_    0.565126 0.629423 0.214553 0.160267
N1    N     N_R   0.523180 0.519350 0.790130 -0.211094
N2    N     N_R   0.476820 0.480650 0.209870 -0.211094
O1    O     O_R   0.506570 0.354460 0.582000 -0.599380
O2    O     O_R   0.493430 0.645540 0.418000 -0.599380
O3    O     O_R   0.490940 0.341410 0.386200 -0.514943
O4    O     O_R   0.509060 0.658590 0.613800 -0.514942
O5    O     O_R   0.327470 0.506520 0.597900 -0.572441
O6    O     O_R   0.672530 0.493480 0.402100 -0.572442
O7    O     O_R   0.311840 0.493460 0.402100 -0.568293
O8    O     O_R   0.688160 0.506540 0.597900 -0.568296
C37   C     C_1   0.381705 0.271396 0.946184 0.343759
N3    N     N_1   0.344476 0.191092 0.890482 -0.208950
C38   C     C_1   0.618297 0.728604 0.053815 0.343759
N4    N     N_1   0.655526 0.808907 0.109518 -0.208949
C39   C     C_1   0.184592 0.365506 0.695521 0.242347
N5    N     N_1   0.232269 0.288809 0.685845 -0.277469
C40   C     C_1   0.815411 0.634488 0.304474 0.242349
N6    N     N_1   0.767737 0.711186 0.314146 -0.277470
C41   C     C_1   0.150644 0.496172 0.920561 0.245331
N7    N     N_1   0.200856 0.488513 0.008180 -0.290032
C42   C     C_1   0.849348 0.503811 0.079439 0.245331
N8    N     N_1   0.799133 0.511465 0.991820 -0.290029
C43   C     C_1   0.425263 0.800659 0.317607 0.303122
N9    N     N_1   0.386123 0.755049 0.226966 -0.256439
C44   C     C_1   0.574737 0.199341 0.682393 0.303122
N10   N     N_1   0.613877 0.244951 0.773034 -0.256438
Br1   Br    Br    0.397772 0.823333 0.766772 -0.420214
Br2   Br    Br    0.602229 0.176667 0.233229 -0.420216
Br3   Br    Br    0.671905 0.719700 0.807206 -0.475369
Br4   Br    Br    0.328095 0.280300 0.192793 -0.475369

loop_
_geom_bond_atom_site_label_1
_geom_bond_atom_site_label_2
_ccdc_geom_bond_type
C30   C32   A    
C27   C29   A    
C16   Br3   S    
C19   C20   A    
C17   N2    A    
C18   N1    A    
C22   O6    A    
C21   C36   S    
C14   C38   S    
C26   C42   S    
C32   C36   A    
C24   C26   A    
C13   C37   S    
C33   C36   A    
C34   C35   A    
C2    O2    A    
Cu1   O8    S    
Cu2   O7    S    
C23   C33   A    
C31   C33   A    
C14   C16   A    
Cu1   N1    S    
Cu2   N2    S    
Cu1   O5    S    
C15   Br4   S    
C5    H5    S    
C38   N4    T    
C6    H6    S    
C43   N9    T    
C15   N2    A    
C4    C7    A    
C10   C12   A    
C16   N1    A    
C7    Br2   S    
C42   N8    T    
C25   C41   S    
C17   H8    S    
C5    C12   A    
C3    C8    A    
C6    C11   A    
C21   O7    A    
Cu1   O4    S    
C22   O8    A    
Cu2   O3    S    
C28   H1    S    
C24   C34   A    
C32   C34   A    
Cu1   Cu2   S    
C22   C35   S    
Cu1   O1    S    
Cu2   O6    S    
C13   C15   A    
C27   H2    S    
C1    O3    A    
C2    O4    A    
C24   C40   S    
C9    C11   A    
C31   C35   A    
C18   H7    S    
C5    C7    A    
C13   C20   A    
C29   H3    S    
C14   C19   A    
C9    C44   S    
C6    C8    A    
C11   C12   A    
Cu2   O2    S    
C25   C27   A    
C26   C28   A    
C1    C4    S    
C28   C30   A    
C2    C3    S    
C44   N10   T    
C29   C31   A    
C3    C10   A    
C21   O5    A    
C37   N3    T    
C8    Br1   S    
C17   C19   A    
C18   C20   A    
C23   C25   A    
C39   N5    T    
C40   N6    T    
C10   C43   S    
C23   C39   S    
C41   N7    T    
C30   H4    S    
C4    C9    A    
C1    O1    A    
