data_mof_unit_46568.cif
_audit_creation_date              2012-12-10T17:09:16-0500
_audit_creation_method            fapswitch 2.2
_symmetry_space_group_name_H-M    P1
_symmetry_Int_Tables_number       1
_space_group_crystal_system       triclinic
_cell_length_a                    18.328698
_cell_length_b                    18.488022
_cell_length_c                    11.721015
_cell_angle_alpha                 90.362468
_cell_angle_beta                  75.005744
_cell_angle_gamma                 90.245874
_cell_volume                      3836.4752229

loop_
_atom_site_label
_atom_site_type_symbol
_atom_type_description
_atom_site_fract_x
_atom_site_fract_y
_atom_site_fract_z
_atom_type_partial_charge
C1    C     C_R   0.398516 0.099537 0.522797 0.835198
C2    C     C_R   0.601832 0.900618 0.477439 0.850024
C3    C     C_R   0.600041 0.100715 0.478512 0.883334
C4    C     C_R   0.403693 0.895556 0.520498 0.807130
C5    C     C_R   0.899313 0.599956 0.521749 0.848316
C6    C     C_R   0.098559 0.397115 0.478260 0.804864
C7    C     C_R   0.100537 0.600124 0.478166 0.845376
C8    C     C_R   0.900726 0.398466 0.521558 0.851423
C9    C     C_R   0.535117 0.995331 0.960331 0.023045
C10   C     C_R   0.464329 0.004663 0.040034 0.025528
C11   C     C_R   0.035510 0.505308 0.960162 0.026620
C12   C     C_R   0.964921 0.493901 0.039477 0.021101
C13   C     C_R   0.409965 0.009188 0.870856 0.156477
C14   C     C_R   0.589709 0.990142 0.128822 0.157551
C15   C     C_R   0.910282 0.489403 0.870693 0.156180
C16   C     C_R   0.089768 0.510915 0.129444 0.149004
C17   C     C_R   0.401913 0.011750 0.994253 -0.206620
C18   C     C_R   0.597555 0.987849 0.005707 -0.231608
C19   C     C_R   0.902540 0.485780 0.993708 -0.236162
C20   C     C_R   0.097773 0.513825 0.006193 -0.216899
C21   C     C_R   0.542205 0.993768 0.836681 0.033660
C22   C     C_R   0.457487 0.006640 0.163810 0.030155
C23   C     C_R   0.042386 0.507613 0.836445 0.039028
C24   C     C_R   0.957999 0.491233 0.163098 0.054942
C25   C     C_R   0.648340 0.164614 0.470804 -0.156096
C26   C     C_R   0.354117 0.830953 0.530901 -0.235524
C27   C     C_R   0.341486 0.156692 0.537098 -0.138471
C28   C     C_R   0.660002 0.843972 0.461638 -0.149181
C29   C     C_R   0.156524 0.657758 0.466123 -0.132168
C30   C     C_R   0.850441 0.335207 0.533650 -0.132128
C31   C     C_R   0.850480 0.663122 0.529713 -0.154926
C32   C     C_R   0.150296 0.334001 0.465750 -0.219635
C33   C     C_R   0.279561 0.732403 0.644817 -0.062521
C34   C     C_R   0.649405 0.287185 0.545914 -0.043600
C35   C     C_R   0.713155 0.730893 0.368899 -0.073819
C36   C     C_R   0.284501 0.269769 0.627161 0.022244
C37   C     C_R   0.836610 0.204023 0.528060 -0.065217
C38   C     C_R   0.207105 0.774962 0.387669 0.022138
C39   C     C_R   0.231802 0.240545 0.347731 -0.059285
C40   C     C_R   0.828660 0.791717 0.571621 -0.048126
C41   C     C_R   0.329268 0.792095 0.638984 -0.037008
C42   C     C_R   0.612772 0.232102 0.498254 -0.065033
C43   C     C_R   0.662903 0.788976 0.376009 -0.078188
C44   C     C_R   0.336955 0.213042 0.621936 -0.103733
C45   C     C_R   0.879837 0.265558 0.540719 -0.062251
C46   C     C_R   0.154046 0.718380 0.393533 -0.112363
C47   C     C_R   0.182409 0.300200 0.354094 -0.025227
C48   C     C_R   0.868869 0.727834 0.580279 -0.088136
C49   C     C_R   0.326442 0.810349 0.433319 -0.088803
C50   C     C_R   0.725258 0.156207 0.466617 -0.067800
C51   C     C_R   0.713523 0.845248 0.530162 -0.023116
C52   C     C_R   0.294470 0.157589 0.458697 -0.063921
C53   C     C_R   0.773712 0.344004 0.536699 -0.055647
C54   C     C_R   0.208902 0.654915 0.535758 -0.064991
C55   C     C_R   0.171506 0.308858 0.566510 -0.093521
C56   C     C_R   0.793728 0.661964 0.468589 -0.061845
C57   C     C_R   0.260454 0.768732 0.455401 0.073943
C58   C     C_R   0.764156 0.213562 0.507054 -0.021760
C59   C     C_R   0.767185 0.788808 0.517667 -0.007301
C60   C     C_R   0.255338 0.221589 0.449675 -0.042551
C61   C     C_R   0.728571 0.282189 0.531372 -0.020612
C62   C     C_R   0.248920 0.718278 0.547437 -0.053915
C63   C     C_R   0.237478 0.267627 0.548594 0.075449
C64   C     C_R   0.758156 0.726822 0.450912 -0.024959
Cu1   Cu    Cu3+1 0.507800 1.000000 0.383250 0.965631
Cu2   Cu    Cu3+1 0.492200 1.000000 0.616750 0.965886
Cu3   Cu    Cu3+1 0.007800 0.500000 0.383250 0.972888
Cu4   Cu    Cu3+1 0.992200 0.500000 0.616750 0.975829
H1    H     H_    0.402417 0.013082 0.224785 0.152283
H2    H     H_    0.597262 0.988177 0.776248 0.169856
H3    H     H_    0.903283 0.482114 0.223327 0.184883
H4    H     H_    0.097377 0.515208 0.775677 0.147343
H5    H     H_    0.346607 0.018600 0.054938 0.186720
H6    H     H_    0.652784 0.980817 0.944859 0.186048
H7    H     H_    0.847365 0.477767 0.054202 0.191982
H8    H     H_    0.152970 0.521988 0.945825 0.185770
N1    N     N_R   0.519530 1.000000 0.207810 -0.233597
N2    N     N_R   0.480470 1.000000 0.792190 -0.237208
N3    N     N_R   0.019530 0.500000 0.207810 -0.238342
N4    N     N_R   0.980470 0.500000 0.792190 -0.229915
O1    O     O_R   0.430030 0.075530 0.417420 -0.557094
O2    O     O_R   0.569970 0.924470 0.582580 -0.568947
O3    O     O_R   0.569970 0.075530 0.582580 -0.559747
O4    O     O_R   0.430030 0.924470 0.417420 -0.580287
O5    O     O_R   0.930030 0.575530 0.417420 -0.535381
O6    O     O_R   0.069970 0.424470 0.582580 -0.583715
O7    O     O_R   0.069970 0.575530 0.582580 -0.557202
O8    O     O_R   0.930030 0.424470 0.417420 -0.578781
O9    O     O_R   0.416860 0.075510 0.614610 -0.640337
O10   O     O_R   0.583140 0.924490 0.385390 -0.624392
O11   O     O_R   0.583140 0.075510 0.385390 -0.615357
O12   O     O_R   0.416860 0.924490 0.614610 -0.628408
O13   O     O_R   0.916860 0.575510 0.614610 -0.619386
O14   O     O_R   0.083140 0.424490 0.385390 -0.637275
O15   O     O_R   0.083140 0.575510 0.385390 -0.625660
O16   O     O_R   0.916860 0.424490 0.614610 -0.601438
C65   C     C_2   0.659838 0.982022 0.167697 0.436473
H9    H     H_    0.664728 0.003351 0.250290 0.165412
O17   O     O_2   0.714885 0.951386 0.105193 -0.495433
C66   C     C_2   0.339682 0.016786 0.831526 0.473910
H10   H     H_    0.334529 0.995814 0.748429 0.131349
O18   O     O_2   0.284353 0.046777 0.894466 -0.480667
C67   C     C_2   0.159902 0.519182 0.169017 0.487971
H11   H     H_    0.165792 0.495896 0.249852 0.128238
O19   O     O_2   0.214099 0.552144 0.108919 -0.480617
C68   C     C_2   0.839993 0.482149 0.831429 0.447091
H12   H     H_    0.834386 0.505793 0.750868 0.162053
O20   O     O_2   0.785413 0.449682 0.891497 -0.521965
C69   C     C_2   0.768239 0.094822 0.397508 0.361981
H13   H     H_    0.826936 0.102412 0.349974 0.110973
O21   O     O_2   0.739406 0.035918 0.391314 -0.522777
C70   C     C_2   0.375219 0.813898 0.308930 0.382795
H14   H     H_    0.434224 0.828652 0.290578 0.112299
O22   O     O_2   0.352007 0.794530 0.224856 -0.500903
C71   C     C_2   0.271570 0.088732 0.408521 0.362913
H15   H     H_    0.234665 0.089637 0.349884 0.101127
O23   O     O_2   0.287879 0.029423 0.439816 -0.544694
C72   C     C_2   0.708513 0.900781 0.624117 0.339519
H16   H     H_    0.707714 0.884112 0.713074 0.095107
O24   O     O_2   0.709508 0.965136 0.601525 -0.522889
C73   C     C_2   0.234739 0.584129 0.573893 0.349123
H17   H     H_    0.278995 0.582659 0.619660 0.102208
O25   O     O_2   0.211934 0.526047 0.546743 -0.545435
C74   C     C_2   0.742962 0.417870 0.533909 0.348898
H18   H     H_    0.704592 0.428947 0.479503 0.108851
O26   O     O_2   0.756959 0.465675 0.597397 -0.557416
C75   C     C_2   0.761396 0.591863 0.442376 0.390007
H19   H     H_    0.701309 0.582024 0.476824 0.108524
O27   O     O_2   0.799592 0.547384 0.376094 -0.558038
C76   C     C_2   0.116565 0.307735 0.686415 0.416601
H20   H     H_    0.058449 0.324053 0.698980 0.131310
O28   O     O_2   0.133534 0.282694 0.772220 -0.505413
C77   C     C_2   0.540450 0.245904 0.466466 0.441344
H21   H     H_    0.505504 0.201488 0.451685 0.004737
O29   O     O_2   0.521726 0.307130 0.447945 -0.470817
C78   C     C_2   0.357356 0.811200 0.743352 0.506643
H22   H     H_    0.417633 0.814698 0.735044 0.063452
O30   O     O_2   0.313252 0.824792 0.838455 -0.472316
C79   C     C_2   0.383552 0.210142 0.708474 0.575863
H23   H     H_    0.443605 0.199342 0.679283 0.041412
O31   O     O_2   0.354308 0.217032 0.814094 -0.432333
C80   C     C_2   0.610198 0.790033 0.298587 0.539279
H24   H     H_    0.549876 0.793947 0.337705 0.001544
O32   O     O_2   0.634061 0.789243 0.191190 -0.465724
C81   C     C_2   0.098177 0.720205 0.321520 0.539419
H25   H     H_    0.039384 0.706982 0.361292 0.006469
O33   O     O_2   0.118240 0.733064 0.215925 -0.434716
C82   C     C_2   0.956028 0.258132 0.560622 0.480076
H26   H     H_    0.002992 0.287107 0.504984 -0.018737
O34   O     O_2   0.966093 0.221105 0.641052 -0.487720
C83   C     C_2   0.933480 0.728679 0.635000 0.521059
H27   H     H_    0.988942 0.711718 0.584052 -0.020442
O35   O     O_2   0.924036 0.744383 0.739095 -0.447955
C84   C     C_2   0.163049 0.324620 0.245198 0.494590
H28   H     H_    0.104599 0.325283 0.240993 0.071448
O36   O     O_2   0.212437 0.344700 0.159861 -0.478824
C85   C     C_2   0.863731 0.130204 0.546711 0.433660
H29   H     H_    0.823915 0.090343 0.594515 0.109073
O37   O     O_2   0.929272 0.112298 0.504510 -0.483508
C86   C     C_2   0.200347 0.846141 0.330413 0.523379
H30   H     H_    0.244709 0.886428 0.319981 0.093924
O38   O     O_2   0.143579 0.863131 0.301071 -0.489521
C87   C     C_2   0.267058 0.204237 0.232633 0.432418
H31   H     H_    0.324524 0.184233 0.215165 0.060111
O39   O     O_2   0.231634 0.193374 0.159100 -0.450486
C88   C     C_2   0.860252 0.863193 0.594963 0.385070
H32   H     H_    0.861062 0.907502 0.534291 0.116738
O40   O     O_2   0.882857 0.874276 0.682700 -0.445391
C89   C     C_2   0.251514 0.690858 0.756447 0.434691
H33   H     H_    0.193844 0.670735 0.780507 0.066389
O41   O     O_2   0.293013 0.675852 0.819221 -0.460021
C90   C     C_2   0.603653 0.338146 0.636457 0.421793
H34   H     H_    0.630783 0.372131 0.689023 0.105685
O42   O     O_2   0.534755 0.339020 0.661176 -0.459323
C91   C     C_2   0.723531 0.677407 0.270181 0.460435
H35   H     H_    0.780114 0.660133 0.224342 0.101095
O43   O     O_2   0.669574 0.649750 0.243483 -0.492331
C92   C     C_2   0.286506 0.337865 0.696800 0.540402
H36   H     H_    0.242631 0.378230 0.705656 0.070868
O44   O     O_2   0.339231 0.352500 0.738659 -0.452100

loop_
_geom_bond_atom_site_label_1
_geom_bond_atom_site_label_2
_ccdc_geom_bond_type
Cu4   N4    S    
C6    C32   S    
C85   H29   S    
C7    C29   S    
C45   C82   S    
Cu4   O6    S    
C89   H33   S    
C14   C18   A    
C30   C45   A    
C87   H31   S    
C34   C42   A    
C33   C89   S    
C70   O22   D    
C92   H36   S    
C57   C62   A    
C91   O43   D    
C10   C22   A    
C15   C19   A    
C59   C64   A    
Cu4   O16   S    
C60   C63   A    
C15   C68   S    
C39   C47   A    
C87   O39   D    
C82   O34   D    
C69   O21   D    
C81   H25   S    
C90   H34   S    
C28   C51   A    
C14   N1    A    
C46   C81   S    
C68   H12   S    
C10   C17   A    
C1    O1    A    
C71   H15   S    
C51   C72   S    
C49   C57   A    
C20   H8    S    
C3    O11   A    
C56   C75   S    
C37   C85   S    
C2    O10   A    
C40   C48   A    
C25   C50   A    
C8    O16   A    
C52   C60   A    
C81   O33   D    
Cu2   O3    S    
C72   H16   S    
C53   C61   A    
C27   C44   A    
C7    O7    A    
C15   N4    A    
C33   C62   A    
C6    O14   A    
C55   C63   A    
C21   N2    A    
Cu3   O14   S    
C83   H27   S    
C56   C64   A    
C35   C64   A    
C23   N4    A    
C36   C63   A    
C35   C43   A    
C9    C10   A    
C32   C55   A    
C84   O36   D    
C37   C58   A    
C5    O5    A    
C5    O13   A    
C58   C61   A    
C85   O37   D    
C40   C59   A    
C88   O40   D    
C89   O41   D    
C70   H14   S    
C65   O17   D    
C90   O42   D    
C65   H9    S    
Cu2   O9    S    
Cu1   O10   S    
Cu2   N2    S    
C30   C53   A    
C11   C20   A    
Cu3   O5    S    
C73   H17   S    
Cu3   Cu4   S    
C50   C58   A    
C3    C25   S    
Cu3   N3    S    
C82   H26   S    
C78   O30   D    
C26   C49   A    
C17   H5    S    
Cu1   O4    S    
Cu2   O12   S    
C54   C62   A    
C71   O23   D    
C50   C69   S    
C24   N3    A    
C8    O8    A    
C86   O38   D    
C76   O28   D    
C75   O27   D    
Cu2   O2    S    
C38   C57   A    
C16   C67   S    
C4    C26   S    
C91   H35   S    
C4    O4    A    
C16   C20   A    
C55   C76   S    
C66   O18   D    
Cu3   O8    S    
C36   C92   S    
C67   O19   D    
C84   H28   S    
C49   C70   S    
Cu3   O15   S    
C44   C79   S    
C31   C48   A    
C42   C77   S    
C3    O3    A    
C77   H21   S    
C31   C56   A    
C32   C47   A    
C80   O32   D    
C36   C44   A    
C51   C59   A    
C37   C45   A    
C75   H19   S    
C73   O25   D    
C34   C90   S    
C27   C52   A    
C79   H23   S    
C14   C65   S    
C74   O26   D    
C29   C46   A    
C52   C71   S    
Cu1   O11   S    
C13   N2    A    
C1    O9    A    
C22   H1    S    
C80   H24   S    
C40   C88   S    
C23   H4    S    
C54   C73   S    
C22   N1    A    
C78   H22   S    
C53   C74   S    
C25   C42   A    
C92   O44   D    
C11   C12   A    
C29   C54   A    
C47   C84   S    
C7    O15   A    
C12   C24   A    
C28   C43   A    
Cu1   N1    S    
Cu4   O13   S    
C6    O6    A    
C13   C17   A    
C21   H2    S    
C16   N3    A    
C35   C91   S    
C86   H30   S    
C13   C66   S    
C19   H7    S    
C76   H20   S    
C33   C41   A    
C8    C30   S    
C1    C27   S    
C69   H13   S    
C79   O31   D    
C9    C21   A    
C88   H32   S    
C68   O20   D    
C39   C60   A    
C12   C19   A    
C11   C23   A    
C66   H10   S    
C83   O35   D    
C72   O24   D    
C38   C46   A    
C2    O2    A    
C38   C86   S    
C9    C18   A    
C24   H3    S    
C18   H6    S    
Cu1   Cu2   S    
C34   C61   A    
C48   C83   S    
C67   H11   S    
C77   O29   D    
Cu4   O7    S    
Cu1   O1    S    
C43   C80   S    
C2    C28   S    
C5    C31   S    
C39   C87   S    
C41   C78   S    
C26   C41   A    
C74   H18   S    
C4    O12   A    
