data_mof_unit_5160.cif
_audit_creation_date              2012-12-10T20:24:44-0500
_audit_creation_method            fapswitch 2.2
_symmetry_space_group_name_H-M    P1
_symmetry_Int_Tables_number       1
_space_group_crystal_system       triclinic
_cell_length_a                    10.780058
_cell_length_b                    18.817448
_cell_length_c                    18.437284
_cell_angle_alpha                 88.245587
_cell_angle_beta                  91.344215
_cell_angle_gamma                 90.513631
_cell_volume                      3737.15247105

loop_
_atom_site_label
_atom_site_type_symbol
_atom_type_description
_atom_site_fract_x
_atom_site_fract_y
_atom_site_fract_z
_atom_type_partial_charge
C1    C     C_R   0.500880 0.364989 0.501007 0.887904
C2    C     C_R   0.500613 0.635079 0.499009 0.884318
C3    C     C_R   0.872503 0.494888 0.501999 -0.097879
C4    C     C_R   0.127210 0.500930 0.496872 -0.085005
C5    C     C_R   0.942491 0.482581 0.566568 -0.000097
C6    C     C_R   0.057214 0.511226 0.431674 0.007801
C7    C     C_R   0.444358 0.762782 0.482478 -0.060896
C8    C     C_R   0.444953 0.237311 0.520208 -0.069610
C9    C     C_R   0.482955 0.834135 0.478547 -0.012065
C10   C     C_R   0.482920 0.166160 0.524555 -0.016593
C11   C     C_R   0.609113 0.851796 0.492002 -0.008714
C12   C     C_R   0.607585 0.149123 0.510459 -0.005163
C13   C     C_R   0.697206 0.798220 0.507651 0.023846
C14   C     C_R   0.694815 0.203114 0.493690 0.026614
C15   C     C_R   0.657748 0.727518 0.509633 -0.226119
C16   C     C_R   0.655816 0.273480 0.490563 -0.260646
C17   C     C_R   0.532943 0.709897 0.497201 -0.086161
C18   C     C_R   0.532560 0.290444 0.503640 -0.088042
C19   C     C_R   0.651033 0.958572 0.565727 0.048883
C20   C     C_R   0.645074 0.042682 0.436978 0.048934
C21   C     C_R   0.650038 0.032289 0.569073 -0.248508
C22   C     C_R   0.646829 0.968993 0.433645 -0.248247
C23   C     C_R   0.259682 0.501226 0.498860 0.883642
C24   C     C_R   0.740185 0.497673 0.500956 0.866028
C25   C     C_R   0.641128 0.074152 0.505160 0.048019
C26   C     C_R   0.643705 0.926993 0.497526 0.046228
C27   C     C_R   0.572715 0.546764 0.726478 0.028001
C28   C     C_R   0.427576 0.452880 0.273874 0.029777
C29   C     C_R   0.574032 0.546524 0.802709 -0.299208
C30   C     C_R   0.425959 0.452820 0.197743 -0.299912
C31   C     C_R   0.502535 0.496663 0.842148 0.035274
C32   C     C_R   0.497309 0.502515 0.158097 0.037045
C33   C     C_R   0.427890 0.448159 0.803181 -0.105949
C34   C     C_R   0.572517 0.551075 0.196752 -0.106108
C35   C     C_R   0.427634 0.451525 0.726225 0.071403
C36   C     C_R   0.572291 0.548470 0.273719 0.068347
C37   C     C_R   0.569280 0.448418 0.966349 -0.199918
C38   C     C_R   0.428838 0.550106 0.034017 -0.201983
C39   C     C_R   0.566793 0.449553 0.042409 -0.167177
C40   C     C_R   0.431730 0.549157 0.957919 -0.166280
C41   C     C_R   0.497084 0.500605 0.077082 0.137015
C42   C     C_R   0.501897 0.498272 0.923222 0.137900
C43   C     C_R   0.212227 0.612318 0.277271 -0.153604
C44   C     C_R   0.787924 0.378204 0.718576 -0.151836
C45   C     C_R   0.177154 0.591461 0.347056 -0.071629
C46   C     C_R   0.823856 0.399787 0.649072 -0.073291
C47   C     C_R   0.108484 0.528812 0.358850 0.123245
C48   C     C_R   0.890571 0.463402 0.638561 0.130979
C49   C     C_R   0.075069 0.487211 0.299209 -0.235943
C50   C     C_R   0.921150 0.504949 0.698597 -0.235513
C51   C     C_R   0.106373 0.508776 0.227955 0.073032
C52   C     C_R   0.889774 0.482461 0.769453 0.074733
C53   C     C_R   0.175849 0.572038 0.218031 -0.169773
C54   C     C_R   0.821802 0.418495 0.778424 -0.169077
C55   C     C_R   0.930174 0.507946 0.435683 -0.231524
C56   C     C_R   0.069459 0.486533 0.562868 -0.220825
H1    H     H_    0.199897 0.591770 0.164437 0.111519
H2    H     H_    0.797423 0.398122 0.831734 0.110461
H3    H     H_    0.724754 0.685667 0.520908 0.144418
H4    H     H_    0.722093 0.315617 0.478119 0.135540
H5    H     H_    0.647312 0.057178 0.621308 0.144650
H6    H     H_    0.641069 0.944025 0.381395 0.146852
H7    H     H_    0.629819 0.584647 0.696814 0.135519
H8    H     H_    0.370737 0.415053 0.303777 0.138745
H9    H     H_    0.631080 0.585023 0.830860 0.160334
H10   H     H_    0.368947 0.414138 0.169842 0.158522
H11   H     H_    0.624843 0.408854 0.941187 0.112955
H12   H     H_    0.372667 0.589328 0.059304 0.114047
H13   H     H_    0.619846 0.410808 0.074343 0.128218
H14   H     H_    0.378578 0.587875 0.925991 0.127586
H15   H     H_    0.265285 0.660857 0.268829 0.137174
H16   H     H_    0.736605 0.328967 0.726404 0.134453
H17   H     H_    0.202788 0.624212 0.391993 0.141374
H18   H     H_    0.801554 0.366451 0.603644 0.116194
H19   H     H_    0.023221 0.438476 0.308970 0.130267
H20   H     H_    0.971236 0.554383 0.689404 0.129392
H21   H     H_    0.876071 0.517995 0.386142 0.173261
H22   H     H_    0.123424 0.476614 0.612461 0.172528
N1    N     N_R   0.500020 0.499980 0.689440 -0.114089
N2    N     N_R   0.499980 0.500020 0.310560 -0.115349
O1    O     O_R   0.500010 0.398180 0.560840 -0.610174
O2    O     O_R   0.499990 0.601820 0.439160 -0.609475
O3    O     O_R   0.499950 0.398180 0.439210 -0.620755
O4    O     O_R   0.500050 0.601820 0.560790 -0.619857
O5    O     O_R   0.316790 0.500010 0.560810 -0.625493
O6    O     O_R   0.683210 0.499990 0.439190 -0.627685
O7    O     O_R   0.316730 0.500000 0.439190 -0.622289
O8    O     O_R   0.683270 0.500000 0.560810 -0.619231
Zn1   Zn    Zn3+2 0.500040 0.500000 0.581210 0.954920
Zn2   Zn    Zn3+2 0.499960 0.500000 0.418790 0.952034
C57   C     C_1   0.648216 0.916474 0.632502 0.153957
N3    N     N_1   0.645972 0.882661 0.685954 -0.216022
C58   C     C_1   0.636007 0.084574 0.370134 0.156117
N4    N     N_1   0.628746 0.118210 0.316625 -0.215996
C59   C     C_R   0.346882 0.395714 0.841573 0.111769
C60   C     C_R   0.217363 0.402458 0.836313 -0.140966
C61   C     C_R   0.140198 0.351389 0.868986 -0.145438
C62   C     C_R   0.191839 0.293431 0.907635 -0.120510
C63   C     C_R   0.320656 0.285726 0.912247 -0.126897
C64   C     C_R   0.397997 0.336175 0.878563 -0.131074
H23   H     H_    0.176544 0.446415 0.805544 0.130007
H24   H     H_    0.040468 0.356901 0.864568 0.133503
H25   H     H_    0.132042 0.254167 0.933390 0.126509
H26   H     H_    0.360551 0.240180 0.941149 0.128062
H27   H     H_    0.497243 0.328071 0.880172 0.112490
C65   C     C_R   0.655289 0.602181 0.157964 0.111399
C66   C     C_R   0.606255 0.661369 0.119378 -0.130881
C67   C     C_R   0.685352 0.710024 0.084443 -0.126955
C68   C     C_R   0.813834 0.700781 0.089202 -0.121108
C69   C     C_R   0.863399 0.643089 0.129252 -0.144896
C70   C     C_R   0.784500 0.593869 0.163355 -0.141240
H28   H     H_    0.507280 0.670464 0.117274 0.113548
H29   H     H_    0.647091 0.755307 0.054312 0.128591
H30   H     H_    0.874995 0.738622 0.062399 0.126480
H31   H     H_    0.962869 0.636389 0.133698 0.133329
H32   H     H_    0.823785 0.549957 0.194977 0.129617
C71   C     C_1   0.349592 0.403336 0.686213 0.221233
N5    N     N_1   0.285664 0.364367 0.655260 -0.198135
C72   C     C_1   0.648668 0.597696 0.313856 0.226181
N6    N     N_1   0.710549 0.637444 0.345312 -0.209494
C73   C     C_R   0.063709 0.466974 0.164178 0.100992
C74   C     C_R   0.133073 0.467471 0.100351 -0.184478
C75   C     C_R   0.091662 0.430595 0.039779 -0.097774
C76   C     C_R   0.980555 0.392112 0.041809 -0.113717
C77   C     C_R   0.911022 0.390305 0.104722 -0.134875
C78   C     C_R   0.951883 0.427388 0.165497 -0.170477
H33   H     H_    0.220047 0.495825 0.097070 0.134385
H34   H     H_    0.145927 0.432429 0.991209 0.162555
H35   H     H_    0.948202 0.363823 0.994675 0.113984
H36   H     H_    0.824963 0.360350 0.106357 0.121819
H37   H     H_    0.893898 0.426198 0.212602 0.114644
C79   C     C_R   0.931393 0.524098 0.833641 0.099922
C80   C     C_R   0.862367 0.522359 0.897558 -0.184519
C81   C     C_R   0.902719 0.559171 0.958443 -0.095796
C82   C     C_R   0.012791 0.598645 0.956633 -0.111648
C83   C     C_R   0.082061 0.601693 0.893641 -0.135122
C84   C     C_R   0.041949 0.564903 0.832533 -0.171840
H38   H     H_    0.776421 0.493139 0.900497 0.133709
H39   H     H_    0.848574 0.556554 0.007104 0.162558
H40   H     H_    0.044582 0.626776 0.003972 0.114127
H41   H     H_    0.167366 0.632381 0.892196 0.121104
H42   H     H_    0.099774 0.567200 0.785367 0.115676
C85   C     C_1   0.313842 0.744535 0.475931 0.108644
N7    N     N_1   0.209230 0.730698 0.471453 -0.216194
C86   C     C_1   0.315860 0.255529 0.528741 0.149442
N8    N     N_1   0.212689 0.270092 0.535080 -0.182048
C87   C     C_1   0.392857 0.889638 0.462581 0.172487
N9    N     N_1   0.321691 0.934149 0.449558 -0.218234
C88   C     C_1   0.393578 0.110322 0.541520 0.168361
N10   N     N_1   0.322892 0.065587 0.555304 -0.216936
C89   C     C_R   0.829393 0.815107 0.524415 0.120123
C90   C     C_R   0.885849 0.789148 0.589332 -0.148411
C91   C     C_R   0.008469 0.807863 0.606955 -0.131145
C92   C     C_R   0.075623 0.852482 0.559999 -0.076408
C93   C     C_R   0.020943 0.877441 0.494749 -0.112835
C94   C     C_R   0.898799 0.858434 0.476668 -0.140794
H43   H     H_    0.834198 0.755612 0.626911 0.133588
H44   H     H_    0.051121 0.788196 0.657284 0.132120
H45   H     H_    0.170298 0.867237 0.573908 0.141779
H46   H     H_    0.072934 0.911593 0.458075 0.154202
H47   H     H_    0.858292 0.877731 0.425604 0.133779
C95   C     C_R   0.825551 0.187000 0.477024 0.115947
C96   C     C_R   0.877014 0.212683 0.411820 -0.145220
C97   C     C_R   0.998242 0.194909 0.394483 -0.135344
C98   C     C_R   0.068999 0.151505 0.442010 -0.083750
C99   C     C_R   0.019361 0.126827 0.507528 -0.108447
C100  C     C_R   0.898623 0.144895 0.525317 -0.148294
H48   H     H_    0.822521 0.245303 0.373824 0.136366
H49   H     H_    0.037016 0.214387 0.343951 0.132515
H50   H     H_    0.162620 0.137511 0.428366 0.139133
H51   H     H_    0.074270 0.093696 0.544664 0.153739
H52   H     H_    0.862095 0.125885 0.576615 0.131192

loop_
_geom_bond_atom_site_label_1
_geom_bond_atom_site_label_2
_ccdc_geom_bond_type
C38   C40   A    
C20   C58   S    
C98   C99   A    
C31   C42   S    
C27   C29   A    
C59   C60   A    
C66   H28   S    
C74   H33   S    
C5    C56   A    
C2    O4    A    
C87   N9    T    
C46   H18   S    
C6    C55   A    
C84   H42   S    
C7    C85   S    
C86   N8    T    
C3    C24   S    
C75   C76   A    
C39   C41   A    
C1    C18   S    
C58   N4    T    
C40   H14   S    
C97   C98   A    
C19   C21   A    
C27   N1    A    
C10   C88   S    
C55   H21   S    
C65   C66   A    
C1    O1    A    
C85   N7    T    
C91   H44   S    
C56   H22   S    
C67   C68   A    
C45   H17   S    
C16   H4    S    
C37   C42   A    
C19   C26   A    
C36   C72   S    
C69   C70   A    
C3    C55   A    
C77   H36   S    
C43   C53   A    
C96   C97   A    
C44   C46   A    
C79   C80   A    
C7    C17   A    
C50   C52   A    
C89   C90   A    
C49   H19   S    
C70   H32   S    
C21   H5    S    
C61   H24   S    
O1    Zn1   S    
C40   C42   A    
C63   H26   S    
C80   H38   S    
C99   H51   S    
C23   O7    A    
C60   H23   S    
C4    C56   A    
C2    C17   S    
C29   C31   A    
C97   H49   S    
C33   C59   S    
C52   C54   A    
C61   C62   A    
C7    C9    A    
C65   C70   A    
C45   C47   A    
C39   H13   S    
C82   H40   S    
C5    C48   S    
C46   C48   A    
C6    C47   S    
C34   C65   S    
C82   C83   A    
C43   H15   S    
C13   C89   S    
C38   C41   A    
C4    C6    A    
C36   N2    A    
C57   N3    T    
C4    C23   S    
O5    Zn1   S    
C59   C64   A    
C11   C26   S    
C49   C51   A    
C79   C84   A    
C9    C87   S    
C8    C18   A    
C51   C53   A    
C52   C79   S    
C67   H29   S    
C14   C95   S    
C83   H41   S    
C50   H20   S    
C22   H6    S    
C43   C45   A    
C63   C64   A    
C66   C67   A    
C60   C61   A    
C8    C86   S    
C31   C33   A    
C64   H27   S    
C89   C94   A    
C90   C91   A    
C48   C50   A    
C9    C11   A    
C92   C93   A    
C73   C74   A    
C30   H10   S    
C10   C12   A    
C68   H30   S    
C29   H9    S    
C28   H8    S    
C16   C18   A    
C38   H12   S    
C94   H47   S    
C13   C15   A    
O6    Zn2   S    
C77   C78   A    
C51   C73   S    
C14   C16   A    
C35   C71   S    
C1    O3    A    
O4    Zn1   S    
C32   C41   S    
C81   H39   S    
C95   C96   A    
C54   H2    S    
C98   H50   S    
C15   C17   A    
O3    Zn2   S    
C21   C25   A    
C90   H43   S    
C53   H1    S    
C93   H46   S    
C15   H3    S    
C24   O8    A    
C19   C57   S    
C20   C22   A    
C83   C84   A    
C3    C5    A    
C72   N6    T    
C100  H52   S    
C47   C49   A    
C81   C82   A    
O2    Zn2   S    
C12   C25   S    
C28   C30   A    
C96   H48   S    
C12   C14   A    
C23   O5    A    
C92   H45   S    
C37   C39   A    
C71   N5    T    
C30   C32   A    
C11   C13   A    
C75   H34   S    
C80   C81   A    
C99   C100  A    
C78   H37   S    
C37   H11   S    
C35   N1    A    
C33   C35   A    
C76   H35   S    
C44   H16   S    
C34   C36   A    
N2    Zn2   S    
C28   N2    A    
N1    Zn1   S    
C2    O2    A    
C22   C26   A    
C95   C100  A    
C44   C54   A    
C73   C78   A    
O8    Zn1   S    
C8    C10   A    
C62   C63   A    
C20   C25   A    
O7    Zn2   S    
C68   C69   A    
C93   C94   A    
C74   C75   A    
C27   H7    S    
C91   C92   A    
C88   N10   T    
C24   O6    A    
C69   H31   S    
C62   H25   S    
C32   C34   A    
C76   C77   A    
