data_mof_unit_60832.cif
_audit_creation_date              2012-12-10T18:13:21-0500
_audit_creation_method            fapswitch 2.2
_symmetry_space_group_name_H-M    P1
_symmetry_Int_Tables_number       1
_space_group_crystal_system       monoclinic
_cell_length_a                    36.298101
_cell_length_b                    29.168006
_cell_length_c                    21.527733
_cell_angle_alpha                 90.0
_cell_angle_beta                  126.502581
_cell_angle_gamma                 90.0
_cell_volume                      18321.1693643

loop_
_atom_site_label
_atom_site_type_symbol
_atom_type_description
_atom_site_fract_x
_atom_site_fract_y
_atom_site_fract_z
_atom_type_partial_charge
C1    C     C_R   0.913237 0.000000 0.913329 0.906967
C2    C     C_1   0.229465 0.000000 0.229296 0.002222
C3    C     C_3   0.450820 0.500001 0.233683 -0.379298
C4    C     C_1   0.862566 0.000000 0.862679 -0.235942
C5    C     C_1   0.137434 0.000000 0.137321 -0.235943
C6    C     C_1   0.362566 0.500000 0.862679 -0.235943
C7    C     C_1   0.637434 0.500000 0.137321 -0.235943
C8    C     C_1   0.270534 0.500000 0.770704 0.002222
C9    C     C_1   0.729465 0.500000 0.229296 0.002222
C10   C     C_1   0.728329 1.000000 0.728517 0.001890
C11   C     C_1   0.271671 0.000000 0.271483 0.001890
C12   C     C_1   0.228329 0.500000 0.728517 0.001890
C13   C     C_1   0.771671 0.500000 0.271483 0.001890
C14   C     C_1   0.678502 0.000000 0.678691 0.000573
C15   C     C_1   0.321498 0.000000 0.321309 0.000573
C16   C     C_1   0.178502 0.500000 0.678691 0.000573
C17   C     C_R   0.086763 0.000000 0.086671 0.906967
C18   C     C_1   0.821498 0.500000 0.321309 0.000573
C19   C     C_1   0.636295 1.000000 0.636453 -0.204236
C20   C     C_1   0.363705 0.000000 0.363547 -0.204236
C21   C     C_1   0.136295 0.500000 0.636453 -0.204236
C22   C     C_1   0.863705 0.500000 0.363547 -0.204236
C23   C     C_R   1.000000 0.913258 0.500000 0.908126
C24   C     C_R   0.000000 0.086742 0.500000 0.908119
C25   C     C_R   0.500000 0.413258 0.500000 0.908115
C26   C     C_R   0.500000 0.586742 0.500000 0.908130
C27   C     C_R   0.000062 0.000003 0.622648 0.858711
C28   C     C_R   0.413237 0.500000 0.913329 0.906969
C29   C     C_R   0.999938 0.999999 0.377352 0.858710
C30   C     C_R   0.500062 0.499996 0.622648 0.858711
C31   C     C_R   0.499938 0.500000 0.377352 0.858711
C32   C     C_R   0.500000 0.085624 0.500000 0.878840
C33   C     C_R   0.500000 0.914376 0.500000 0.878840
C34   C     C_R   1.000000 0.585624 0.500000 0.878840
C35   C     C_R   0.000000 0.414376 0.500000 0.878840
C36   C     C_R   0.585617 1.000000 0.585669 0.878558
C37   C     C_R   0.414383 0.000000 0.414331 0.878558
C38   C     C_R   0.085617 0.500000 0.585669 0.878558
C39   C     C_R   0.586763 0.500000 0.086671 0.906965
C40   C     C_R   0.914383 0.500000 0.414331 0.878558
C41   C     C_1   1.000000 0.862586 0.500000 -0.236015
C42   C     C_1   0.000000 0.137414 0.500000 -0.236014
C43   C     C_1   0.500000 0.362586 0.500000 -0.236013
C44   C     C_1   0.500000 0.637414 0.500000 -0.236016
C45   C     C_R   0.996007 1.000000 0.873721 0.854489
C46   C     C_R   0.003992 0.000000 0.126279 0.854489
C47   C     C_R   0.496007 0.500000 0.873721 0.854488
C48   C     C_R   0.503993 0.500000 0.126279 0.854488
C49   C     C_1   0.000000 0.820377 0.500000 -0.001992
C50   C     C_1   0.820361 0.000000 0.820500 -0.001938
C51   C     C_1   0.000000 0.179623 0.500000 -0.001992
C52   C     C_1   0.500000 0.320377 0.500000 -0.001993
C53   C     C_1   0.500000 0.679623 0.500000 -0.001991
C54   C     C_1   0.000000 0.770550 0.500000 0.002307
C55   C     C_1   0.000000 0.229450 0.500000 0.002307
C56   C     C_1   0.500000 0.270550 0.500000 0.002307
C57   C     C_1   0.500000 0.729450 0.500000 0.002307
C58   C     C_1   0.500000 0.228341 0.500000 0.001941
C59   C     C_1   0.500000 0.771659 0.500000 0.001941
C60   C     C_1   1.000000 0.728341 0.500000 0.001941
C61   C     C_1   0.179639 0.000000 0.179500 -0.001937
C62   C     C_1   0.000000 0.271659 0.500000 0.001941
C63   C     C_1   0.500000 0.178513 0.500000 0.000476
C64   C     C_1   0.500000 0.821487 0.500000 0.000476
C65   C     C_1   1.000000 0.678513 0.500000 0.000476
C66   C     C_1   0.000000 0.321487 0.500000 0.000476
C67   C     C_1   0.500000 0.136302 0.500000 -0.204266
C68   C     C_1   0.500000 0.863698 0.500000 -0.204266
C69   C     C_1   1.000000 0.636302 0.500000 -0.204266
C70   C     C_1   0.000000 0.363698 0.500000 -0.204266
C71   C     C_3   0.972577 0.956682 0.757072 -0.391718
C72   C     C_1   0.320361 0.500000 0.820500 -0.001938
C73   C     C_3   0.027434 0.043312 0.242939 -0.391734
C74   C     C_3   0.027453 0.956699 0.242957 -0.391753
C75   C     C_3   0.972534 0.043295 0.757031 -0.391771
C76   C     C_3   0.472527 0.456709 0.757024 -0.391777
C77   C     C_3   0.527445 0.543306 0.242950 -0.391745
C78   C     C_3   0.527444 0.456693 0.242948 -0.391745
C79   C     C_3   0.472585 0.543322 0.757079 -0.391712
C80   C     C_3   0.974217 0.956698 0.687500 -0.402437
C81   C     C_3   0.025794 0.043297 0.312510 -0.402431
C82   C     C_3   0.025811 0.956710 0.312526 -0.402422
C83   C     C_1   0.679639 0.500000 0.179500 -0.001937
C84   C     C_3   0.974178 0.043285 0.687464 -0.402414
C85   C     C_3   0.474172 0.456718 0.687459 -0.402413
C86   C     C_3   0.525803 0.543293 0.312519 -0.402425
C87   C     C_3   0.525802 0.456706 0.312517 -0.402425
C88   C     C_3   0.474222 0.543305 0.687505 -0.402441
C89   C     C_3   0.047529 0.000026 0.835919 -0.400322
C90   C     C_3   0.952471 0.999988 0.164081 -0.400325
C91   C     C_3   0.547529 0.499966 0.835919 -0.400322
C92   C     C_3   0.452471 0.500001 0.164081 -0.400319
C93   C     C_3   0.997081 0.000000 0.807262 0.167803
C94   C     C_1   0.770535 0.000000 0.770704 0.002222
C95   C     C_3   0.002919 1.000000 0.192737 0.167799
C96   C     C_3   0.497081 0.500000 0.807262 0.167802
C97   C     C_3   0.502919 0.500000 0.192738 0.167804
C98   C     C_3   0.999687 0.000003 0.689850 0.164151
C99   C     C_3   0.000313 0.999999 0.310150 0.164150
C100  C     C_3   0.499687 0.499996 0.689850 0.164150
C101  C     C_3   0.500313 0.500000 0.310150 0.164151
C102  C     C_3   0.049180 0.000024 0.766317 -0.379297
C103  C     C_3   0.950820 0.999989 0.233683 -0.379296
C104  C     C_3   0.549180 0.499968 0.766317 -0.379297
H1    H     H_    0.989476 0.924986 0.791506 0.184788
H2    H     H_    0.063734 0.043993 0.263426 0.157611
H3    H     H_    0.063755 0.956035 0.263448 0.157605
H4    H     H_    0.936233 0.043948 0.736538 0.157601
H5    H     H_    0.436225 0.456063 0.736530 0.157599
H6    H     H_    0.563746 0.543978 0.263439 0.157606
H7    H     H_    0.563745 0.456020 0.263438 0.157607
H8    H     H_    0.436285 0.544021 0.736594 0.157616
H9    H     H_    0.938598 0.955826 0.633250 0.180397
H10   H     H_    0.061413 0.044161 0.366761 0.180401
H11   H     H_    0.061429 0.955858 0.366778 0.180405
H12   H     H_    0.010545 0.075011 0.208513 0.184789
H13   H     H_    0.938560 0.044129 0.633211 0.180408
H14   H     H_    0.438554 0.455878 0.633205 0.180410
H15   H     H_    0.561422 0.544151 0.366771 0.180403
H16   H     H_    0.561420 0.455847 0.366769 0.180402
H17   H     H_    0.438603 0.544181 0.633256 0.180396
H18   H     H_    0.992020 0.925268 0.688623 0.156411
H19   H     H_    0.007998 0.074732 0.311393 0.156410
H20   H     H_    0.008026 0.925269 0.311416 0.156409
H21   H     H_    0.991956 0.074731 0.688568 0.156407
H22   H     H_    0.491946 0.425269 0.688560 0.156408
H23   H     H_    0.010580 0.924992 0.208545 0.184788
H24   H     H_    0.508013 0.574732 0.311406 0.156408
H25   H     H_    0.508011 0.425268 0.311403 0.156409
H26   H     H_    0.492029 0.574732 0.688631 0.156411
H27   H     H_    0.065715 0.969243 0.872281 0.168409
H28   H     H_    0.934294 0.030776 0.127729 0.168418
H29   H     H_    0.934308 0.969191 0.127746 0.168433
H30   H     H_    0.065683 0.030828 0.872245 0.168441
H31   H     H_    0.565678 0.469160 0.872239 0.168447
H32   H     H_    0.434301 0.530794 0.127737 0.168425
H33   H     H_    0.434300 0.469208 0.127736 0.168425
H34   H     H_    0.989398 0.075007 0.791436 0.184789
H35   H     H_    0.565720 0.530745 0.872287 0.168404
H36   H     H_    0.068206 0.969211 0.769062 0.173672
H37   H     H_    0.931802 0.030807 0.230947 0.173664
H38   H     H_    0.931813 0.969165 0.230960 0.173651
H39   H     H_    0.068180 0.030853 0.769032 0.173643
H40   H     H_    0.568176 0.469137 0.769027 0.173638
H41   H     H_    0.431808 0.530822 0.230953 0.173656
H42   H     H_    0.431806 0.469180 0.230952 0.173658
H43   H     H_    0.568210 0.530779 0.769066 0.173677
H44   H     H_    0.489385 0.424994 0.791424 0.184789
H45   H     H_    0.510564 0.575010 0.208531 0.184788
H46   H     H_    0.510562 0.424989 0.208528 0.184788
H47   H     H_    0.489489 0.575015 0.791517 0.184788
H48   H     H_    0.936277 0.955989 0.736585 0.157613
O1    O     O_R   0.936850 0.964330 0.936870 -0.599546
O2    O     O_R   0.000010 0.035670 0.092610 -0.623787
O3    O     O_R   0.000010 0.964330 0.092610 -0.623785
O4    O     O_R   0.999990 0.035670 0.907390 -0.623785
O5    O     O_R   0.499990 0.464330 0.907390 -0.623784
O6    O     O_R   0.500010 0.535670 0.092610 -0.623786
O7    O     O_R   0.500010 0.464330 0.092610 -0.623785
O8    O     O_R   0.499990 0.535670 0.907390 -0.623787
O9    O     O_R   0.964320 0.936860 0.464320 -0.599283
O10   O     O_R   0.035680 0.063140 0.535680 -0.599285
O11   O     O_R   0.035680 0.936860 0.535680 -0.599283
O12   O     O_R   0.063150 0.035670 0.063130 -0.599545
O13   O     O_R   0.964320 0.063140 0.464320 -0.599284
O14   O     O_R   0.464320 0.436860 0.464320 -0.599286
O15   O     O_R   0.535680 0.563140 0.535680 -0.599282
O16   O     O_R   0.535680 0.436860 0.535680 -0.599287
O17   O     O_R   0.464320 0.563140 0.464320 -0.599281
O18   O     O_R   0.964330 1.000000 0.556950 -0.624553
O19   O     O_R   0.035670 0.000000 0.443050 -0.624553
O20   O     O_R   0.464330 0.500000 0.556950 -0.624553
O21   O     O_R   0.535670 0.500000 0.443050 -0.624554
O22   O     O_R   0.035630 1.000000 0.628230 -0.625343
O23   O     O_R   0.063150 0.964330 0.063130 -0.599544
O24   O     O_R   0.964370 1.000000 0.371770 -0.625343
O25   O     O_R   0.535630 0.500000 0.628230 -0.625343
O26   O     O_R   0.464370 0.500000 0.371770 -0.625343
O27   O     O_R   0.499940 0.063120 0.447680 -0.592627
O28   O     O_R   0.500060 0.936880 0.552320 -0.592627
O29   O     O_R   0.500060 0.063120 0.552320 -0.592627
O30   O     O_R   0.499940 0.936880 0.447680 -0.592627
O31   O     O_R   0.999940 0.563120 0.447680 -0.592627
O32   O     O_R   0.000060 0.436880 0.552320 -0.592627
O33   O     O_R   0.000060 0.563120 0.552320 -0.592627
O34   O     O_R   0.936850 0.035670 0.936870 -0.599546
O35   O     O_R   0.999940 0.436880 0.447680 -0.592627
O36   O     O_R   0.563110 1.000000 0.510830 -0.592765
O37   O     O_R   0.436890 0.000000 0.489170 -0.592764
O38   O     O_R   0.063110 0.500000 0.510830 -0.592765
O39   O     O_R   0.936890 0.500000 0.489170 -0.592764
O40   O     O_R   0.563120 1.000000 0.615390 -0.592433
O41   O     O_R   0.436880 1.000000 0.384610 -0.592434
O42   O     O_R   0.063120 0.500000 0.615390 -0.592433
O43   O     O_R   0.936880 0.500000 0.384610 -0.592434
O44   O     O_R   0.436850 0.464330 0.936870 -0.599545
O45   O     O_R   0.563150 0.535670 0.063130 -0.599545
O46   O     O_R   0.563150 0.464330 0.063130 -0.599545
O47   O     O_R   0.436850 0.535670 0.936870 -0.599546
O48   O     O_R   0.999990 0.964330 0.907390 -0.623787
Zn1   Zn    Zn3+2 0.000000 0.952370 0.000000 0.942235
Zn2   Zn    Zn3+2 0.500030 0.000000 0.569830 0.963796
Zn3   Zn    Zn3+2 0.999970 0.500000 0.430170 0.963795
Zn4   Zn    Zn3+2 0.000030 0.500000 0.569830 0.963796
Zn5   Zn    Zn3+2 0.000000 0.047630 0.000000 0.942235
Zn6   Zn    Zn3+2 0.500000 0.452370 0.000000 0.942235
Zn7   Zn    Zn3+2 0.500000 0.547630 0.000000 0.942235
Zn8   Zn    Zn3+2 0.952370 0.000000 0.452390 0.942267
Zn9   Zn    Zn3+2 0.047630 1.000000 0.547610 0.942267
Zn10  Zn    Zn3+2 0.452370 0.500000 0.452390 0.942267
Zn11  Zn    Zn3+2 0.547630 0.500000 0.547610 0.942267
Zn12  Zn    Zn3+2 0.499970 1.000000 0.430170 0.963795

loop_
_geom_bond_atom_site_label_1
_geom_bond_atom_site_label_2
_ccdc_geom_bond_type
C78   C87   S    
C37   O37   A    
C27   C98   S    
C16   C21   T    
O32   Zn4   S    
C30   C100  S    
C89   C102  S    
O46   Zn6   S    
O22   Zn9   S    
C24   C42   S    
C82   C99   S    
C99   C103  S    
O29   Zn2   S    
C104  H43   S    
C88   H26   S    
C91   C104  S    
C45   C93   S    
C25   C43   S    
C91   H31   S    
O11   Zn9   S    
C26   C44   S    
C90   C95   S    
C80   H18   S    
C1    O34   A    
C45   O48   A    
C6    C72   T    
C48   C97   S    
C88   C100  S    
C75   C93   S    
C59   C64   S    
C73   H12   S    
C13   C18   S    
C81   H19   S    
O6    Zn7   S    
C31   C101  S    
O33   Zn4   S    
C82   H11   S    
O20   Zn10  S    
O12   Zn5   S    
C31   O21   A    
O19   Zn9   S    
C43   C52   T    
C57   C59   T    
O43   Zn3   S    
C10   C94   T    
C49   C54   S    
C55   C62   T    
O35   Zn3   S    
C100  C104  S    
O26   Zn10  S    
C82   H20   S    
C9    C13   T    
C79   C88   S    
C7    C83   T    
C74   H3    S    
C87   C101  S    
C11   C15   S    
C44   C53   T    
C6    C28   S    
C46   C95   S    
C12   C16   S    
C35   C70   S    
O48   Zn1   S    
C38   O38   A    
C81   H10   S    
C47   C96   S    
C104  H40   S    
O9    Zn8   S    
C77   C97   S    
C86   H15   S    
O1    Zn1   S    
C2    C61   S    
C42   C51   T    
C90   H28   S    
C3    C101  S    
C91   C96   S    
C22   C40   S    
C75   H4    S    
C36   O40   A    
C33   O28   A    
C89   C93   S    
O16   Zn11  S    
C85   H22   S    
O21   Zn11  S    
C74   C82   S    
C74   H23   S    
C92   H33   S    
C103  H37   S    
C27   O22   A    
C41   C49   T    
C71   C80   S    
C92   C97   S    
C23   O11   A    
C47   O8    A    
C25   O16   A    
C15   C20   T    
C46   O2    A    
C48   O7    A    
C63   C67   T    
C26   O15   A    
C8    C72   S    
C28   O47   A    
C21   C38   S    
C31   O26   A    
C86   H24   S    
C32   O29   A    
C62   C66   S    
C26   O17   A    
O47   Zn7   S    
C10   C14   S    
C77   H45   S    
C90   H29   S    
C29   C99   S    
C76   H5    S    
O41   Zn12  S    
C54   C60   T    
C81   C99   S    
C35   O32   A    
C98   C102  S    
C48   O6    A    
O27   Zn12  S    
C29   O19   A    
C39   O45   A    
C38   O42   A    
C4    C50   T    
C3    C92   S    
C36   O36   A    
C37   O41   A    
C34   O33   A    
O18   Zn8   S    
C46   O3    A    
C17   O12   A    
C71   H48   S    
C34   C69   S    
C8    C12   T    
O42   Zn4   S    
C78   C97   S    
O30   Zn12  S    
C5    C61   T    
C34   O31   A    
C32   O27   A    
C45   O4    A    
C102  H36   S    
C92   H32   S    
C1    O1    A    
O4    Zn5   S    
C27   O18   A    
C30   O20   A    
C78   H7    S    
C73   C81   S    
C32   C67   S    
C91   H35   S    
C79   H8    S    
C39   O46   A    
C9    C83   S    
C60   C65   S    
C3    H41   S    
C71   H1    S    
O24   Zn8   S    
C25   O14   A    
O45   Zn7   S    
C102  H39   S    
C73   C95   S    
C29   O24   A    
C103  H38   S    
C64   C68   T    
C74   C95   S    
C78   H46   S    
O7    Zn6   S    
C79   H47   S    
C47   O5    A    
O23   Zn1   S    
C84   H21   S    
C53   C57   S    
C89   H30   S    
O34   Zn5   S    
C80   C98   S    
C18   C22   T    
C14   C19   T    
C24   O10   A    
O5    Zn6   S    
C58   C63   S    
C88   H17   S    
C75   H34   S    
C89   H27   S    
C77   C86   S    
C77   H6    S    
C71   C93   S    
O10   Zn9   S    
O37   Zn2   S    
C50   C94   S    
O28   Zn2   S    
C23   C41   S    
C7    C39   S    
C19   C36   S    
C1    C4    S    
C84   C98   S    
C87   H25   S    
C24   O13   A    
O31   Zn3   S    
C87   H16   S    
C85   C100  S    
O14   Zn10  S    
O8    Zn7   S    
C20   C37   S    
O36   Zn12  S    
O25   Zn11  S    
C73   H2    S    
C66   C70   T    
C40   O39   A    
C65   C69   T    
O17   Zn10  S    
C28   O44   A    
C30   O25   A    
C56   C58   T    
C51   C55   S    
O44   Zn6   S    
C85   H14   S    
C75   C84   S    
O13   Zn8   S    
C90   C103  S    
O2    Zn5   S    
C84   H13   S    
O15   Zn11  S    
C52   C56   S    
C79   C96   S    
C5    C17   S    
C80   H9    S    
C76   H44   S    
C3    H42   S    
C35   O35   A    
O38   Zn3   S    
O39   Zn4   S    
C33   O30   A    
O40   Zn2   S    
C2    C11   T    
O3    Zn1   S    
C86   C101  S    
C76   C85   S    
C76   C96   S    
C17   O23   A    
C33   C68   S    
C23   O9    A    
C40   O43   A    
