data_mof_unit_7378.cif
_audit_creation_date              2013-03-05T16:06:13-0500
_audit_creation_method            fapswitch 2.2
_symmetry_space_group_name_H-M    P1
_symmetry_Int_Tables_number       1
_space_group_crystal_system       triclinic
_cell_length_a                    6.925535
_cell_length_b                    28.806039
_cell_length_c                    32.122026
_cell_angle_alpha                 100.918659
_cell_angle_beta                  89.703138
_cell_angle_gamma                 90.333516
_cell_volume                      6292.0862299

loop_
_atom_site_label
_atom_site_type_symbol
_atom_site_description
_atom_site_fract_x
_atom_site_fract_y
_atom_site_fract_z
_atom_type_partial_charge
O1    O     O_R   0.494350 0.453170 0.452520 -0.594244
O2    O     O_R   0.820980 0.455850 0.538220 -0.596488
O3    O     O_R   0.994300 0.546830 0.547480 -0.592322
C1    C     C_R   0.651658 0.445700 0.551667 0.941977
O4    O     O_R   0.823860 0.447590 0.452270 -0.596790
O5    O     O_R   0.997200 0.538510 0.460920 -0.594599
C2    C     C_R   0.655102 0.434717 0.436652 0.935705
O6    O     O_R   0.491440 0.461490 0.539080 -0.593791
O7    O     O_3   0.661790 0.529840 0.502940 -0.271968
V1    V     V_3+5 0.935470 0.494460 0.499450 1.156717
O8    O     O_R   0.327090 0.544150 0.461780 -0.596537
C3    C     C_R   0.158723 0.554345 0.448264 0.967720
O9    O     O_R   0.324210 0.552410 0.547730 -0.598873
C4    C     C_R   0.155251 0.565354 0.563393 0.955765
V2    V     V_3+5 0.435840 0.505540 0.500550 1.157231
O10   O     O_3   0.159650 0.470160 0.497060 -0.273961
C5    C     C_R   0.177929 0.899322 0.865849 0.597873
C6    C     C_R   0.180594 0.864410 0.828690 -0.275770
H1    H     H_    0.277270 0.868605 0.803035 0.145711
C7    C     C_R   0.062074 0.824210 0.824602 0.006604
C8    C     C_R   0.936386 0.819706 0.858011 -0.235754
H2    H     H_    0.845402 0.788568 0.855280 0.177922
C9    C     C_R   0.927470 0.854614 0.895163 0.301156
C10   C     C_R   0.046977 0.895456 0.899033 -0.471873
C11   C     C_R   0.072400 0.798159 0.745177 -0.158017
H3    H     H_    0.059802 0.834660 0.741630 0.125680
C12   C     C_R   0.086672 0.762768 0.708751 -0.121960
H4    H     H_    0.086235 0.772568 0.677823 0.121410
C13   C     C_R   0.105375 0.715152 0.712223 0.176952
C14   C     C_R   0.104464 0.703356 0.752680 -0.029850
H5    H     H_    0.117840 0.666797 0.756014 0.129833
C15   C     C_R   0.087199 0.738652 0.789096 -0.151272
H6    H     H_    0.089249 0.728636 0.819927 0.139745
C16   C     C_R   0.072768 0.786528 0.785795 0.159344
C17   C     C_R   0.297706 0.650849 0.664685 0.367703
C18   C     C_R   0.304974 0.614448 0.628507 -0.266726
H7    H     H_    0.436021 0.594030 0.621601 0.172418
C19   C     C_R   0.145672 0.604164 0.601259 -0.179381
C20   C     C_R   0.977413 0.631209 0.610527 -0.131495
H8    H     H_    0.852357 0.624316 0.590134 0.137492
C21   C     C_R   0.968904 0.667836 0.645967 -0.094683
H9    H     H_    0.837194 0.688094 0.652269 0.172216
C22   C     C_R   0.126455 0.677801 0.673624 -0.088860
C23   C     C_R   0.115116 0.656739 0.283164 0.623779
N1    N     N_R   0.133445 0.677039 0.325253 -0.171073
C24   C     C_R   0.150585 0.725133 0.337629 0.526879
C25   C     C_R   0.146062 0.754808 0.307468 -0.014586
C26   C     C_R   0.118641 0.734728 0.264342 -0.054836
C27   C     C_R   0.101251 0.685168 0.251768 -0.245980
C28   C     C_R   0.165830 0.804134 0.319563 -0.114370
C29   C     C_R   0.157745 0.833218 0.289399 -0.110055
C30   C     C_R   0.127740 0.813811 0.246374 -0.052989
C31   C     C_R   0.107863 0.764438 0.233831 -0.001547
C32   C     C_R   0.077145 0.744826 0.190855 -0.116998
C33   C     C_R   0.058938 0.695594 0.178533 -0.266125
C34   C     C_R   0.067515 0.665812 0.208417 0.619711
C35   C     C_R   0.116743 0.842640 0.215533 0.508959
N2    N     N_R   0.082624 0.823125 0.173774 -0.177074
C36   C     C_R   0.063295 0.775041 0.161166 0.509403
O11   O     O_2   0.109875 0.609212 0.271909 -0.482455
O12   O     O_2   0.169750 0.744319 0.379106 -0.551908
H10   H     H_    0.187549 0.820501 0.352448 0.173317
H11   H     H_    0.173635 0.871030 0.300002 0.175392
O13   O     O_2   0.141228 0.889800 0.227245 -0.532842
O14   O     O_2   0.028283 0.756439 0.120099 -0.532129
H12   H     H_    0.036639 0.679736 0.145534 0.199949
C37   C     C_R   0.198680 0.849510 0.108975 -0.176474
H13   H     H_    0.312637 0.823516 0.105943 0.158146
C38   C     C_R   0.188193 0.879591 0.079559 -0.125343
H14   H     H_    0.294474 0.876214 0.054317 0.160869
C39   C     C_R   0.040918 0.913354 0.082391 -0.161614
C40   C     C_R   0.904809 0.916642 0.115394 -0.351680
H15   H     H_    0.792583 0.943139 0.118530 0.147190
C41   C     C_R   0.916503 0.886972 0.145527 0.707451
C42   C     C_R   0.066202 0.853484 0.142717 0.043854
C43   C     C_R   0.301343 0.644393 0.380749 -0.013631
H16   H     H_    0.426607 0.665456 0.376163 0.184461
C44   C     C_R   0.310262 0.614208 0.410066 -0.143171
H17   H     H_    0.442905 0.612765 0.427477 0.144741
C45   C     C_R   0.149884 0.586541 0.417015 -0.188871
C46   C     C_R   0.980259 0.589863 0.393808 -0.289069
H18   H     H_    0.854758 0.569037 0.398981 0.177565
C47   C     C_R   0.969700 0.619926 0.363966 0.409713
C48   C     C_R   0.133557 0.647313 0.357036 0.044025
C49   C     C_R   0.726105 0.210681 0.829178 0.581112
N3    N     N_R   0.577686 0.178495 0.827214 -0.188234
C50   C     C_R   0.437337 0.175670 0.796913 0.485342
C51   C     C_R   0.442105 0.205738 0.767213 0.051999
C52   C     C_R   0.593008 0.239193 0.768707 -0.008941
C53   C     C_R   0.735544 0.242715 0.800508 -0.271665
C54   C     C_R   0.298423 0.202997 0.736122 -0.134380
C55   C     C_R   0.305840 0.232176 0.706196 -0.113912
C56   C     C_R   0.457354 0.264834 0.706479 0.036392
C57   C     C_R   0.600748 0.268821 0.738068 -0.057874
C58   C     C_R   0.751200 0.302156 0.738808 -0.266834
C59   C     C_R   0.888930 0.307358 0.771911 0.493127
C60   C     C_R   0.882636 0.277699 0.802255 0.237401
C61   C     C_R   0.468682 0.293462 0.675612 0.479880
N4    N     N_R   0.616690 0.325377 0.676116 -0.188156
C62   C     C_R   0.756917 0.329987 0.706746 0.539595
O15   O     O_2   0.864016 0.211395 0.858741 -0.493948
O16   O     O_2   0.294659 0.143222 0.795014 -0.564887
H19   H     H_    0.179616 0.178124 0.734679 0.162474
H20   H     H_    0.192617 0.228819 0.682657 0.162882
O17   O     O_2   0.334002 0.288793 0.644856 -0.565144
O18   O     O_2   0.900637 0.361678 0.706264 -0.520293
C63   C     C_R   0.788389 0.355206 0.618375 -0.061541
H21   H     H_    0.909907 0.332667 0.621581 0.156124
C64   C     C_R   0.797616 0.384717 0.588435 -0.183959
H22   H     H_    0.927019 0.384430 0.569305 0.140250
C65   C     C_R   0.640977 0.413876 0.583011 -0.132292
C66   C     C_R   0.475199 0.412897 0.608355 -0.179646
H23   H     H_    0.352533 0.435108 0.605177 0.139164
C67   C     C_R   0.467651 0.384077 0.638875 -0.052597
H24   H     H_    0.340160 0.384752 0.658647 0.157465
C68   C     C_R   0.624063 0.354879 0.644212 0.178322
C69   C     C_R   0.722551 0.116901 0.861765 -0.061338
H25   H     H_    0.849359 0.116263 0.841799 0.149103
C70   C     C_R   0.714084 0.087152 0.891527 -0.171868
H26   H     H_    0.835285 0.064223 0.893945 0.137198
C71   C     C_R   0.549519 0.086390 0.917266 -0.133147
C72   C     C_R   0.394450 0.116383 0.912799 -0.140278
H27   H     H_    0.265989 0.116806 0.932244 0.164854
C73   C     C_R   0.404618 0.146773 0.883623 -0.027564
H28   H     H_    0.284718 0.170094 0.881258 0.174489
C74   C     C_R   0.568359 0.147234 0.857653 0.171093
C75   C     C_R   0.703535 0.106621 0.128235 -0.100228
H29   H     H_    0.815710 0.080117 0.122069 0.141551
C76   C     C_R   0.717057 0.141524 0.164796 -0.092809
H30   H     H_    0.839372 0.141245 0.185622 0.116442
C77   C     C_R   0.572784 0.175817 0.174874 0.091428
C78   C     C_R   0.415646 0.174857 0.147258 -0.257784
H31   H     H_    0.306631 0.202106 0.154044 0.160886
C79   C     C_R   0.402929 0.140790 0.109625 0.364801
C80   C     C_R   0.546892 0.105335 0.100282 -0.305202
C81   C     C_R   0.427338 0.226060 0.239841 -0.139287
H32   H     H_    0.290229 0.208113 0.232666 0.135889
C82   C     C_R   0.442224 0.261283 0.276203 -0.203020
H33   H     H_    0.316190 0.269231 0.296317 0.177509
C83   C     C_R   0.617562 0.285497 0.286921 -0.091792
C84   C     C_R   0.779154 0.273595 0.259857 0.614757
C85   C     C_R   0.764411 0.237011 0.224166 -0.312800
H34   H     H_    0.890193 0.228032 0.204120 0.153549
C86   C     C_R   0.588445 0.213337 0.213556 0.066125
C87   C     C_R   0.788970 0.328050 0.352686 -0.071032
H35   H     H_    0.907016 0.303203 0.346578 0.143199
C88   C     C_R   0.798683 0.364318 0.388448 -0.194575
H36   H     H_    0.925308 0.366917 0.408421 0.136189
C89   C     C_R   0.645220 0.396223 0.398752 -0.126545
C90   C     C_R   0.482248 0.391142 0.372339 -0.137475
H37   H     H_    0.361886 0.415261 0.379266 0.135573
C91   C     C_R   0.474313 0.355513 0.336103 -0.164793
H38   H     H_    0.348500 0.353371 0.315951 0.135215
C92   C     C_R   0.627814 0.323537 0.325650 0.149870
O19   O     O_R   0.699170 0.038480 0.960880 -0.606171
O20   O     O_R   0.366800 0.052460 0.047690 -0.571638
O21   O     O_R   0.193520 0.961530 0.039110 -0.613691
C93   C     C_R   0.535779 0.066140 0.062729 0.994012
O22   O     O_R   0.369630 0.044100 0.961740 -0.578491
O23   O     O_R   0.196370 0.953120 0.952550 -0.575140
C94   C     C_R   0.538911 0.054253 0.948307 0.967360
O24   O     O_R   0.696320 0.046890 0.047450 -0.593275
O25   O     O_3   0.528890 0.970170 0.997080 -0.272800
V3    V     V_3+5 0.255190 0.005530 0.000540 1.231134
O26   O     O_R   0.866460 0.947530 0.952310 -0.600286
C95   C     C_R   0.035657 0.934409 0.936848 1.075626
O27   O     O_R   0.863630 0.955880 0.038270 -0.579590
C96   C     C_R   0.032014 0.945683 0.051593 0.995184
V4    V     V_3+5 0.754830 0.994440 0.999470 1.210277
O28   O     O_3   0.031000 0.029830 0.002920 -0.257170
O29   O     O_3   0.290291 0.939636 0.868113 -0.635997
C97   C     C_3   0.485120 0.928129 0.873651 -0.117909
H39   H     H_    0.503569 0.911643 0.902042 0.171358
H40   H     H_    0.571833 0.961212 0.878886 0.134207
H41   H     H_    0.544007 0.904636 0.844971 0.116808
O30   O     O_3   0.049136 0.617561 0.194511 -0.585983
C98   C     C_3   0.851013 0.606358 0.189497 -0.043511
H42   H     H_    0.769543 0.617892 0.219652 0.154127
H43   H     H_    0.835461 0.567404 0.180499 0.176007
H44   H     H_    0.786707 0.622033 0.163679 0.100691
O31   O     O_3   0.790294 0.892771 0.179552 -0.594954
C99   C     C_3   0.610439 0.873024 0.165461 -0.228625
H45   H     H_    0.624389 0.835291 0.149587 0.128309
H46   H     H_    0.540318 0.894007 0.144109 0.145980
H47   H     H_    0.514895 0.874075 0.193408 0.205911
N5    N     N_R   0.792316 0.622362 0.341313 0.227119
O32   O     O_R   0.741995 0.661197 0.329244 -0.453614
O33   O     O_R   0.673725 0.586527 0.334952 -0.398335
O34   O     O_3   0.034506 0.340925 0.774563 -0.562601
C100  C     C_3   0.971518 0.382865 0.801230 0.006719
H48   H     H_    0.951572 0.377783 0.834423 0.135413
H49   H     H_    0.835540 0.396278 0.789538 0.115260
H50   H     H_    0.084011 0.410484 0.801462 0.154169
N6    N     N_R   0.022530 0.285372 0.835711 0.275724
O35   O     O_R   0.967309 0.302572 0.874311 -0.325979
O36   O     O_R   0.205843 0.284557 0.826610 -0.367534
N7    N     N_R   0.802397 0.846936 0.929131 0.242076
O37   O     O_R   0.862795 0.855992 0.968142 -0.395679
O38   O     O_R   0.639866 0.824281 0.920703 -0.399588
N8    N     N_R   0.249805 0.144575 0.080443 0.240155
O39   O     O_R   0.288426 0.142346 0.040418 -0.384956
O40   O     O_R   0.079907 0.158913 0.094697 -0.406496
O41   O     O_3   0.953891 0.296669 0.268644 -0.660292
C101  C     C_3   0.969370 0.332199 0.244081 -0.235858
H51   H     H_    0.850060 0.358275 0.251375 0.152513
H52   H     H_    0.972895 0.316798 0.209589 0.156507
H53   H     H_    0.107255 0.351558 0.252017 0.175537
N9    N     N_R   0.465481 0.660165 0.691352 0.218640
O42   O     O_R   0.586876 0.626414 0.693596 -0.413100
O43   O     O_R   0.508507 0.703041 0.710130 -0.425516

loop_
_geom_bond_atom_site_label_1
_geom_bond_atom_site_label_2
_geom_bond_distance
_ccdc_geom_bond_type
C23   C27   1.418378 A    
C60   N6    1.435536 S    
N6    O36   1.300633 A    
O29   C97   1.411446 S    
C100  H48   1.111203 S    
C12   C13   1.403816 A    
C69   H25   1.082972 S    
C21   C22   1.404272 A    
V4    O28   2.155546 S    
C32   C33   1.403417 A    
V3    O28   1.702250 S    
C58   C59   1.418241 A    
C88   H36   1.083116 S    
C1    O6    1.296822 A    
C43   C48   1.404316 A    
C66   C67   1.400128 A    
C67   H24   1.083087 S    
C20   C21   1.399177 A    
C41   O31   1.381695 S    
O31   C99   1.407118 S    
O19   C94   1.296694 A    
C79   N8    1.437200 S    
O26   C95   1.300230 A    
C61   O17   1.349766 S    
C34   O30   1.382366 S    
O23   V3    1.984750 S    
C18   H7    1.083297 S    
C88   C89   1.405804 A    
C43   C44   1.399332 A    
C69   C70   1.400365 A    
O5    C3    1.297801 A    
C14   H5    1.083092 S    
C44   C45   1.404704 A    
N3    C74   1.450258 S    
V2    O10   2.155495 S    
C3    C45   1.491779 S    
C38   C39   1.404132 A    
C6    H1    1.083075 S    
C21   H9    1.083082 S    
C52   C57   1.420231 A    
N7    O38   1.301480 A    
C99   H45   1.114249 S    
C100  H50   1.109306 S    
C46   C47   1.410714 A    
C2    C89   1.484900 S    
O8    V2    1.974680 S    
C65   C66   1.407242 A    
N8    O39   1.301509 A    
C98   H43   1.109201 S    
C63   H21   1.083050 S    
O22   C94   1.297971 A    
C47   N5    1.439856 S    
O1    V2    1.984743 S    
O23   C95   1.295978 A    
C17   C22   1.419355 A    
C69   C74   1.406166 A    
C53   C60   1.422543 A    
C97   H41   1.111836 S    
C11   C16   1.407197 A    
C40   H15   1.083421 S    
C7    C16   1.491655 S    
N6    O35   1.301405 A    
C80   C93   1.489888 S    
O1    C2    1.296209 A    
C8    H2    1.083274 S    
C13   C22   1.486880 S    
N5    O33   1.301481 A    
C101  H51   1.113735 S    
C63   C64   1.400048 A    
N7    O37   1.301390 A    
C84   C85   1.406278 A    
O21   C96   1.295757 A    
C66   H23   1.083250 S    
C87   C88   1.400334 A    
C97   H40   1.109403 S    
N2    C42   1.451130 S    
C87   H35   1.082175 S    
C25   C28   1.406333 A    
C32   C36   1.411596 A    
C70   C71   1.407052 A    
O26   V4    1.985714 S    
C26   C31   1.420496 A    
C49   C53   1.422857 A    
C5    C10   1.415968 A    
C85   H34   1.083561 S    
C41   C42   1.411103 A    
C24   O12   1.349153 S    
C37   H13   1.082345 S    
C25   C26   1.409792 A    
C29   H11   1.083015 S    
C83   C84   1.416758 A    
C81   C82   1.398383 A    
C82   H33   1.082669 S    
N9    O42   1.301513 A    
C54   C55   1.392216 A    
O4    C2    1.298349 A    
C93   O24   1.297290 A    
C58   C62   1.420198 A    
C78   H31   1.083515 S    
C28   C29   1.397314 A    
C11   H3    1.082917 S    
C49   N3    1.373900 A    
C46   H18   1.083133 S    
C29   C30   1.405239 A    
O27   V4    1.974545 S    
C37   C38   1.400225 A    
C17   C18   1.410996 A    
C15   C16   1.407235 A    
C59   O34   1.384553 S    
C10   C95   1.491450 S    
C75   C76   1.396988 A    
C13   C14   1.404117 A    
C54   H19   1.083273 S    
C4    C19   1.489507 S    
C50   O16   1.349835 S    
O19   V4    1.975078 S    
C47   C48   1.418861 A    
C101  H53   1.109193 S    
C70   H26   1.083235 S    
C98   H44   1.112682 S    
C71   C94   1.484822 S    
C59   C60   1.412974 A    
C33   C34   1.405042 A    
C5    C6    1.407725 A    
C57   C58   1.410062 A    
C56   C57   1.412093 A    
C7    C8    1.402838 A    
O21   V3    1.976606 S    
C71   C72   1.407035 A    
O3    C4    1.297746 A    
C82   C83   1.408220 A    
N5    O32   1.301316 A    
C78   C79   1.408127 A    
C87   C92   1.407967 A    
C40   C41   1.410310 A    
C26   C27   1.412731 A    
C1    C65   1.485821 S    
C101  H52   1.112921 S    
C98   H42   1.114254 S    
O6    V2    1.973773 S    
C39   C96   1.483276 S    
C8    C9    1.408729 A    
O9    V2    1.985504 S    
C28   H10   1.083024 S    
C90   C91   1.399524 A    
N1    C48   1.451492 S    
C37   C42   1.404823 A    
C72   C73   1.399682 A    
C77   C78   1.404400 A    
O2    V1    1.980116 S    
O27   C96   1.298502 A    
C33   H12   1.083316 S    
C49   O15   1.347671 S    
C30   C31   1.408981 A    
N3    C50   1.370269 A    
C35   O13   1.349139 S    
C73   C74   1.405789 A    
C76   H30   1.083123 S    
C91   C92   1.407767 A    
O34   C100  1.412045 S    
C24   C25   1.408806 A    
O30   C98   1.410753 S    
C100  H49   1.113564 S    
C44   H17   1.083035 S    
C23   N1    1.373787 A    
C84   O41   1.381676 S    
C75   C80   1.407663 A    
C45   C46   1.407932 A    
O5    V1    1.976826 S    
C67   C68   1.406190 A    
O8    C3    1.300742 A    
C5    O29   1.384744 S    
C31   C32   1.405831 A    
C79   C80   1.421207 A    
C11   C12   1.402241 A    
C27   C34   1.418555 A    
C9    N7    1.438479 S    
C62   O18   1.348682 S    
C90   H37   1.083204 S    
N4    C62   1.373948 A    
C15   H6    1.082898 S    
O20   C93   1.298683 A    
N2    C36   1.373462 A    
O4    V1    1.985438 S    
C81   C86   1.403525 A    
O3    V1    1.984877 S    
V1    O10   1.702174 S    
C89   C90   1.405747 A    
C36   O14   1.349106 S    
C14   C15   1.402067 A    
C43   H16   1.081121 S    
C35   N2    1.373774 A    
C19   C20   1.404475 A    
O24   V4    1.985146 S    
C23   O11   1.348494 S    
O2    C1    1.298366 A    
C64   C65   1.407368 A    
C18   C19   1.406757 A    
C55   C56   1.404109 A    
O7    V1    2.149587 S    
C6    C7    1.401564 A    
O7    V2    1.706659 S    
C38   H14   1.083236 S    
O25   V4    1.706253 S    
C99   H46   1.111543 S    
C63   C68   1.406089 A    
O25   V3    2.149478 S    
C30   C35   1.410700 A    
C55   H20   1.083293 S    
C9    C10   1.420875 A    
C97   H39   1.113332 S    
C20   H8    1.083143 S    
N1    C24   1.371619 A    
C17   N9    1.440641 S    
C39   C40   1.404988 A    
C51   C52   1.412275 A    
O20   V3    1.985752 S    
C50   C51   1.404941 A    
N9    O43   1.301332 A    
C61   N4    1.371039 A    
C64   H22   1.083182 S    
C12   H4    1.083068 S    
C72   H27   1.083180 S    
O22   V3    1.979902 S    
C81   H32   1.083261 S    
C91   H38   1.082655 S    
O41   C101  1.409023 S    
C52   C53   1.413596 A    
O9    C4    1.299721 A    
C51   C54   1.404742 A    
C56   C61   1.406228 A    
C99   H47   1.108329 S    
N8    O40   1.301203 A    
C85   C86   1.404614 A    
C77   C86   1.488333 S    
C75   H29   1.083371 S    
N4    C68   1.450495 S    
C83   C92   1.495658 S    
C73   H28   1.083076 S    
C76   C77   1.402130 A    
