data_mof_unit_35906.cif
_audit_creation_date              2012-12-10T18:21:20-0500
_audit_creation_method            fapswitch 2.2
_symmetry_space_group_name_H-M    P1
_symmetry_Int_Tables_number       1
_space_group_crystal_system       triclinic
_cell_length_a                    14.991288
_cell_length_b                    14.158186
_cell_length_c                    10.785033
_cell_angle_alpha                 89.955919
_cell_angle_beta                  85.471205
_cell_angle_gamma                 88.862597
_cell_volume                      2281.51976663

loop_
_atom_site_label
_atom_site_type_symbol
_atom_type_description
_atom_site_fract_x
_atom_site_fract_y
_atom_site_fract_z
_atom_type_partial_charge
C1    C     C_R   0.326867 0.500769 0.498151 0.917418
C2    C     C_3   0.594489 0.518208 0.920495 -0.024459
C3    C     C_R   0.820257 0.454624 0.396247 -0.038858
C4    C     C_R   0.769057 0.498997 0.494807 -0.085054
C5    C     C_R   0.809126 0.550877 0.584219 -0.245011
C6    C     C_R   0.901496 0.556531 0.579238 0.133151
C7    C     C_R   0.954020 0.512739 0.480083 0.061602
C8    C     C_R   0.913245 0.464157 0.386309 -0.001278
C9    C     C_R   0.942029 0.604663 0.672316 -0.172369
C10   C     C_R   0.034700 0.606402 0.670157 -0.151960
C11   C     C_R   0.087272 0.560126 0.574804 0.116816
C12   C     C_R   0.495123 0.499955 0.258217 0.851584
C13   C     C_R   0.047378 0.515010 0.477038 0.012403
C14   C     C_R   0.100553 0.468846 0.379543 -0.046682
C15   C     C_R   0.058535 0.435326 0.274816 0.432560
C16   C     C_R   0.965998 0.429006 0.282757 -0.261465
C17   C     C_R   0.179217 0.556606 0.577468 -0.125122
C18   C     C_R   0.231216 0.503195 0.489860 -0.092291
C19   C     C_R   0.192069 0.454547 0.394900 -0.077568
C20   C     C_R   0.562108 0.795359 0.421521 -0.078309
C21   C     C_R   0.562668 0.201349 0.423416 -0.039395
C22   C     C_R   0.442206 0.802926 0.579272 0.497609
C23   C     C_R   0.447427 0.200057 0.589732 0.497208
C24   C     C_R   0.457462 0.899800 0.594620 -0.095287
C25   C     C_R   0.457013 0.099641 0.597388 -0.074789
C26   C     C_R   0.673001 0.499319 0.500145 0.856131
C27   C     C_R   0.512693 0.948698 0.506186 0.046558
C28   C     C_R   0.512550 0.049743 0.507305 0.038354
C29   C     C_R   0.566583 0.896449 0.417642 -0.043702
C30   C     C_R   0.567150 0.100184 0.419795 -0.062945
C31   C     C_R   0.417942 0.949305 0.696176 -0.096475
C32   C     C_R   0.413627 0.046467 0.695009 -0.050797
C33   C     C_R   0.624669 0.047743 0.332521 -0.049384
C34   C     C_R   0.623963 0.946705 0.331063 -0.029405
C35   C     C_R   0.498262 0.500355 0.742123 0.919712
C36   C     C_3   0.428935 0.580828 0.075698 0.248873
C37   C     C_3   0.457628 0.403094 0.071032 0.258485
C38   C     C_3   0.432011 0.579614 0.932440 -0.410749
C39   C     C_3   0.461204 0.407109 0.929371 -0.387828
C40   C     C_3   0.590956 0.515226 0.064579 -0.380762
C41   C     C_3   0.494098 0.499795 0.121481 -0.175695
C42   C     C_3   0.497717 0.501648 0.878644 -0.140242
H1    H     H_    0.065283 0.642078 0.744450 0.167813
H2    H     H_    0.209859 0.590358 0.652805 0.198816
H3    H     H_    0.935289 0.398793 0.204790 0.207768
H4    H     H_    0.606266 0.752534 0.359430 0.186064
H5    H     H_    0.607446 0.241926 0.361990 0.206636
H6    H     H_    0.389727 0.913139 0.777963 0.227505
H7    H     H_    0.374391 0.076052 0.773211 0.233992
H8    H     H_    0.359987 0.562277 0.111483 0.126647
H9    H     H_    0.385968 0.399897 0.105866 0.110315
H10   H     H_    0.363533 0.567202 0.903484 0.190158
H11   H     H_    0.392178 0.398032 0.901694 0.225253
H12   H     H_    0.452859 0.648708 0.892348 0.271992
H13   H     H_    0.504108 0.349509 0.886126 0.275901
H14   H     H_    0.618059 0.580448 0.103136 0.209824
H15   H     H_    0.635808 0.458840 0.096887 0.213185
H16   H     H_    0.768076 0.585448 0.658805 0.154424
H17   H     H_    0.902103 0.639202 0.747969 0.164507
N1    N     N_R   0.500070 0.750030 0.500050 -0.156027
N2    N     N_R   0.500070 0.249970 0.500050 -0.153736
O1    O     O_R   0.367860 0.580280 0.500020 -0.511960
O2    O     O_R   0.367860 0.419720 0.500020 -0.573848
O3    O     O_R   0.500000 0.580270 0.314790 -0.552746
O4    O     O_R   0.500000 0.419730 0.314790 -0.554157
O5    O     O_R   0.632160 0.580270 0.499960 -0.636140
O6    O     O_R   0.632160 0.419730 0.499960 -0.625340
O7    O     O_R   0.500030 0.580270 0.685200 -0.603129
O8    O     O_R   0.500030 0.419730 0.685200 -0.588654
Zn1   Zn    Zn3+2 0.500020 0.607200 0.499990 1.068161
Zn2   Zn    Zn3+2 0.500020 0.392800 0.499990 1.068363
S1    S     S_3+6 0.439589 0.702197 0.127967 0.047864
O9    O     O_2   0.535875 0.728444 0.131915 -0.320343
O10   O     O_2   0.395881 0.768621 0.041060 -0.269135
O11   O     O_3   0.385766 0.716283 0.269675 -0.481254
H18   H     H_    0.388391 0.784796 0.287279 0.386776
S2    S     S_3+6 0.504247 0.289000 0.115165 0.045010
O12   O     O_2   0.495886 0.215960 0.015835 -0.255369
O13   O     O_2   0.601090 0.295775 0.136586 -0.304063
O14   O     O_3   0.446873 0.250197 0.244361 -0.540100
H19   H     H_    0.438575 0.181792 0.231187 0.382347
C43   C     C_1   0.240721 0.377373 0.331615 0.334705
N3    N     N_1   0.278186 0.314129 0.282331 -0.066089
S3    S     S_3+6 0.114597 0.413939 0.125637 0.028577
O15   O     O_2   0.138563 0.310649 0.112817 -0.270738
O16   O     O_2   0.053571 0.440601 0.026546 -0.279455
O17   O     O_3   0.207497 0.478468 0.105213 -0.595728
H20   H     H_    0.234272 0.461203 0.021167 0.373791
S4    S     S_3+6 0.333892 0.760594 0.630074 0.025708
O18   O     O_2   0.286932 0.736954 0.516454 -0.271097
O19   O     O_2   0.343128 0.674985 0.710106 -0.354224
O20   O     O_3   0.266488 0.839257 0.710441 -0.554141
H21   H     H_    0.210238 0.805299 0.732079 0.388463
S5    S     S_3+6 0.362457 0.251813 0.699723 0.022873
O21   O     O_2   0.386939 0.228700 0.828644 -0.330664
O22   O     O_2   0.343026 0.355253 0.699134 -0.298255
O23   O     O_3   0.266075 0.197873 0.676710 -0.546219
H22   H     H_    0.227588 0.207725 0.754768 0.403022
C44   C     C_1   0.684695 0.096656 0.243428 0.243881
N4    N     N_1   0.732995 0.135110 0.172129 -0.103776
C45   C     C_1   0.681719 0.895099 0.239375 0.220877
N5    N     N_1   0.727770 0.853873 0.166156 -0.146784
C46   C     C_1   0.629046 0.610588 0.876345 0.198057
N6    N     N_1   0.655815 0.682967 0.842100 -0.164747
C47   C     C_1   0.658721 0.445270 0.867696 0.161685
N7    N     N_1   0.708859 0.388220 0.826353 -0.137639
C48   C     C_1   0.778115 0.400271 0.304764 0.154412
N8    N     N_1   0.746699 0.355942 0.230486 -0.130394

loop_
_geom_bond_atom_site_label_1
_geom_bond_atom_site_label_2
_ccdc_geom_bond_type
C7    C13   A    
O17   H20   S    
C45   N5    T    
C27   C29   A    
C24   C27   A    
C1    O1    A    
C6    C9    A    
O23   H22   S    
C7    C8    A    
C39   H11   S    
S2    O12   D    
C25   C28   A    
C1    C18   S    
C5    H16   S    
C26   O6    A    
C35   O7    A    
S3    O16   D    
C38   C42   S    
C22   N1    A    
C5    C6    A    
C12   O3    A    
C38   H10   S    
C15   C16   A    
O1    Zn1   S    
C18   C19   A    
O8    Zn2   S    
C35   C42   S    
C39   H13   S    
C44   N4    T    
C40   H14   S    
C48   N8    T    
S3    O17   S    
O3    Zn1   S    
S4    O19   D    
C19   C43   S    
C9    C10   A    
C21   C30   A    
C21   N2    A    
N2    Zn2   S    
C25   C32   A    
C8    C16   A    
C13   C14   A    
C36   C41   S    
S1    O11   S    
C1    O2    A    
C33   C34   A    
C39   C42   S    
C20   C29   A    
S2    O13   D    
C34   C45   S    
C26   O5    A    
S3    O15   D    
S1    O10   D    
C3    C8    A    
S1    O9    D    
S5    O23   S    
C3    C48   S    
O4    Zn2   S    
C37   S2    S    
C29   C34   A    
C33   C44   S    
O11   H18   S    
C12   C41   S    
C31   C32   A    
C38   H12   S    
N1    Zn1   S    
C17   C18   A    
S4    O20   S    
S5    O22   D    
C15   S3    S    
C40   C41   S    
O2    Zn2   S    
C31   H6    S    
C22   C24   A    
C20   N1    A    
C3    C4    A    
C46   N6    T    
C36   H8    S    
C12   O4    A    
S2    O14   S    
C11   C17   A    
C40   H15   S    
C30   C33   A    
C10   H1    S    
C14   C19   A    
O14   H19   S    
C16   H3    S    
C4    C26   S    
C6    C7    A    
C47   N7    T    
C2    C47   S    
C23   S5    S    
C36   C38   S    
C24   C31   A    
C37   C39   S    
C11   C13   A    
O5    Zn1   S    
C2    C46   S    
C2    C42   S    
C37   H9    S    
C4    C5    A    
C28   C30   A    
O20   H21   S    
C22   S4    S    
O6    Zn2   S    
C23   C25   A    
C37   C41   S    
S5    O21   D    
C32   H7    S    
C17   H2    S    
C10   C11   A    
C2    C40   S    
C23   N2    A    
C35   O8    A    
O7    Zn1   S    
C43   N3    T    
C27   C28   A    
C14   C15   A    
C9    H17   S    
S4    O18   D    
C20   H4    S    
C36   S1    S    
C21   H5    S    
