data_mof_unit_48200.cif
_audit_creation_date              2012-12-10T20:33:33-0500
_audit_creation_method            fapswitch 2.2
_symmetry_space_group_name_H-M    P1
_symmetry_Int_Tables_number       1
_space_group_crystal_system       triclinic
_cell_length_a                    14.141167
_cell_length_b                    10.701221
_cell_length_c                    9.885861
_cell_angle_alpha                 90.888536
_cell_angle_beta                  88.90286
_cell_angle_gamma                 89.818217
_cell_volume                      1495.54200907

loop_
_atom_site_label
_atom_site_type_symbol
_atom_type_description
_atom_site_fract_x
_atom_site_fract_y
_atom_site_fract_z
_atom_type_partial_charge
C1    C     C_R   0.503346 0.259810 0.498817 0.951771
C2    C     C_3   0.423729 0.075261 0.723779 0.349071
C3    C     C_R   0.427555 0.552082 0.073898 0.073407
C4    C     C_R   0.329195 0.500401 0.501126 0.897261
C5    C     C_R   0.578761 0.461408 0.069279 0.528509
C6    C     C_R   0.575792 0.456323 0.924029 -0.301450
C7    C     C_R   0.428380 0.554960 0.931845 0.121561
C8    C     C_3   0.325463 0.523425 0.927439 -0.052286
C9    C     C_3   0.325862 0.516728 0.081590 -0.482897
C10   C     C_R   0.502589 0.739757 0.500995 0.891516
C11   C     C_R   0.670816 0.499965 0.499230 0.892958
C12   C     C_1   0.772272 0.500327 0.499340 -0.202460
C13   C     C_1   0.227739 0.501467 0.503169 -0.218745
C14   C     C_1   0.142474 0.501888 0.503863 -0.029542
C15   C     C_1   0.042613 0.501721 0.503959 0.003007
C16   C     C_1   0.957367 0.501327 0.503261 0.003614
C17   C     C_1   0.857522 0.500768 0.501545 -0.038242
C18   C     C_3   0.580833 0.054723 0.145173 0.116447
C19   C     C_3   0.593513 0.138967 0.024296 -0.809642
C20   C     C_3   0.271685 0.140146 0.774321 0.110227
C21   C     C_3   0.184009 0.201646 0.718324 -0.821849
C22   C     C_3   0.743662 0.445520 0.067527 0.055004
C23   C     C_R   0.501751 0.065336 0.619178 -0.008900
C24   C     C_3   0.825143 0.449790 0.165091 -0.780917
C25   C     C_3   0.265570 0.631868 0.874212 -0.349349
C26   C     C_3   0.160758 0.598413 0.875238 -0.876635
C27   C     C_R   0.516886 0.127600 0.497750 -0.175952
C28   C     C_R   0.549538 0.061121 0.380504 0.468393
C29   C     C_R   0.551017 0.929860 0.387163 -0.372904
C30   C     C_R   0.517301 0.870620 0.503401 -0.106433
C31   C     C_R   0.502453 0.938484 0.622179 0.058403
C32   C     C_3   0.424328 0.932937 0.725693 -0.555700
H1    H     H_    0.312585 0.432001 0.876089 0.177370
H2    H     H_    0.642283 0.989534 0.144736 0.136692
H3    H     H_    0.596340 0.081515 0.929810 0.185725
H4    H     H_    0.660877 0.190808 0.032275 0.271253
H5    H     H_    0.533325 0.205487 0.019946 0.246831
H6    H     H_    0.298319 0.201213 0.857465 0.117822
H7    H     H_    0.251220 0.047808 0.816023 0.138968
H8    H     H_    0.155519 0.143842 0.634298 0.259889
H9    H     H_    0.128975 0.211784 0.799423 0.202718
H10   H     H_    0.202127 0.295687 0.680304 0.256638
H11   H     H_    0.742433 0.536888 0.014693 0.128973
H12   H     H_    0.282378 0.589337 0.135396 0.208248
H13   H     H_    0.758371 0.368694 0.993112 0.134597
H14   H     H_    0.893360 0.452648 0.107671 0.199366
H15   H     H_    0.819221 0.535663 0.228919 0.248662
H16   H     H_    0.824293 0.365791 0.229708 0.268211
H17   H     H_    0.148856 0.513149 0.812438 0.263377
H18   H     H_    0.135076 0.581670 0.980244 0.262115
H19   H     H_    0.119458 0.676609 0.832987 0.249744
H20   H     H_    0.275959 0.718327 0.936066 0.196561
H21   H     H_    0.288009 0.653238 0.769005 0.224133
H22   H     H_    0.315449 0.420336 0.119467 0.190809
H23   H     H_    0.573670 0.872580 0.301546 0.155170
H24   H     H_    0.359256 0.888823 0.685530 0.208257
H25   H     H_    0.448712 0.895026 0.823154 0.164618
H26   H     H_    0.448205 0.121891 0.818185 0.066687
H27   H     H_    0.633544 0.416861 0.864344 0.159338
H28   H     H_    0.513452 0.002545 0.131976 0.125759
N1    N     N_R   0.499420 0.499140 0.142800 -0.127712
N2    N     N_R   0.499420 0.499180 0.857150 -0.117047
O1    O     O_R   0.500010 0.316790 0.614690 -0.615455
O2    O     O_3   0.340198 0.125109 0.669515 -0.584487
O3    O     O_3   0.657817 0.422071 0.139167 -0.558104
O4    O     O_R   0.500000 0.316760 0.385350 -0.546514
O5    O     O_R   0.373720 0.500020 0.614700 -0.606507
O6    O     O_R   0.373710 0.499980 0.385350 -0.602185
O7    O     O_R   0.500000 0.683240 0.614650 -0.610984
O8    O     O_R   0.499990 0.683210 0.385310 -0.627016
O9    O     O_R   0.626290 0.500020 0.614650 -0.617693
O10   O     O_R   0.626280 0.499980 0.385300 -0.532975
O11   O     O_3   0.578482 0.127591 0.265957 -0.572009
Zn1   Zn    Zn3+2 0.500010 0.500020 0.653130 0.931732
Zn2   Zn    Zn3+2 0.499990 0.499980 0.346870 1.001176

loop_
_geom_bond_atom_site_label_1
_geom_bond_atom_site_label_2
_ccdc_geom_bond_type
C12   C17   T    
C20   O2    S    
C4    O5    A    
C11   C12   S    
C2    H26   S    
C22   O3    S    
C29   C30   A    
C3    C9    S    
O1    Zn1   S    
C23   C27   A    
O9    Zn1   S    
C20   H6    S    
C10   C30   S    
C3    C7    A    
C31   C32   S    
C14   C15   S    
C8    H1    S    
C24   H14   S    
C6    N2    A    
C3    N1    A    
C1    O4    A    
C25   H20   S    
C5    N1    A    
O7    Zn1   S    
C7    N2    A    
O5    Zn1   S    
C19   H3    S    
C13   C14   T    
N1    Zn2   S    
O6    Zn2   S    
C8    C25   S    
C18   H2    S    
C5    C6    A    
C21   H8    S    
C32   H25   S    
O10   Zn2   S    
C21   H9    S    
O4    Zn2   S    
C10   O8    A    
C2    C32   S    
C18   H28   S    
C28   C29   A    
C2    O2    S    
C18   O11   S    
C22   C24   S    
C19   H4    S    
C26   H18   S    
C30   C31   A    
C11   O9    A    
C19   H5    S    
C15   C16   T    
C28   O11   S    
C21   H10   S    
C24   H16   S    
C10   O7    A    
C1    O1    A    
C7    C8    S    
C22   H13   S    
C20   C21   S    
O8    Zn2   S    
C2    C23   S    
C5    O3    S    
C18   C19   S    
C26   H17   S    
C4    C13   S    
C1    C27   S    
C20   H7    S    
C11   O10   A    
N2    Zn1   S    
C9    H12   S    
C9    H22   S    
C29   H23   S    
C25   C26   S    
C26   H19   S    
C24   H15   S    
C4    O6    A    
C6    H27   S    
C32   H24   S    
C22   H11   S    
C16   C17   S    
C25   H21   S    
C8    C9    S    
C27   C28   A    
C23   C31   A    
