data_mof_unit_13625.cif
_audit_creation_date              2012-12-10T17:07:14-0500
_audit_creation_method            fapswitch 2.2
_symmetry_space_group_name_H-M    P1
_symmetry_Int_Tables_number       1
_space_group_crystal_system       triclinic
_cell_length_a                    18.292844
_cell_length_b                    18.218762
_cell_length_c                    18.277654
_cell_angle_alpha                 119.79446
_cell_angle_beta                  119.778558
_cell_angle_gamma                 59.780611
_cell_volume                      4313.89541583

loop_
_atom_site_label
_atom_site_type_symbol
_atom_type_description
_atom_site_fract_x
_atom_site_fract_y
_atom_site_fract_z
_atom_type_partial_charge
C1    C     C_R   0.139846 0.861616 0.641521 0.552128
C2    C     C_R   0.760705 0.466967 0.794945 0.212421
C3    C     C_R   0.743063 0.426734 0.702769 -0.107719
C4    C     C_R   0.859724 0.140188 0.360247 0.519587
C5    C     C_R   0.741572 0.339195 0.659405 0.207935
C6    C     C_R   0.939302 0.223137 0.331434 -0.049711
C7    C     C_R   0.977017 0.261777 0.315609 -0.076422
C8    C     C_R   0.923208 0.315344 0.261133 -0.104065
C9    C     C_R   0.831204 0.331390 0.222841 -0.081384
C10   C     C_R   0.791807 0.291785 0.236797 0.032162
C11   C     C_R   0.846528 0.237161 0.291970 0.030427
C12   C     C_R   0.754946 0.160792 0.845522 0.123172
C13   C     C_R   0.807062 0.196504 0.304506 0.049804
C14   C     C_R   0.716113 0.207523 0.261477 -0.081498
C15   C     C_R   0.662669 0.260493 0.207033 -0.080623
C16   C     C_R   0.140114 0.140464 0.637213 0.521101
C17   C     C_R   0.699534 0.303311 0.195363 0.046419
C18   C     C_R   0.915479 0.689938 0.386820 -0.072349
C19   C     C_R   0.939356 0.611193 0.400815 -0.090225
C20   C     C_R   0.885648 0.557923 0.346933 -0.108545
C21   C     C_R   0.808068 0.582592 0.278214 -0.065416
C22   C     C_R   0.780518 0.663910 0.264362 0.026274
C23   C     C_R   0.746049 0.207499 0.796782 0.014722
C24   C     C_R   0.835352 0.718329 0.319695 0.020927
C25   C     C_R   0.809889 0.798141 0.304487 0.007248
C26   C     C_R   0.733538 0.821762 0.234371 -0.092926
C27   C     C_R   0.678833 0.769801 0.180520 0.082544
C28   C     C_R   0.861545 0.858447 0.360201 0.496107
C29   C     C_R   0.701026 0.691336 0.195617 0.053076
C30   C     C_R   0.197945 0.946492 0.840938 0.090487
C31   C     C_R   0.228642 0.980173 0.934283 -0.058504
C32   C     C_R   0.282626 0.923009 0.984466 -0.096465
C33   C     C_R   0.307213 0.830710 0.942421 -0.071611
C34   C     C_R   0.765914 0.156394 0.716270 -0.005044
C35   C     C_R   0.278240 0.793213 0.848297 -0.008148
C36   C     C_R   0.222780 0.850803 0.795521 0.006177
C37   C     C_R   0.195408 0.809341 0.700925 0.024334
C38   C     C_R   0.221260 0.715125 0.660540 0.068891
C39   C     C_R   0.275956 0.659799 0.713477 0.095078
C40   C     C_R   0.140092 0.859800 0.360162 0.547257
C41   C     C_R   0.303956 0.698868 0.806467 0.025920
C42   C     C_R   0.254489 0.677994 0.361399 -0.101125
C43   C     C_R   0.309052 0.590176 0.361344 -0.066691
C44   C     C_R   0.361931 0.535684 0.306421 0.103125
C45   C     C_R   0.721351 0.302232 0.826861 0.049702
C46   C     C_R   0.360856 0.568992 0.251708 -0.053302
C47   C     C_R   0.306849 0.658076 0.251458 0.009384
C48   C     C_R   0.252611 0.713448 0.306703 -0.022215
C49   C     C_R   0.196562 0.801901 0.304186 0.024124
C50   C     C_R   0.193765 0.834398 0.246672 0.208101
C51   C     C_R   0.246714 0.778582 0.192102 -0.121440
C52   C     C_R   0.852857 0.140323 0.634005 0.567126
C53   C     C_R   0.303693 0.692355 0.195371 0.006836
C54   C     C_R   0.324206 0.083386 0.639130 -0.077605
C55   C     C_R   0.416592 0.042282 0.658539 -0.141751
C56   C     C_R   0.745702 0.340379 0.794465 -0.065836
C57   C     C_R   0.472953 0.074193 0.743661 -0.095324
C58   C     C_R   0.437762 0.152967 0.806633 0.235280
C59   C     C_R   0.345403 0.205756 0.779309 -0.006638
C60   C     C_R   0.287830 0.161835 0.702692 -0.010952
C61   C     C_R   0.196350 0.197095 0.693452 -0.020023
C62   C     C_R   0.161344 0.283110 0.749342 -0.109044
C63   C     C_R   0.214950 0.335863 0.812443 0.173668
C64   C     C_R   0.765180 0.067230 0.673578 -0.073433
C65   C     C_R   0.307322 0.299488 0.822902 0.007985
C66   C     C_R   0.640858 0.639304 0.139865 0.531846
C67   C     C_R   0.757414 0.290987 0.710039 -0.039901
C68   C     C_R   0.360459 0.359116 0.866374 0.555143
C69   C     C_R   0.640020 0.359787 0.139717 0.517645
C70   C     C_R   0.360079 0.639832 0.859837 0.515895
C71   C     C_R   0.359914 0.639728 0.139693 0.497852
C72   C     C_R   0.648181 0.359541 0.867425 0.564551
C73   C     C_R   0.759635 0.025955 0.716678 -0.137162
C74   C     C_R   0.759144 0.071134 0.804125 -0.096268
C75   C     C_R   0.784465 0.196235 0.680467 0.037744
C76   C     C_R   0.761321 0.424207 0.842852 0.193983
H1    H     H_    0.731501 0.463271 0.663899 0.194510
H2    H     H_    0.904752 0.496763 0.358060 0.123195
H3    H     H_    0.771184 0.536525 0.235994 0.137077
H4    H     H_    0.766156 0.029649 0.605851 0.160155
H5    H     H_    0.210296 0.052037 0.968922 0.161754
H6    H     H_    0.305567 0.950473 0.056644 0.144656
H7    H     H_    0.349357 0.789051 0.984761 0.121740
H8    H     H_    0.213325 0.717134 0.403861 0.149699
H9    H     H_    0.309603 0.564126 0.403516 0.181514
H10   H     H_    0.760517 0.957198 0.683857 0.135933
H11   H     H_    0.401606 0.523991 0.208780 0.145297
H12   H     H_    0.983434 0.181428 0.373670 0.143567
H13   H     H_    0.245259 0.802818 0.147774 0.155803
H14   H     H_    0.091702 0.309151 0.744145 0.195022
H15   H     H_    0.281901 0.054075 0.574011 0.160427
H16   H     H_    0.444111 0.981559 0.610011 0.137859
H17   H     H_    0.543482 0.034425 0.762301 0.148236
H18   H     H_    0.764606 0.035612 0.840631 0.164054
H19   H     H_    0.686388 0.175366 0.270623 0.165333
H20   H     H_    0.216817 0.977748 0.228900 0.336804
H21   H     H_    0.598862 0.176809 0.899567 0.340198
H22   H     H_    0.258002 0.412500 0.005206 0.347155
H23   H     H_    0.048329 0.249784 0.345412 0.148701
H24   H     H_    0.697382 0.585350 0.965288 0.374774
H25   H     H_    0.796067 0.651016 0.801435 0.387577
H26   H     H_    0.589432 0.430902 0.527859 0.350015
H27   H     H_    0.952900 0.344545 0.248400 0.147241
H28   H     H_    0.791712 0.373206 0.180744 0.130079
H29   H     H_    0.592000 0.268994 0.174569 0.182208
H30   H     H_    0.714828 0.882879 0.223026 0.166315
H31   H     H_    0.961195 0.727178 0.428480 0.159618
H32   H     H_    0.000379 0.590866 0.453077 0.160624
I1    I     I_    0.560115 0.819214 0.081793 -0.273234
I2    I     I_    0.176278 0.656443 0.517790 -0.379993
I3    I     I_    0.115264 0.053366 0.785438 -0.266941
I4    I     I_    0.317864 0.515922 0.654273 -0.241670
I5    I     I_    0.442420 0.401989 0.304096 -0.240600
I6    I     I_    0.794590 0.208736 0.987019 -0.222596
O1    O     O_3   1.000000 0.000000 0.500000 -0.466532
O2    O     O_R   0.323460 0.615830 0.884170 -0.522438
O3    O     O_R   0.444880 0.615840 0.176480 -0.550746
O4    O     O_R   0.055060 0.884200 0.615800 -0.521527
O5    O     O_R   0.615800 0.444940 0.884180 -0.522442
O6    O     O_R   0.323440 0.615840 0.055040 -0.487525
O7    O     O_R   0.615780 0.323500 0.884180 -0.550237
O8    O     O_R   0.615760 0.323500 0.055050 -0.472336
O9    O     O_R   0.444910 0.615830 0.884180 -0.522686
O10   O     O_R   0.615780 0.615830 0.176490 -0.561001
O11   O     O_R   0.323430 0.444950 0.884170 -0.457171
O12   O     O_R   0.055100 0.176520 0.615800 -0.538850
O13   O     O_R   0.884210 0.176520 0.444920 -0.497464
O14   O     O_R   0.176540 0.055080 0.615800 -0.525756
O15   O     O_R   0.884190 0.884200 0.323480 -0.521435
O16   O     O_R   0.176540 0.884190 0.444930 -0.552779
O17   O     O_R   0.884180 0.055090 0.615790 -0.547754
O18   O     O_R   0.055100 0.884190 0.323490 -0.480375
O19   O     O_R   0.884190 0.176530 0.615790 -0.486889
O20   O     O_2   0.030416 0.951600 0.194988 -0.185638
O21   O     O_2   0.136220 0.011772 0.336329 -0.338046
O22   O     O_3   0.157111 0.972292 0.188860 -0.495928
O23   O     O_R   0.884180 0.884200 0.444920 -0.558688
O24   O     O_2   0.458389 0.244843 0.983800 -0.277832
O25   O     O_2   0.510174 0.080961 0.933115 -0.209439
O26   O     O_3   0.605268 0.153962 0.942311 -0.468332
O27   O     O_2   0.137375 0.513933 0.846611 -0.195859
O28   O     O_2   0.083851 0.444571 0.886598 -0.218688
O29   O     O_3   0.238705 0.464298 0.987208 -0.477887
O30   O     O_2   0.797474 0.412459 0.002583 -0.297692
O31   O     O_2   0.905742 0.439136 0.987198 -0.170589
O32   O     O_3   0.759836 0.571225 0.006249 -0.425418
O33   O     O_2   0.694753 0.646132 0.866790 -0.260424
O34   O     O_R   0.176510 0.884190 0.615800 -0.512503
O35   O     O_2   0.857413 0.574799 0.926396 -0.137339
O36   O     O_3   0.790748 0.590421 0.770666 -0.511569
O37   O     O_2   0.744075 0.316529 0.503929 -0.270112
O38   O     O_2   0.697618 0.209192 0.499853 -0.266810
O39   O     O_3   0.587337 0.371893 0.513875 -0.457630
O40   O     O_R   0.884210 0.055080 0.323480 -0.509333
O41   O     O_3   0.499970 0.500030 0.999970 -0.471812
O42   O     O_R   0.615800 0.615830 0.055050 -0.507634
O43   O     O_R   0.444880 0.323510 0.884180 -0.537797
O44   O     O_R   0.615760 0.444950 0.176490 -0.554353
S1    S     S_3+6 0.126872 0.945491 0.243196 0.032125
S2    S     S_3+6 0.501664 0.160437 0.920047 0.056232
S3    S     S_3+6 0.165335 0.442367 0.883040 0.081989
S4    S     S_3+6 0.807403 0.459885 0.962081 0.097000
S5    S     S_3+6 0.776422 0.572328 0.843709 0.083551
S6    S     S_3+6 0.695009 0.304907 0.541192 0.043191
Zn1   Zn    Zn3+2 0.956630 0.130130 0.543370 1.036076
Zn2   Zn    Zn3+2 0.130140 0.956620 0.543380 0.983883
Zn3   Zn    Zn3+2 0.956630 0.956620 0.369870 1.035174
Zn4   Zn    Zn3+2 0.956610 0.956630 0.543370 0.967179
Zn5   Zn    Zn3+2 0.543340 0.369890 0.956600 1.001618
Zn6   Zn    Zn3+2 0.543340 0.543410 0.130100 0.945419
Zn7   Zn    Zn3+2 0.369830 0.543410 0.956590 1.043425
Zn8   Zn    Zn3+2 0.543370 0.543400 0.956600 0.999505

loop_
_geom_bond_atom_site_label_1
_geom_bond_atom_site_label_2
_ccdc_geom_bond_type
C4    O40   A    
C63   C65   A    
C17   C69   S    
C42   C43   A    
C56   C76   A    
C22   C29   A    
C12   C74   A    
H22   O29   S    
C27   C29   A    
O34   Zn2   S    
C73   C74   A    
C74   H18   S    
C76   S4    S    
C35   C36   A    
O18   Zn3   S    
C5    C67   A    
C52   C75   S    
C26   H30   S    
O28   S3    D    
O3    Zn6   S    
C67   C75   A    
C7    C8    A    
H20   O22   S    
C54   C60   A    
C25   C28   S    
O27   S3    D    
O36   S5    S    
O32   S4    S    
C12   C23   A    
C26   C27   A    
C37   C38   A    
C7    H23   S    
C71   O6    A    
C23   C45   A    
C22   C24   A    
C36   C37   A    
C18   C19   A    
C30   C31   A    
C72   O7    A    
O7    Zn5   S    
C10   C17   A    
C40   C49   S    
H25   O36   S    
C6    H12   S    
C15   C17   A    
C28   O15   A    
C4    C13   S    
O41   Zn5   S    
C18   H31   S    
O43   Zn5   S    
C54   C55   A    
O22   S1    S    
O41   Zn8   S    
C47   C48   A    
C45   C56   A    
H24   O32   S    
C8    C9    A    
C64   C73   A    
O35   S5    D    
C38   I2    S    
C9    C10   A    
H21   O26   S    
O9    Zn8   S    
C1    C37   S    
C34   C75   A    
C47   C53   A    
C19   H32   S    
O12   Zn1   S    
O20   S1    D    
C40   O18   A    
C59   C60   A    
C57   H17   S    
C13   C14   A    
C45   C72   S    
O14   Zn2   S    
C52   O19   A    
C64   H4    S    
C35   C41   A    
C70   O9    A    
C44   C46   A    
C50   C51   A    
C12   I6    S    
O21   S1    D    
O15   Zn3   S    
O39   S6    S    
C43   H9    S    
C5    S6    S    
C42   H8    S    
C24   C25   A    
C39   C41   A    
C6    C11   A    
C71   O3    A    
O44   Zn6   S    
C70   O2    A    
C25   C26   A    
O42   Zn8   S    
O2    Zn7   S    
C60   C61   A    
C51   C53   A    
C43   C44   A    
O24   S2    D    
C62   C63   A    
O19   Zn1   S    
C33   H7    S    
O16   Zn2   S    
C31   C32   A    
O13   Zn1   S    
C65   C68   S    
C21   H3    S    
C34   C64   A    
C69   O44   A    
C42   C48   A    
O1    Zn2   S    
C16   O14   A    
H26   O39   S    
O38   S6    D    
C48   C49   A    
C55   H16   S    
O17   Zn4   S    
O37   S6    D    
C55   C57   A    
C18   C24   A    
O40   Zn3   S    
O1    Zn1   S    
C16   C61   S    
O1    Zn3   S    
C68   O43   A    
C3    H1    S    
C14   H19   S    
C2    C76   A    
C46   H11   S    
C63   S3    S    
C40   O16   A    
C46   C47   A    
C39   I4    S    
C23   C34   A    
C4    O13   A    
O30   S4    D    
C59   C65   A    
C52   O17   A    
C28   O23   A    
C3    C5    A    
O8    Zn5   S    
C2    S5    S    
C44   I5    S    
O6    Zn7   S    
C6    C7    A    
C20   H2    S    
C50   S1    S    
C56   C67   A    
C32   H6    S    
O5    Zn8   S    
C31   H5    S    
C30   C36   A    
C30   I3    S    
O1    Zn4   S    
C32   C33   A    
C15   H29   S    
C19   C20   A    
C2    C3    A    
C58   C59   A    
C54   H15   S    
C58   S2    S    
O26   S2    S    
C66   O42   A    
C11   C13   A    
O41   Zn6   S    
C57   C58   A    
C38   C39   A    
C69   O8    A    
C9    H28   S    
C62   H14   S    
C72   O5    A    
O4    Zn4   S    
C33   C35   A    
C66   O10   A    
C1    O4    A    
C61   C62   A    
O11   Zn7   S    
C8    H27   S    
C73   H10   S    
C10   C11   A    
C29   C66   S    
O41   Zn7   S    
O10   Zn6   S    
C20   C21   A    
C27   I1    S    
C49   C50   A    
O31   S4    D    
C14   C15   A    
C1    O34   A    
O33   S5    D    
O25   S2    D    
C21   C22   A    
C16   O12   A    
C68   O11   A    
O29   S3    S    
O23   Zn4   S    
C51   H13   S    
C41   C70   S    
C53   C71   S    
