data_mof_unit_57683.cif
_audit_creation_date              2012-10-26T21:23:32-0400
_audit_creation_method            fapswitch 2.2
_symmetry_space_group_name_H-M    P1
_symmetry_Int_Tables_number       1
_space_group_crystal_system       triclinic
_cell_length_a                    27.793617
_cell_length_b                    10.915552
_cell_length_c                    9.684545
_cell_angle_alpha                 89.977516
_cell_angle_beta                  90.052444
_cell_angle_gamma                 89.971338
_cell_volume                      2938.12131046

loop_
_atom_site_label
_atom_site_type_symbol
_atom_type_description
_atom_site_fract_x
_atom_site_fract_y
_atom_site_fract_z
_atom_type_partial_charge
C1    C     C_R   0.500308 0.265293 0.500046 0.547209
C2    C     C_R   0.974791 0.383895 0.520308 -0.025734
C3    C     C_R   0.974422 0.609330 0.501063 0.021338
C4    C     C_R   0.407551 0.499867 0.499911 0.576163
C5    C     C_R   0.949251 0.496048 0.510192 -0.021344
C6    C     C_R   0.948590 0.273298 0.518124 -0.124810
C7    C     C_R   0.898350 0.271589 0.516499 0.279258
C8    C     C_R   0.872563 0.382818 0.510876 0.035830
C9    C     C_R   0.898133 0.494916 0.509022 -0.087928
C10   C     C_R   0.872486 0.606232 0.505648 -0.024201
C11   C     C_R   0.822075 0.604423 0.502562 0.398284
C12   C     C_R   0.278920 0.434207 0.397127 -0.049853
C13   C     C_R   0.821769 0.386010 0.507192 0.413455
C14   C     C_R   0.721123 0.488009 0.626310 -0.060155
C15   C     C_R   0.670969 0.489440 0.625802 -0.138141
C16   C     C_R   0.499013 0.734685 0.500084 0.552307
C17   C     C_R   0.671360 0.506989 0.375967 -0.137912
C18   C     C_R   0.721553 0.505957 0.376884 -0.052932
C19   C     C_R   0.746477 0.496352 0.501989 0.243160
C20   C     C_R   0.025727 0.385357 0.530202 0.020866
C21   C     C_R   0.050772 0.496326 0.505940 0.029640
C22   C     C_R   0.025265 0.607147 0.483354 0.018209
C23   C     C_R   0.253602 0.497655 0.499282 0.146365
C24   C     C_R   0.052657 0.279366 0.563634 -0.141336
C25   C     C_R   0.101525 0.709495 0.433571 -0.129306
C26   C     C_R   0.947491 0.720041 0.513236 0.253621
C27   C     C_R   0.897403 0.717172 0.509886 -0.077821
C28   C     C_R   0.592567 0.499796 0.500095 0.555617
C29   C     C_R   0.051542 0.710625 0.438580 -0.123737
C30   C     C_2   0.498487 0.933127 0.386343 -0.155651
C31   C     C_2   0.495662 0.866646 0.502319 -0.119956
C32   C     C_2   0.496120 0.067144 0.386860 -0.163812
C33   C     C_2   0.502308 0.133211 0.502056 -0.117718
C34   C     C_R   0.101846 0.496256 0.502829 -0.029131
C35   C     C_2   0.471406 0.431651 0.922042 0.005536
C36   C     C_2   0.472411 0.428966 0.077825 0.001846
C37   C     C_R   0.178175 0.391006 0.531387 0.404183
C38   C     C_R   0.177630 0.602107 0.467491 0.406154
C39   C     C_R   0.278594 0.561848 0.601572 -0.053579
C40   C     C_R   0.328887 0.564768 0.601370 0.204478
C41   C     C_R   0.329228 0.432778 0.397678 0.208674
C42   C     C_3   0.360389 0.248061 0.339737 -0.106944
C43   C     C_3   0.977314 0.847407 0.676934 -0.133647
C44   C     C_3   0.876116 0.104387 0.641080 -0.065190
C45   C     C_R   0.127681 0.388518 0.533049 0.026025
C46   C     C_3   0.358281 0.751228 0.659342 -0.092560
C47   C     C_R   0.102664 0.281233 0.565247 -0.110139
C48   C     C_R   0.127132 0.603801 0.468782 0.024437
C49   C     C_R   0.354619 0.499125 0.499669 0.010603
C50   C     C_R   0.645585 0.498854 0.500546 0.006420
Cu1   Cu    Cu3+1 0.500010 0.500020 0.638630 0.965469
Cu2   Cu    Cu3+1 0.499990 0.499980 0.361370 0.963140
H1    H     H_    0.258890 0.610457 0.680957 0.155761
H2    H     H_    0.259472 0.385067 0.317576 0.156641
H3    H     H_    0.510071 0.091839 0.601135 0.107101
H4    H     H_    0.445655 0.372608 0.870536 0.147509
H5    H     H_    0.524929 0.552290 0.894006 0.202589
H6    H     H_    0.448565 0.364927 0.129253 0.161483
H7    H     H_    0.521152 0.562081 0.106038 0.202954
H8    H     H_    0.121658 0.197681 0.591424 0.166921
H9    H     H_    0.652142 0.482826 0.723365 0.132956
H10   H     H_    0.740357 0.480651 0.723252 0.121156
H11   H     H_    0.966241 0.185449 0.512638 0.134894
H12   H     H_    0.120005 0.791841 0.400679 0.167849
H13   H     H_    0.035998 0.194049 0.592989 0.107016
H14   H     H_    0.325448 0.200200 0.355202 0.134576
H15   H     H_    0.382329 0.244338 0.435922 0.110937
H16   H     H_    0.380502 0.197860 0.258620 0.134114
H17   H     H_    0.002301 0.776106 0.717256 0.133474
H18   H     H_    0.942984 0.846455 0.736087 0.114185
H19   H     H_    0.994528 0.937850 0.693832 0.135158
H20   H     H_    0.859505 0.164401 0.720898 0.127761
H21   H     H_    0.913436 0.079438 0.671525 0.094079
H22   H     H_    0.854867 0.018467 0.636944 0.166594
H23   H     H_    0.652809 0.514450 0.277945 0.132363
H24   H     H_    0.322793 0.796910 0.645277 0.129456
H25   H     H_    0.379717 0.756634 0.562424 0.110191
H26   H     H_    0.378242 0.802441 0.740012 0.146182
H27   H     H_    0.878125 0.803393 0.514667 0.181815
H28   H     H_    0.741121 0.512496 0.280533 0.126414
H29   H     H_    0.034261 0.792368 0.400690 0.188640
H30   H     H_    0.502182 0.888557 0.286631 0.154721
H31   H     H_    0.489667 0.907623 0.602553 0.099045
H32   H     H_    0.490174 0.112174 0.288224 0.145675
N1    N     N_R   0.202012 0.496881 0.499304 -0.391850
N2    N     N_R   0.797991 0.495548 0.503088 -0.407609
N3    N     N_2   0.499480 0.498660 0.846910 -0.344388
N4    N     N_2   0.499460 0.498630 0.153040 -0.349372
O1    O     O_R   0.500010 0.321960 0.617040 -0.503275
O2    O     O_R   0.569740 0.500000 0.617090 -0.501528
O3    O     O_R   0.569730 0.499960 0.382940 -0.498747
O4    O     O_2   0.203286 0.288762 0.562452 -0.501511
O5    O     O_3   0.353325 0.369714 0.295089 -0.551413
O6    O     O_3   0.968958 0.832636 0.534280 -0.587964
O7    O     O_3   0.874876 0.159933 0.509549 -0.503061
O8    O     O_3   0.352680 0.629014 0.703665 -0.539646
O9    O     O_2   0.796109 0.281140 0.507796 -0.432015
O10   O     O_2   0.202202 0.704529 0.434112 -0.499401
O11   O     O_2   0.797195 0.710646 0.499606 -0.487882
O12   O     O_R   0.499990 0.321920 0.382900 -0.496233
O13   O     O_R   0.430270 0.500040 0.617060 -0.459991
O14   O     O_R   0.430260 0.500000 0.382910 -0.457468
O15   O     O_R   0.500010 0.678080 0.617100 -0.492699
O16   O     O_R   0.499990 0.678040 0.382960 -0.498908

loop_
_geom_bond_atom_site_label_1
_geom_bond_atom_site_label_2
_ccdc_geom_bond_type
C10   C27   A    
C33   H3    S    
C26   O6    S    
C8    C13   A    
C22   C29   A    
C42   O5    S    
C35   C36   S    
C38   O10   S    
C19   N2    S    
C46   H24   S    
C1    C33   S    
C7    C8    A    
C36   N4    D    
C16   C31   S    
C29   H29   S    
C12   C23   A    
Cu2   O14   S    
C26   C27   A    
C37   N1    A    
C36   H6    S    
Cu1   O2    S    
C30   C31   D    
C11   N2    A    
Cu1   O15   S    
C40   C49   A    
C14   H10   S    
C43   O6    S    
C31   H31   S    
C11   O11   S    
C18   C19   A    
C15   C50   A    
H7    N4    S    
C47   H8    S    
C35   N3    D    
C16   O16   A    
C41   O5    S    
C20   C24   A    
C8    C9    A    
C4    O14   A    
C13   N2    A    
Cu2   O3    S    
C1    O1    A    
C9    C10   A    
C38   C48   A    
C43   H17   S    
C21   C22   A    
C42   H16   S    
C2    C6    A    
C28   C50   S    
C40   O8    S    
C1    O12   A    
C41   C49   A    
C45   C47   A    
C25   C29   A    
C32   H32   S    
C38   N1    A    
C2    C20   A    
Cu1   Cu2   S    
Cu2   N4    S    
Cu1   N3    S    
C39   C40   A    
C46   H26   S    
C21   C34   A    
Cu2   O12   S    
H5    N3    S    
C25   H12   S    
C6    H11   S    
C30   H30   S    
C5    C9    A    
C12   C41   A    
C16   O15   A    
C4    O13   A    
C17   C18   A    
C15   H9    S    
C34   C45   A    
C44   H22   S    
C25   C48   A    
C24   H13   S    
C43   H18   S    
C42   H15   S    
C2    C5    A    
C34   C48   A    
C37   C45   A    
C17   H23   S    
Cu2   O16   S    
C43   H19   S    
C37   O4    S    
C35   H4    S    
C24   C47   A    
C14   C19   A    
C3    C26   A    
C3    C5    A    
C17   C50   A    
C46   H25   S    
C6    C7    A    
Cu1   O13   S    
C7    O7    S    
C27   H27   S    
C4    C49   S    
C32   C33   D    
C44   O7    S    
Cu1   O1    S    
C30   C32   S    
C39   H1    S    
C23   C39   A    
C44   H20   S    
C28   O3    A    
C13   O9    S    
C44   H21   S    
C10   C11   A    
C46   O8    S    
C20   C21   A    
C18   H28   S    
C23   N1    S    
C42   H14   S    
C14   C15   A    
C3    C22   A    
C28   O2    A    
C12   H2    S    
