data_mof_unit_42885.cif
_audit_creation_date              2012-12-10T18:16:26-0500
_audit_creation_method            fapswitch 2.2
_symmetry_space_group_name_H-M    P1
_symmetry_Int_Tables_number       1
_space_group_crystal_system       triclinic
_cell_length_a                    18.307539
_cell_length_b                    18.347083
_cell_length_c                    18.302746
_cell_angle_alpha                 120.109717
_cell_angle_beta                  60.232471
_cell_angle_gamma                 119.726986
_cell_volume                      4359.96083816

loop_
_atom_site_label
_atom_site_type_symbol
_atom_type_description
_atom_site_fract_x
_atom_site_fract_y
_atom_site_fract_z
_atom_type_partial_charge
C1    C     C_R   0.390071 0.109941 0.609804 0.783198
C2    C     C_R   0.013169 0.961843 0.906653 0.401093
C3    C     C_R   0.951124 0.943106 0.050717 -0.239920
C4    C     C_R   0.060349 0.052238 0.944793 -0.247903
C5    C     C_R   0.955308 0.908466 0.960317 -0.132455
C6    C     C_R   0.059502 0.085253 0.033546 -0.137430
C7    C     C_R   0.041148 0.487706 0.908702 -0.205056
C8    C     C_R   0.959448 0.512903 0.091604 -0.193638
C9    C     C_R   0.987455 0.541033 0.962168 -0.205840
C10   C     C_R   0.013215 0.459647 0.038178 -0.205598
C11   C     C_R   0.946406 0.553838 0.053810 0.024224
C12   C     C_R   0.609924 0.890069 0.390015 0.785518
C13   C     C_R   0.053989 0.446564 0.946418 0.024613
C14   C     C_R   0.004221 0.089461 0.547622 0.478190
C15   C     C_R   0.996153 0.910078 0.451779 0.483575
C16   C     C_R   0.109827 0.390225 0.890221 0.781253
C17   C     C_R   0.890259 0.609866 0.109824 0.773418
C18   C     C_R   0.953792 0.035097 0.490995 -0.364236
C19   C     C_R   0.047500 0.964811 0.507630 -0.353042
C20   C     C_R   0.947886 0.945346 0.444453 -0.164711
C21   C     C_R   0.053008 0.054496 0.554547 -0.172077
C22   C     C_R   0.538806 0.092457 0.534125 -0.192082
C23   C     C_R   0.071786 0.242384 0.136228 -0.131491
C24   C     C_R   0.461232 0.907636 0.464902 -0.190042
C25   C     C_R   0.592324 0.038934 0.480606 -0.190239
C26   C     C_R   0.407774 0.961219 0.518162 -0.205033
C27   C     C_R   0.553776 0.946255 0.445931 0.010762
C28   C     C_R   0.446253 0.053809 0.553339 0.013321
C29   C     C_R   0.408404 0.458878 0.510238 0.485849
C30   C     C_R   0.591988 0.538329 0.486627 0.479904
C31   C     C_R   0.463525 0.513545 0.458099 -0.361865
C32   C     C_R   0.536317 0.485138 0.540328 -0.379705
C33   C     C_R   0.554894 0.553330 0.445827 -0.157184
C34   C     C_R   0.924938 0.743316 0.891263 -0.238825
C35   C     C_R   0.445105 0.445062 0.552406 -0.160982
C36   C     C_R   0.410767 0.494937 0.036020 -0.160411
C37   C     C_R   0.589151 0.504343 0.964114 -0.225889
C38   C     C_R   0.464434 0.548462 0.089503 -0.209645
C39   C     C_R   0.535146 0.450044 0.910940 -0.213372
C40   C     C_R   0.389938 0.389917 0.890274 0.792050
C41   C     C_R   0.610047 0.609848 0.109751 0.787989
C42   C     C_R   0.553923 0.553647 0.053622 0.018903
C43   C     C_R   0.445947 0.445602 0.946542 0.056362
C44   C     C_R   0.109510 0.110191 0.610321 0.832517
C45   C     C_R   0.121523 0.330394 0.173783 0.487743
C46   C     C_R   0.890703 0.889757 0.389434 0.827227
C47   C     C_R   0.389735 0.389961 0.609621 0.836433
C48   C     C_R   0.610238 0.610087 0.390377 0.855396
C49   C     C_R   0.111478 0.109788 0.890043 0.875851
C50   C     C_R   0.890719 0.889486 0.109248 0.860360
C51   C     C_R   0.255260 0.285782 0.093686 0.500295
C52   C     C_R   0.782985 0.719477 0.850875 0.471357
C53   C     C_R   0.205115 0.200098 0.051924 -0.258327
C54   C     C_R   0.830784 0.804407 0.896834 -0.164725
C55   C     C_R   0.113174 0.177480 0.074416 0.070579
C56   C     C_R   0.879036 0.657564 0.844133 0.498391
C57   C     C_R   0.900707 0.816820 0.918286 0.079313
C58   C     C_3   0.297788 0.348414 0.454102 0.063418
C59   C     C_3   0.197294 0.312383 0.473096 -0.276247
C60   C     C_3   0.169903 0.224360 0.400763 -0.932057
C61   C     C_3   0.729233 0.525243 0.430496 0.087226
C62   C     C_3   0.826430 0.578023 0.425860 -0.280702
C63   C     C_3   0.883901 0.517656 0.369160 -0.988149
C64   C     C_3   0.372589 0.346006 0.145213 0.080824
C65   C     C_3   0.466132 0.344753 0.115875 -0.301428
C66   C     C_3   0.500690 0.393394 0.194701 -0.997046
C67   C     C_R   0.213392 0.351270 0.153664 -0.377736
C68   C     C_3   0.657191 0.628923 0.802395 0.102585
C69   C     C_3   0.690681 0.582002 0.700704 -0.380703
C70   C     C_3   0.645074 0.481174 0.675545 -0.938585
C71   C     C_3   0.124400 0.477155 0.226217 0.092812
C72   C     C_3   0.157041 0.542867 0.306556 -0.343572
C73   C     C_3   0.223571 0.631089 0.292139 -0.988621
C74   C     C_3   0.989258 0.593624 0.767752 0.061925
C75   C     C_3   0.001763 0.502453 0.720779 -0.347255
C76   C     C_3   0.099621 0.509864 0.669133 -0.938193
C77   C     C_3   0.087498 0.043785 0.158913 0.070800
C78   C     C_R   0.807649 0.645780 0.825662 -0.347169
C79   C     C_3   0.063400 0.014159 0.234816 -0.269770
C80   C     C_3   0.143458 0.005615 0.232353 -1.043887
C81   C     C_3   0.079840 0.882558 0.763443 0.125078
C82   C     C_3   0.087327 0.850445 0.665884 -0.278444
C83   C     C_3   0.147637 0.792920 0.604100 -1.018449
C84   C     C_3   0.938346 0.183001 0.677059 0.105700
C85   C     C_3   0.940601 0.279861 0.727606 -0.331822
C86   C     C_3   0.871882 0.291716 0.821408 -0.957238
C87   C     C_3   0.058524 0.811541 0.325144 0.086709
C88   C     C_3   0.052767 0.713587 0.278364 -0.318498
C89   C     C_R   0.007934 0.028979 0.084598 0.427913
C90   C     C_3   0.124505 0.698240 0.186567 -0.984491
H1    H     H_    0.342193 0.492791 0.064300 0.137690
H2    H     H_    0.927827 0.521610 0.162198 0.151327
H3    H     H_    0.252366 0.418199 0.183620 0.135113
H4    H     H_    0.774320 0.578735 0.789308 0.164188
H5    H     H_    0.917352 0.063057 0.485563 0.196772
H6    H     H_    0.083830 0.936879 0.513268 0.191349
H7    H     H_    0.569883 0.163889 0.560652 0.162386
H8    H     H_    0.430132 0.836214 0.438315 0.162127
H9    H     H_    0.663664 0.070091 0.466831 0.165067
H10   H     H_    0.336568 0.930268 0.531294 0.162682
H11   H     H_    0.318635 0.296531 0.446405 0.130968
H12   H     H_    0.657999 0.507081 0.935530 0.177044
H13   H     H_    0.331704 0.363221 0.390649 0.120518
H14   H     H_    0.162326 0.302032 0.538759 0.275463
H15   H     H_    0.176681 0.361997 0.476496 0.211833
H16   H     H_    0.204068 0.233080 0.334374 0.245886
H17   H     H_    0.096842 0.201334 0.416123 0.285076
H18   H     H_    0.186779 0.172728 0.398561 0.265666
H19   H     H_    0.725960 0.492281 0.361312 0.139185
H20   H     H_    0.703886 0.473355 0.459910 0.125045
H21   H     H_    0.852790 0.630207 0.396628 0.258789
H22   H     H_    0.830344 0.611522 0.494617 0.226645
H23   H     H_    0.436184 0.586296 0.158550 0.150454
H24   H     H_    0.859055 0.465391 0.397724 0.278468
H25   H     H_    0.953600 0.557977 0.368305 0.263589
H26   H     H_    0.883188 0.485380 0.299348 0.259396
H27   H     H_    0.434083 0.525197 0.427783 0.195423
H28   H     H_    0.564456 0.477358 0.574691 0.197443
H29   H     H_    0.326396 0.310211 0.194497 0.120086
H30   H     H_    0.375274 0.416812 0.177696 0.152829
H31   H     H_    0.464958 0.274517 0.085544 0.218317
H32   H     H_    0.512347 0.377559 0.064497 0.237708
H33   H     H_    0.502511 0.463885 0.226033 0.280154
H34   H     H_    0.563068 0.411516 0.842168 0.158497
H35   H     H_    0.569280 0.392734 0.170840 0.261008
H36   H     H_    0.457343 0.359800 0.245564 0.253988
H37   H     H_    0.593288 0.636224 0.819529 0.157497
H38   H     H_    0.639957 0.588668 0.841537 0.144456
H39   H     H_    0.677184 0.607590 0.666525 0.242788
H40   H     H_    0.763828 0.596582 0.675793 0.231751
H41   H     H_    0.662221 0.453889 0.704943 0.257516
H42   H     H_    0.668089 0.449324 0.601707 0.256279
H43   H     H_    0.571685 0.464630 0.700212 0.293094
H44   H     H_    0.078183 0.500272 0.226967 0.154022
H45   H     H_    0.237331 0.150147 0.003797 0.138757
H46   H     H_    0.179998 0.477932 0.161507 0.128809
H47   H     H_    0.099027 0.555649 0.367518 0.224219
H48   H     H_    0.189323 0.513882 0.318372 0.223913
H49   H     H_    0.283733 0.620083 0.233587 0.261353
H50   H     H_    0.244127 0.677662 0.352313 0.268739
H51   H     H_    0.193026 0.661993 0.280668 0.274460
H52   H     H_    0.031397 0.637675 0.811532 0.131005
H53   H     H_    0.011391 0.622044 0.715782 0.130491
H54   H     H_    0.975987 0.471617 0.771477 0.228739
H55   H     H_    0.962980 0.458396 0.673832 0.227462
H56   H     H_    0.814097 0.861632 0.914914 0.167516
H57   H     H_    0.125993 0.537068 0.615333 0.266926
H58   H     H_    0.106061 0.442719 0.638420 0.270580
H59   H     H_    0.139697 0.553916 0.714823 0.266490
H60   H     H_    0.143667 0.107817 0.163739 0.156658
H61   H     H_    0.110574 0.992229 0.094178 0.102366
H62   H     H_    0.038441 0.063246 0.300109 0.242874
H63   H     H_    0.009826 0.948318 0.228257 0.214655
H64   H     H_    0.163509 0.950295 0.171562 0.265044
H65   H     H_    0.125666 0.991261 0.292365 0.260705
H66   H     H_    0.200702 0.068588 0.232229 0.276089
H67   H     H_    0.000730 0.224942 0.153619 0.155281
H68   H     H_    0.059755 0.823758 0.780562 0.112819
H69   H     H_    0.146664 0.927312 0.770533 0.135818
H70   H     H_    0.020020 0.810584 0.659056 0.226858
H71   H     H_    0.114737 0.909106 0.645294 0.249318
H72   H     H_    0.214453 0.830017 0.612049 0.265406
H73   H     H_    0.155289 0.774433 0.533464 0.271928
H74   H     H_    0.118027 0.730844 0.619759 0.262229
H75   H     H_    0.978556 0.572658 0.932026 0.174776
H76   H     H_    0.022322 0.428365 0.068569 0.157538
H77   H     H_    0.947614 0.160963 0.717767 0.132645
H78   H     H_    0.979359 0.753482 0.907569 0.127942
H79   H     H_    0.871991 0.141060 0.667753 0.129466
H80   H     H_    0.008052 0.323283 0.732874 0.247046
H81   H     H_    0.926674 0.300837 0.689704 0.218370
H82   H     H_    0.803905 0.248228 0.817801 0.263954
H83   H     H_    0.873428 0.362138 0.855372 0.275509
H84   H     H_    0.887148 0.274906 0.861670 0.265820
H85   H     H_    0.125191 0.852345 0.333924 0.128230
H86   H     H_    0.050884 0.832020 0.282048 0.135638
H87   H     H_    0.060544 0.692345 0.320519 0.217216
H88   H     H_    0.986271 0.672113 0.270124 0.245149
H89   H     H_    0.072964 0.479112 0.838142 0.165066
H90   H     H_    0.114693 0.714561 0.141921 0.271331
H91   H     H_    0.120364 0.627127 0.156036 0.268444
H92   H     H_    0.191772 0.740233 0.192807 0.263895
O1    O     O_3   0.249960 0.250040 0.750040 -0.481703
O2    O     O_R   0.865890 0.634160 0.194850 -0.666321
O3    O     O_R   0.305100 0.073510 0.634200 -0.660400
O4    O     O_R   0.694900 0.926490 0.365800 -0.645034
O5    O     O_R   0.134110 0.365830 0.926590 -0.653923
O6    O     O_R   0.865890 0.634170 0.073410 -0.637616
O7    O     O_R   0.426490 0.365840 0.805130 -0.660222
O8    O     O_R   0.573510 0.634160 0.194870 -0.654793
O9    O     O_R   0.134150 0.194970 0.634230 -0.613026
O10   O     O_R   0.865850 0.805030 0.365770 -0.598171
O11   O     O_R   0.426480 0.365860 0.634240 -0.663609
O12   O     O_3   0.750040 0.749960 0.249960 -0.487986
O13   O     O_R   0.573520 0.634140 0.365760 -0.657517
O14   O     O_R   0.134190 0.073490 0.805100 -0.617552
O15   O     O_R   0.865810 0.926510 0.194900 -0.596863
O16   O     O_R   0.305020 0.365860 0.634250 -0.600623
O17   O     O_R   0.694980 0.634140 0.365750 -0.607786
O18   O     O_R   0.134160 0.194930 0.926560 -0.644247
O19   O     O_R   0.865840 0.805070 0.073440 -0.655452
O20   O     O_3   0.317638 0.426364 0.526375 -0.615353
O21   O     O_3   0.679829 0.584712 0.483766 -0.618961
O22   O     O_3   0.346071 0.304691 0.069007 -0.638546
O23   O     O_R   0.305030 0.365830 0.926580 -0.643868
O24   O     O_3   0.717970 0.715420 0.828471 -0.638251
O25   O     O_3   0.075965 0.391355 0.234581 -0.643744
O26   O     O_3   0.898483 0.582771 0.819766 -0.636159
O27   O     O_3   0.013218 0.057754 0.168373 -0.609192
O28   O     O_3   0.016162 0.927494 0.818522 -0.613112
O29   O     O_3   0.007304 0.177410 0.593623 -0.636872
O30   O     O_3   0.989847 0.821107 0.408779 -0.622444
O31   O     O_R   0.694970 0.634170 0.073420 -0.636352
O32   O     O_R   0.134180 0.073510 0.634210 -0.659003
O33   O     O_R   0.865820 0.926490 0.365790 -0.665364
O34   O     O_R   0.426530 0.194970 0.634210 -0.645627
O35   O     O_R   0.573470 0.805030 0.365790 -0.647417
O36   O     O_R   0.134110 0.365840 0.805150 -0.652428
Zn1   Zn    Zn3+2 0.206570 0.293400 0.880180 0.962145
Zn2   Zn    Zn3+2 0.793430 0.706600 0.119820 0.966270
Zn3   Zn    Zn3+2 0.380110 0.293420 0.706660 0.941837
Zn4   Zn    Zn3+2 0.619890 0.706580 0.293340 0.952995
Zn5   Zn    Zn3+2 0.206560 0.293420 0.706670 0.976256
Zn6   Zn    Zn3+2 0.793440 0.706580 0.293330 0.972934
Zn7   Zn    Zn3+2 0.206610 0.119900 0.706640 0.952282
Zn8   Zn    Zn3+2 0.793390 0.880100 0.293360 0.970802

loop_
_geom_bond_atom_site_label_1
_geom_bond_atom_site_label_2
_ccdc_geom_bond_type
C51   C53   A    
C83   H74   S    
C34   C56   A    
C23   C45   A    
C87   O30   S    
C14   C18   A    
C53   H45   S    
C24   C27   A    
C6    C55   S    
C74   H53   S    
C35   C47   S    
O1    Zn7   S    
C71   H44   S    
C81   C82   S    
C84   O29   S    
C88   H87   S    
C74   O26   S    
C85   C86   S    
C75   H55   S    
C15   C19   A    
C87   H86   S    
C59   H15   S    
C64   H29   S    
C41   O8    A    
C44   O32   A    
C59   H14   S    
C14   C21   A    
O12   Zn6   S    
C19   C21   A    
C24   C26   A    
C38   C42   A    
O8    Zn4   S    
C44   O9    A    
C37   H12   S    
C5    C57   S    
O7    Zn3   S    
C79   H63   S    
C17   O6    A    
C56   C78   A    
C7    C9    A    
C41   C42   S    
C37   C42   A    
O32   Zn7   S    
O34   Zn3   S    
C31   H27   S    
C73   H49   S    
O14   Zn7   S    
C63   H24   S    
C25   H9    S    
C40   C43   S    
C11   C17   S    
C62   H21   S    
C90   H92   S    
C76   H57   S    
C68   C69   S    
C22   C25   A    
O4    Zn8   S    
C45   C67   A    
C1    C28   S    
C50   O15   A    
C31   C33   A    
C47   O16   A    
C16   O36   A    
C8    H2    S    
C65   H31   S    
O11   Zn3   S    
C68   H38   S    
C60   H18   S    
C77   O27   S    
O12   Zn4   S    
C63   H25   S    
O15   Zn8   S    
C49   O14   A    
C71   O25   S    
C81   O28   S    
C74   H52   S    
C61   H19   S    
C59   C60   S    
C45   O25   S    
C22   H7    S    
C22   C28   A    
C18   H5    S    
C77   H61   S    
C61   C62   S    
C1    O34   A    
C52   C78   A    
C61   H20   S    
O31   Zn2   S    
C52   C54   A    
C80   H66   S    
O6    Zn2   S    
C53   C55   A    
O1    Zn5   S    
C15   C20   A    
C37   C39   A    
C90   H90   S    
C2    O28   S    
C74   C75   S    
C40   O7    A    
C12   C27   S    
C32   C35   A    
O36   Zn5   S    
C84   C85   S    
O10   Zn6   S    
C4    C6    A    
C84   H79   S    
C32   H28   S    
C71   H46   S    
C38   H23   S    
C69   H40   S    
C73   H51   S    
C48   O17   A    
C58   C59   S    
C10   C13   A    
C39   H34   S    
C66   H36   S    
C86   H84   S    
C2    C4    A    
C75   C76   S    
C15   O30   S    
C30   O21   S    
C70   H43   S    
C21   C44   S    
C41   O31   A    
C56   O26   S    
C90   H91   S    
C8    C11   A    
C10   H76   S    
C12   O4    A    
C62   C63   S    
C70   H42   S    
C77   C79   S    
C7    H89   S    
C58   H11   S    
C51   C67   A    
C65   H32   S    
C80   H64   S    
C9    C11   A    
C68   H37   S    
C76   H58   S    
C60   H17   S    
C63   H26   S    
C14   O29   S    
C36   H1    S    
C8    C10   A    
C72   H47   S    
C73   H50   S    
C83   H72   S    
C88   C90   S    
C65   C66   S    
C48   O13   A    
C68   O24   S    
O3    Zn7   S    
O5    Zn1   S    
C24   H8    S    
C2    C5    A    
C36   C38   A    
O9    Zn5   S    
C12   O35   A    
C60   H16   S    
C51   O22   S    
C34   H78   S    
C80   H65   S    
C3    C50   S    
C86   H82   S    
C50   O19   A    
O35   Zn4   S    
O2    Zn6   S    
C83   H73   S    
C40   O23   A    
O23   Zn1   S    
O1    Zn1   S    
C29   O20   S    
C30   C33   A    
C52   O24   S    
C47   O11   A    
O12   Zn2   S    
O19   Zn2   S    
C46   O10   A    
C72   C73   S    
C3    C5    A    
C16   O5    A    
C77   H60   S    
O13   Zn4   S    
C39   C43   A    
C81   H69   S    
C88   H88   S    
C58   H13   S    
C82   H71   S    
C1    O3    A    
C25   C27   A    
C6    C89   A    
C87   H85   S    
C29   C35   A    
C26   C28   A    
C85   H80   S    
C64   H30   S    
C66   H35   S    
C54   H56   S    
C4    C49   S    
C3    C89   A    
C86   H83   S    
C81   H68   S    
C64   C65   S    
O33   Zn8   S    
C9    H75   S    
O16   Zn5   S    
C71   C72   S    
C29   C31   A    
C84   H77   S    
C61   O21   S    
C30   C32   A    
C17   O2    A    
O12   Zn8   S    
C76   H59   S    
C78   H4    S    
C34   C57   A    
C23   H67   S    
C23   C55   A    
C72   H48   S    
C70   H41   S    
C18   C20   A    
C64   O22   S    
C69   C70   S    
C75   H54   S    
C79   C80   S    
C85   H81   S    
C7    C13   A    
C62   H22   S    
O1    Zn3   S    
C58   O20   S    
C87   C88   S    
C69   H39   S    
C46   O33   A    
C13   C16   S    
C67   H3    S    
C33   C48   S    
C89   O27   S    
C66   H33   S    
C36   C43   A    
O17   Zn6   S    
O18   Zn1   S    
C82   C83   S    
C82   H70   S    
C54   C57   A    
C20   C46   S    
C19   H6    S    
C26   H10   S    
C79   H62   S    
C49   O18   A    
