data_mof_unit_12168.cif
_audit_creation_date              2012-12-11T15:41:20-0500
_audit_creation_method            fapswitch 2.2
_symmetry_space_group_name_H-M    P1
_symmetry_Int_Tables_number       1
_space_group_crystal_system       triclinic
_cell_length_a                    14.905757
_cell_length_b                    15.146408
_cell_length_c                    15.190512
_cell_angle_alpha                 109.367538
_cell_angle_beta                  110.270792
_cell_angle_gamma                 109.454977
_cell_volume                      2617.53592145

loop_
_atom_site_label
_atom_site_type_symbol
_atom_type_description
_atom_site_fract_x
_atom_site_fract_y
_atom_site_fract_z
_atom_type_partial_charge
C1    C     C_R   0.251218 0.064718 0.973595 -0.114789
C2    C     C_R   0.805392 0.005126 0.095114 -0.140229
C3    C     C_R   0.867302 0.303562 0.304345 -0.007182
C4    C     C_R   0.221349 0.675232 0.675126 0.000494
C5    C     C_R   0.504318 0.948990 0.306294 -0.124525
C6    C     C_R   0.500308 0.023372 0.684575 -0.131570
C7    C     C_R   0.499138 0.295205 0.929192 -0.011114
C8    C     C_R   0.506559 0.679509 0.982311 -0.026840
C9    C     C_R   0.203743 0.114578 0.590572 -0.054305
C10   C     C_R   0.815453 0.841407 0.299890 -0.082822
C11   C     C_R   0.305082 0.209136 0.673008 -0.125020
C12   C     C_R   0.717034 0.744930 0.215328 -0.127156
C13   C     C_R   0.309223 0.287996 0.758013 0.089987
C14   C     C_R   0.711966 0.682748 0.119640 0.088529
C15   C     C_R   0.210952 0.271463 0.758846 -0.171886
C16   C     C_R   0.807594 0.715136 0.111926 -0.132097
C17   C     C_R   0.110579 0.176141 0.677544 -0.122744
C18   C     C_R   0.905702 0.811081 0.196739 -0.126799
C19   C     C_R   0.107122 0.097441 0.593987 -0.091847
C20   C     C_R   0.909263 0.874809 0.289976 -0.121837
C21   C     C_R   0.421940 0.486408 0.865646 -0.199041
C22   C     C_R   0.601159 0.487594 0.006091 -0.187311
C23   C     C_R   0.803930 0.210657 0.301325 -0.093256
C24   C     C_R   0.248425 0.776701 0.686281 -0.119399
C25   C     C_R   0.513608 0.583131 0.957613 0.108583
C26   C     C_R   0.505283 0.389077 0.921018 0.094906
C27   C     C_R   0.607175 0.584477 0.025511 0.000678
C28   C     C_R   0.415159 0.387875 0.847120 0.021575
C29   C     C_R   0.035220 0.477932 0.380889 -0.151320
C30   C     C_R   0.127642 0.474606 0.572877 -0.157580
C31   C     C_R   0.125683 0.571623 0.474314 -0.163972
C32   C     C_R   0.036782 0.380933 0.479565 -0.156820
C33   C     C_R   0.163306 0.572982 0.573260 0.140294
C34   C     C_R   0.983060 0.385634 0.386512 0.136876
C35   C     C_R   0.575309 0.088476 0.588149 -0.154254
C36   C     C_R   0.433049 0.879029 0.403897 -0.146882
C37   C     C_R   0.579104 0.068076 0.495461 -0.199816
C38   C     C_R   0.429266 0.899609 0.497105 -0.204658
C39   C     C_R   0.508121 0.963491 0.404127 0.139065
C40   C     C_R   0.499807 0.004477 0.587668 0.143185
C41   C     C_R   0.129554 0.057011 0.154042 -0.166533
C42   C     C_R   0.035566 0.155241 0.056822 -0.160799
C43   C     C_R   0.038441 0.059437 0.156620 -0.168396
C44   C     C_R   0.126586 0.152734 0.054208 -0.158000
C45   C     C_R   0.410109 0.911866 0.211637 -0.171240
C46   C     C_R   0.593445 0.069107 0.783270 -0.125643
C47   C     C_R   0.984214 0.098509 0.098057 0.141077
C48   C     C_R   0.165781 0.092758 0.092027 0.142652
C49   C     C_R   0.590807 0.291478 0.986886 0.283166
C50   C     C_R   0.412229 0.687266 0.965883 0.279161
C51   C     C_R   0.594385 0.003304 0.301193 0.519700
C52   C     C_R   0.408045 0.983930 0.692574 0.491814
C53   C     C_R   0.407439 0.207198 0.905242 -0.171711
C54   C     C_R   0.595212 0.781828 0.034897 -0.168375
C55   C     C_R   0.803200 0.301170 0.211531 -0.097331
C56   C     C_R   0.246293 0.686212 0.776153 -0.112367
C57   C     C_R   0.250762 0.973333 0.063782 -0.107716
C58   C     C_R   0.803552 0.093249 0.002944 -0.112999
C59   C     C_R   0.225079 0.049512 0.048991 0.025088
C60   C     C_R   0.868517 0.065444 0.065301 0.032084
H1    H     H_    0.240790 0.116984 0.942156 0.097965
H2    H     H_    0.834670 0.983256 0.155662 0.110165
H3    H     H_    0.199951 0.054276 0.524212 0.109296
H4    H     H_    0.818633 0.890801 0.372496 0.121371
H5    H     H_    0.379825 0.220882 0.670703 0.123767
H6    H     H_    0.644213 0.720421 0.222758 0.131015
H7    H     H_    0.212642 0.331374 0.823888 0.167940
H8    H     H_    0.805143 0.667411 0.039032 0.139818
H9    H     H_    0.035567 0.163006 0.679648 0.126064
H10   H     H_    0.978587 0.836788 0.189587 0.115710
H11   H     H_    0.352857 0.487325 0.810775 0.145491
H12   H     H_    0.669381 0.491068 0.066772 0.169083
H13   H     H_    0.000918 0.482423 0.308230 0.126378
H14   H     H_    0.161373 0.470885 0.646161 0.123748
H15   H     H_    0.157457 0.644412 0.469903 0.114150
H16   H     H_    0.003473 0.308841 0.484712 0.118651
H17   H     H_    0.629621 0.169192 0.659264 0.147476
H18   H     H_    0.377673 0.798869 0.332148 0.138310
H19   H     H_    0.634807 0.134572 0.494008 0.143211
H20   H     H_    0.372554 0.834369 0.499219 0.126554
H21   H     H_    0.163293 0.017244 0.191349 0.106668
H22   H     H_    0.000302 0.192603 0.017041 0.120050
H23   H     H_    0.832654 0.179752 0.352964 0.155193
H24   H     H_    0.234932 0.795621 0.622600 0.159787
H25   H     H_    0.005421 0.021414 0.195679 0.109985
H26   H     H_    0.157724 0.188178 0.012528 0.116733
H27   H     H_    0.325193 0.859660 0.186315 0.139650
H28   H     H_    0.679491 0.112456 0.806783 0.147141
H29   H     H_    0.321242 0.178690 0.853722 0.144022
H30   H     H_    0.680186 0.807368 0.057889 0.141386
H31   H     H_    0.830730 0.353740 0.181739 0.150342
H32   H     H_    0.228852 0.622184 0.794083 0.150360
H33   H     H_    0.239367 0.940897 0.114814 0.095482
H34   H     H_    0.830056 0.151297 0.978016 0.113999
H35   H     H_    0.029401 0.023168 0.532345 0.103582
H36   H     H_    0.984816 0.950237 0.353910 0.102675
N1    N     N_R   0.293810 0.002730 0.945950 -0.042182
N2    N     N_R   0.706190 0.997270 0.054050 -0.044174
N3    N     N_R   0.706160 0.152130 0.208910 -0.045049
N4    N     N_R   0.293840 0.847870 0.791090 -0.040744
N5    N     N_R   0.443140 0.945920 0.152090 -0.068415
N6    N     N_R   0.556860 0.054080 0.847910 -0.063038
N7    N     N_R   0.556830 0.208940 0.002760 -0.067825
N8    N     N_R   0.443170 0.791060 0.997240 -0.066067
N9    N     N_R   0.556790 0.002750 0.208910 -0.073310
N10   N     N_R   0.443210 0.997250 0.791090 -0.072841
N11   N     N_R   0.443180 0.152110 0.945950 -0.061273
N12   N     N_R   0.556820 0.847890 0.054050 -0.056044
N13   N     N_R   0.706170 0.208950 0.152090 -0.042986
N14   N     N_R   0.293830 0.791050 0.847910 -0.042039
N15   N     N_R   0.293800 0.945910 0.002760 -0.040718
N16   N     N_R   0.706200 0.054090 0.997240 -0.039441
Ni1   Ni    Ni4+2 0.369690 0.999990 0.869700 0.255062
Ni2   Ni    Ni4+2 0.630310 0.000010 0.130300 0.242459
Ni3   Ni    Ni4+2 0.369670 0.869670 0.000000 0.248569
Ni4   Ni    Ni4+2 0.630330 0.130330 0.000000 0.240916
Br1   Br    Br    0.725395 0.345230 0.983592 -0.659747
Br2   Br    Br    0.286073 0.589646 0.960682 -0.636968
O1    O     O_3   0.702762 0.033203 0.365457 -0.805786
H37   H     H_    0.706240 0.009794 0.419635 0.308265
O2    O     O_3   0.303298 0.960520 0.625270 -0.795616
H38   H     H_    0.301815 0.966271 0.561801 0.305041

loop_
_geom_bond_atom_site_label_1
_geom_bond_atom_site_label_2
_ccdc_geom_bond_type
C18   H10   S    
C23   N3    A    
N4    N14   A    
C3    C23   A    
C42   H22   S    
N8    N12   A    
N3    Ni2   S    
C50   N8    A    
C46   N6    A    
C7    C26   S    
C23   H23   S    
C21   H11   S    
C58   N16   A    
C45   H27   S    
C54   H30   S    
C1    C59   A    
N1    N15   A    
C2    C60   A    
N2    Ni2   S    
C29   H13   S    
C58   C60   A    
N3    N13   A    
C56   N14   A    
C30   H14   S    
N11   Ni1   S    
C55   H31   S    
N13   Ni4   S    
C47   C60   S    
C4    C33   S    
C3    C55   A    
C9    C19   A    
C49   Br1   S    
C10   C20   A    
C38   H20   S    
C51   O1    S    
C31   C33   A    
C13   C28   S    
N6    N10   A    
C16   H8    S    
C14   C27   S    
C18   C20   A    
C20   H36   S    
C41   H21   S    
C38   C40   A    
C50   Br2   S    
C4    C56   A    
C8    C25   S    
C41   C43   A    
C42   C44   A    
C44   H26   S    
C10   C12   A    
C22   H12   S    
C46   H28   S    
N5    N9    A    
N2    N16   A    
N10   Ni1   S    
C43   H25   S    
N9    Ni2   S    
N6    Ni4   S    
C7    C49   A    
C8    C54   A    
C3    C34   S    
C5    C45   A    
C29   C34   A    
C35   H17   S    
C32   C34   A    
N12   Ni2   S    
C49   N7    A    
N8    Ni3   S    
C37   H19   S    
C52   O2    S    
C53   N11   A    
C31   H15   S    
C1    N1    A    
C51   N9    A    
C15   H7    S    
O1    H37   S    
C9    C11   A    
O2    H38   S    
C45   N5    A    
C16   C18   A    
C21   C28   A    
C12   C14   A    
C22   C27   A    
C13   C15   A    
C53   H29   S    
N5    Ni3   S    
C14   C16   A    
C7    C53   A    
N1    Ni1   S    
C8    C50   A    
N16   Ni4   S    
C19   H35   S    
C48   C59   S    
N7    N11   A    
C15   C17   A    
C21   C25   A    
C17   H9    S    
C6    C46   A    
C30   C33   A    
C35   C37   A    
C9    H3    S    
C36   C39   A    
C10   H4    S    
N4    Ni1   S    
C1    H1    S    
C32   H16   S    
N15   Ni3   S    
C24   N4    A    
C25   C27   A    
C26   C28   A    
C54   N12   A    
C5    C39   S    
C35   C40   A    
C24   H24   S    
C37   C39   A    
C44   C48   A    
C36   H18   S    
C30   C32   A    
C11   C13   A    
C57   N15   A    
C12   H6    S    
C4    C24   A    
C36   C38   A    
C17   C19   A    
C41   C48   A    
N7    Ni4   S    
C6    C40   S    
C42   C47   A    
C58   H34   S    
C57   C59   A    
C52   N10   A    
C2    H2    S    
C56   H32   S    
C2    N2    A    
C29   C31   A    
C22   C26   A    
C5    C51   A    
C57   H33   S    
C6    C52   A    
C43   C47   A    
N14   Ni3   S    
C55   N13   A    
C11   H5    S    
