data_mof_unit_51568.cif
_audit_creation_date              2012-12-10T17:30:18-0500
_audit_creation_method            fapswitch 2.2
_symmetry_space_group_name_H-M    P1
_symmetry_Int_Tables_number       1
_space_group_crystal_system       triclinic
_cell_length_a                    11.99036
_cell_length_b                    12.855752
_cell_length_c                    15.046767
_cell_angle_alpha                 90.122457
_cell_angle_beta                  86.343918
_cell_angle_gamma                 93.164793
_cell_volume                      2311.13250987

loop_
_atom_site_label
_atom_site_type_symbol
_atom_type_description
_atom_site_fract_x
_atom_site_fract_y
_atom_site_fract_z
_atom_type_partial_charge
C1    C     C_R   0.521999 0.700397 0.498179 0.871688
C2    C     C_R   0.365681 0.138360 0.474169 -0.199897
C3    C     C_R   0.445354 0.868033 0.476193 -0.299127
C4    C     C_R   0.554799 0.131971 0.523376 -0.300340
C5    C     C_R   0.450777 0.974611 0.485141 0.189735
C6    C     C_R   0.549385 0.025404 0.514392 0.189702
C7    C     C_R   0.956884 0.413022 0.407723 0.415818
C8    C     C_R   0.043130 0.587238 0.592042 0.412121
C9    C     C_R   0.839493 0.422549 0.416054 0.550155
C10   C     C_R   0.160545 0.577864 0.583655 0.540268
C11   C     C_R   0.856496 0.530267 0.543397 -0.087321
C12   C     C_R   0.478008 0.299601 0.501760 0.866250
C13   C     C_R   0.143507 0.469509 0.456712 -0.084652
C14   C     C_R   0.974611 0.529772 0.534316 -0.182030
C15   C     C_R   0.025392 0.470139 0.465684 -0.177115
C16   C     C_R   0.500604 0.500057 0.673439 0.927689
C17   C     C_R   0.499292 0.499087 0.326592 0.929193
C18   C     C_R   0.395854 0.495450 0.189532 0.599790
C19   C     C_R   0.603337 0.496242 0.810646 0.599097
C20   C     C_R   0.497665 0.496211 0.230728 -0.238905
C21   C     C_R   0.501732 0.498205 0.769374 -0.239703
C22   C     C_R   0.599301 0.493554 0.180202 -0.279650
C23   C     C_R   0.703632 0.491184 0.944613 -0.241620
C24   C     C_R   0.399779 0.497118 0.819874 -0.275690
C25   C     C_R   0.601244 0.491006 0.088100 0.008928
C26   C     C_R   0.397406 0.494296 0.912018 0.011358
C27   C     C_R   0.498965 0.491632 0.046390 -0.050936
C28   C     C_R   0.499612 0.492351 0.953732 -0.052880
C29   C     C_R   0.396115 0.493487 0.097366 -0.056921
C30   C     C_R   0.602684 0.492964 0.902789 -0.058402
C31   C     C_R   0.703562 0.488494 0.037090 0.508029
C32   C     C_R   0.294814 0.493313 0.962998 0.512283
C33   C     C_3   0.031173 0.257591 0.371777 -0.341752
C34   C     C_R   0.295145 0.494662 0.055581 -0.247059
C35   C     C_3   0.968483 0.742854 0.626830 -0.317072
C36   C     C_3   0.841687 0.389948 0.080138 -0.272494
C37   C     C_3   0.135979 0.402288 0.927547 -0.287763
C38   C     C_3   0.242840 0.727817 0.639356 -0.189862
C39   C     C_3   0.756897 0.273602 0.358737 -0.236233
C40   C     C_R   0.464462 0.188337 0.501329 -0.043565
C41   C     C_R   0.535604 0.811662 0.498421 -0.044077
C42   C     C_R   0.641323 0.969011 0.533507 -0.228385
C43   C     C_R   0.358822 0.031006 0.466064 -0.228416
C44   C     C_R   0.634401 0.861648 0.525541 -0.194028
F1    F     F_    0.296480 0.496717 0.238457 -0.666112
F2    F     F_    0.702955 0.497995 0.761814 -0.667569
H1    H     H_    0.677326 0.494009 0.212789 0.258718
H2    H     H_    0.282780 0.992387 0.444070 0.136918
H3    H     H_    0.185253 0.428233 0.402770 0.232134
H4    H     H_    0.814767 0.571373 0.597457 0.231975
H5    H     H_    0.964097 0.220784 0.417825 0.127540
H6    H     H_    0.110313 0.264254 0.406145 0.162131
H7    H     H_    0.044171 0.203862 0.314739 0.196427
H8    H     H_    0.888783 0.735680 0.593262 0.157931
H9    H     H_    0.034957 0.779016 0.579867 0.120276
H10   H     H_    0.956321 0.797423 0.683377 0.199878
H11   H     H_    0.779699 0.336345 0.117864 0.162868
H12   H     H_    0.321886 0.498098 0.787202 0.255985
H13   H     H_    0.920266 0.392000 0.115403 0.222058
H14   H     H_    0.860747 0.359341 0.011931 0.140755
H15   H     H_    0.186439 0.340302 0.896050 0.148845
H16   H     H_    0.059296 0.406543 0.890465 0.210128
H17   H     H_    0.109036 0.381197 0.997607 0.155724
H18   H     H_    0.183177 0.766195 0.686416 0.185702
H19   H     H_    0.235522 0.756770 0.570298 0.104475
H20   H     H_    0.328249 0.751801 0.658668 0.179015
H21   H     H_    0.763805 0.243674 0.427543 0.118932
H22   H     H_    0.816526 0.235617 0.311372 0.178352
H23   H     H_    0.783156 0.492523 0.906003 0.223125
H24   H     H_    0.671481 0.250293 0.339042 0.180853
H25   H     H_    0.216091 0.497838 0.094364 0.223452
H26   H     H_    0.630103 0.171169 0.546331 0.154980
H27   H     H_    0.370094 0.828828 0.453178 0.156645
H28   H     H_    0.295545 0.182263 0.456968 0.152481
H29   H     H_    0.704495 0.817748 0.542834 0.152776
H30   H     H_    0.717368 0.007631 0.555496 0.135433
N1    N     N_R   0.207800 0.519350 0.516680 -0.179364
N2    N     N_R   0.792200 0.480650 0.483320 -0.177818
O1    O     O_R   0.421700 0.658830 0.504450 -0.616220
O2    O     O_3   0.996821 0.645876 0.660858 -0.558243
O3    O     O_3   0.804255 0.491861 0.077353 -0.592309
O4    O     O_3   0.195082 0.500218 0.922384 -0.582534
O5    O     O_3   0.227587 0.618609 0.648126 -0.567470
O6    O     O_3   0.772657 0.382862 0.351037 -0.576452
O7    O     O_R   0.578300 0.341170 0.495550 -0.616266
O8    O     O_R   0.609310 0.646410 0.493750 -0.632501
O9    O     O_R   0.390690 0.353590 0.506250 -0.635713
O10   O     O_R   0.406180 0.506230 0.637500 -0.583162
O11   O     O_R   0.593820 0.493770 0.362500 -0.580593
O12   O     O_R   0.593800 0.493820 0.626800 -0.567425
O13   O     O_R   0.406200 0.506180 0.373200 -0.566645
O14   O     O_3   0.003235 0.355046 0.338488 -0.572180
Zn1   Zn    Zn3+2 0.374730 0.508290 0.507150 0.996817
Zn2   Zn    Zn3+2 0.625270 0.491710 0.492850 0.999040

loop_
_geom_bond_atom_site_label_1
_geom_bond_atom_site_label_2
_ccdc_geom_bond_type
C25   C31   A    
C16   O12   A    
C16   C21   S    
C38   O5    S    
C27   C29   A    
C39   H22   S    
C23   H23   S    
C17   O13   A    
C36   H13   S    
C37   H16   S    
C19   F2    S    
C33   H6    S    
C26   C32   A    
C12   O7    A    
C19   C21   A    
C24   C26   A    
C39   O6    S    
O1    Zn1   S    
C5    C6    A    
C11   C14   A    
C10   O5    S    
C17   C20   S    
O11   Zn2   S    
O8    Zn2   S    
C38   H20   S    
C22   C25   A    
C43   H2    S    
C36   O3    S    
C2    H28   S    
C7    C15   A    
C22   H1    S    
C5    C43   A    
C35   H8    S    
C42   C44   A    
C26   C28   A    
C37   H17   S    
C10   N1    A    
O12   Zn2   S    
C38   H18   S    
C33   H7    S    
C13   N1    A    
C35   H9    S    
C23   C30   A    
C4    C40   A    
C17   O11   A    
C4    C6    A    
C36   H11   S    
C33   O14   S    
C36   H14   S    
C29   C34   A    
C23   C31   A    
C12   C40   S    
C44   H29   S    
C11   N2    A    
O13   Zn1   S    
O7    Zn2   S    
C38   H19   S    
C2    C43   A    
C18   C29   A    
C13   H3    S    
C1    C41   S    
C20   C22   A    
C13   C15   A    
C1    O1    A    
C41   C44   A    
C37   O4    S    
C33   H5    S    
C18   F1    S    
C4    H26   S    
C8    O2    S    
C1    O8    A    
C7    C9    A    
O10   Zn1   S    
C3    C41   A    
C8    C14   A    
C12   O9    A    
C35   H10   S    
C39   H21   S    
C8    C10   A    
C3    C5    A    
C37   H15   S    
C25   C27   A    
C32   O4    S    
C42   H30   S    
C31   O3    S    
C28   C30   A    
C11   H4    S    
N2    Zn2   S    
C7    O14   S    
O9    Zn1   S    
N1    Zn1   S    
C39   H24   S    
C18   C20   A    
C9    N2    A    
C3    H27   S    
C9    O6    S    
C2    C40   A    
C35   O2    S    
C24   H12   S    
C6    C42   A    
C21   C24   A    
C27   C28   A    
C16   O10   A    
C14   C15   A    
C19   C30   A    
C34   H25   S    
C32   C34   A    
