data_mof_unit_16860.cif
_audit_creation_date              2012-12-11T14:29:49-0500
_audit_creation_method            fapswitch 2.2
_symmetry_space_group_name_H-M    P1
_symmetry_Int_Tables_number       1
_space_group_crystal_system       triclinic
_cell_length_a                    6.936306
_cell_length_b                    14.737286
_cell_length_c                    16.231198
_cell_angle_alpha                 90.506899
_cell_angle_beta                  89.835203
_cell_angle_gamma                 89.991137
_cell_volume                      1659.11897997

loop_
_atom_site_label
_atom_site_type_symbol
_atom_type_description
_atom_site_fract_x
_atom_site_fract_y
_atom_site_fract_z
_atom_type_partial_charge
O1    O     O_R   0.494400 0.416610 0.413880 -0.549156
O2    O     O_R   0.823920 0.406790 0.585520 -0.539050
O3    O     O_R   0.994250 0.583390 0.586120 -0.535213
C1    C     C_R   0.654391 0.384820 0.613266 0.779196
O4    O     O_R   0.824110 0.405730 0.414490 -0.551804
O5    O     O_R   0.994440 0.582310 0.413870 -0.539188
C2    C     C_R   0.654767 0.380601 0.388859 0.665201
O6    O     O_R   0.494210 0.417690 0.586130 -0.547767
O7    O     O_3   0.660810 0.557940 0.500000 -0.366900
V1    V     V_3+5 0.935650 0.489250 0.500000 1.399560
O8    O     O_R   0.324160 0.593210 0.414480 -0.543708
C3    C     C_R   0.155566 0.614987 0.386322 0.737374
O9    O     O_R   0.323970 0.594270 0.585510 -0.537898
C4    C     C_R   0.154951 0.616226 0.613838 0.699395
V2    V     V_3+5 0.435660 0.510750 0.500000 1.403301
O10   O     O_3   0.160630 0.442060 0.500000 -0.376063
H1    H     H_    0.849592 0.896690 0.517896 0.119535
C5    C     C_R   0.304237 0.577079 0.776239 -0.140422
C6    C     C_R   0.376404 0.555760 0.853685 -0.113542
C7    C     C_R   0.364159 0.618407 0.917928 -0.117709
C8    C     C_R   0.279789 0.702897 0.905221 -0.137475
C9    C     C_R   0.207403 0.727111 0.826949 0.070289
C10   C     C_R   0.219768 0.662794 0.761023 0.068299
C11   C     C_R   0.120164 0.812953 0.814254 -0.185180
C12   C     C_R   0.045646 0.834428 0.735423 0.057976
C13   C     C_R   0.057931 0.770094 0.669499 0.071245
C14   C     C_R   0.144666 0.684133 0.682265 -0.184903
C15   C     C_R   0.962244 0.920354 0.720104 -0.135571
C16   C     C_R   0.891475 0.941984 0.642489 -0.111870
C17   C     C_R   0.903490 0.879292 0.578260 -0.124167
C18   C     C_R   0.986382 0.794485 0.591132 -0.131811
H2    H     H_    0.314387 0.525200 0.728902 0.113507
H3    H     H_    0.440866 0.489940 0.864032 0.121783
H4    H     H_    0.419045 0.601219 0.978179 0.115115
H5    H     H_    0.270720 0.748411 0.957715 0.101460
H6    H     H_    0.952153 0.972184 0.767482 0.151982
H7    H     H_    0.828261 0.008056 0.632012 0.126412
H8    H     H_    0.995293 0.748907 0.538673 0.108045
C19   C     C_2   0.985449 0.709714 0.283171 -0.133039
C20   C     C_2   0.150543 0.682722 0.319459 -0.312019
H9    H     H_    0.849442 0.681641 0.304308 0.136549
H10   H     H_    0.288211 0.710201 0.300448 0.128789
C21   C     C_2   0.972893 0.777169 0.215198 -0.130430
C22   C     C_2   0.126060 0.814506 0.177114 -0.305402
H11   H     H_    0.828812 0.796075 0.195720 0.131938
H12   H     H_    0.271236 0.796225 0.194796 0.127271
C23   C     C_2   0.781713 0.205742 0.778474 0.618137
C24   C     C_2   0.616677 0.179375 0.816123 -0.403652
H13   H     H_    0.479176 0.207705 0.798384 0.118657
C25   C     C_2   0.791041 0.274633 0.711854 -0.212008
C26   C     C_2   0.637495 0.316817 0.679122 -0.409451
H14   H     H_    0.934042 0.290807 0.688800 0.171831
H15   H     H_    0.492714 0.301827 0.699946 0.144715
C27   C     C_2   0.771641 0.229708 0.200071 0.663354
C28   C     C_2   0.611454 0.186429 0.173779 -0.361416
H16   H     H_    0.472204 0.207780 0.197746 0.130304
C29   C     C_2   0.761750 0.304883 0.261892 -0.287833
C30   C     C_2   0.644645 0.304041 0.328476 0.192123
H17   H     H_    0.857437 0.362274 0.252472 0.111767
O11   O     O_R   0.770210 0.079270 0.910680 -0.501233
O12   O     O_R   0.440150 0.091160 0.082270 -0.540542
O13   O     O_R   0.269970 0.914530 0.082860 -0.551656
C31   C     C_R   0.608694 0.114747 0.109337 0.766770
O14   O     O_R   0.440480 0.090100 0.911240 -0.537897
O15   O     O_R   0.270310 0.913460 0.910610 -0.542953
C32   C     C_R   0.609661 0.111541 0.882846 0.786612
O16   O     O_R   0.769870 0.080340 0.082930 -0.501684
O17   O     O_3   0.603660 0.938980 0.996790 -0.395844
V3    V     V_3+5 0.328750 0.007610 0.996740 1.518989
O18   O     O_R   0.940600 0.902510 0.911180 -0.547161
C33   C     C_R   0.109648 0.880748 0.882752 0.686406
O19   O     O_R   0.940270 0.903570 0.082200 -0.547036
C34   C     C_R   0.109417 0.881876 0.110374 0.727292
V4    V     V_3+5 0.828770 0.986010 0.996670 1.519781
O20   O     O_3   0.103730 0.054750 0.996710 -0.333112
F1    F     F_    0.953097 0.168937 0.801386 -0.690213
F2    F     F_    0.945445 0.211792 0.164492 -0.685857
O21   O     O_3   0.556818 0.222416 0.349519 -0.579115
C35   C     C_3   0.358836 0.232414 0.368705 0.086524
H18   H     H_    0.279462 0.180445 0.332190 0.159067
H19   H     H_    0.295352 0.298847 0.350889 0.124315
C36   C     C_3   0.325862 0.213184 0.460257 -0.308639
H20   H     H_    0.395955 0.147876 0.476373 0.200764
H21   H     H_    0.392659 0.267642 0.498155 0.200318
C37   C     C_3   0.111533 0.206969 0.481029 -0.779365
H22   H     H_    0.037171 0.270910 0.464926 0.253078
H23   H     H_    0.093127 0.195209 0.548098 0.222603
H24   H     H_    0.043948 0.149794 0.446668 0.229324

loop_
_geom_bond_atom_site_label_1
_geom_bond_atom_site_label_2
_ccdc_geom_bond_type
C28   H16   S    
C6    C7    A    
C1    O6    A    
C19   H9    S    
C37   H22   S    
C12   C15   A    
C13   C14   A    
C15   C16   A    
C23   F1    S    
O5    C3    A    
C17   C18   A    
C29   H17   S    
O17   V4    S    
V2    O10   S    
C5    C6    A    
O12   C31   A    
O8    V2    S    
O17   V3    S    
C28   C31   S    
O18   V4    S    
C25   H14   S    
O13   C34   A    
O18   C33   A    
O1    V2    S    
C10   C14   A    
C4    C14   S    
O7    V1    S    
C2    C30   S    
C27   F2    S    
C7    H4    S    
C20   H10   S    
O11   C32   A    
C13   C18   A    
O9    C4    A    
H1    C17   S    
C22   H12   S    
C23   C25   S    
C37   H23   S    
C31   O16   A    
V4    O20   S    
C1    C26   S    
C5    C10   A    
C11   C12   A    
O19   V4    S    
C6    H3    S    
C19   C20   D    
C35   H19   S    
O21   C35   S    
C19   C21   S    
C12   C13   A    
O15   C33   A    
O13   V3    S    
C26   H15   S    
O14   C32   A    
C3    C20   S    
O2    C1    A    
C21   C22   D    
C16   C17   A    
C23   C24   D    
C25   C26   D    
O16   V4    S    
O14   V3    S    
C21   H11   S    
O3    C4    A    
C24   H13   S    
O6    V2    S    
C36   H21   S    
O9    V2    S    
C9    C11   A    
C5    H2    S    
O2    V1    S    
O4    C2    A    
C37   H24   S    
O12   V3    S    
C27   C28   D    
O1    C2    A    
O19   C34   A    
O5    V1    S    
C35   C36   S    
O8    C3    A    
C8    H5    S    
C36   C37   S    
C18   H8    S    
O7    V2    S    
O4    V1    S    
O3    V1    S    
V1    O10   S    
C29   C30   D    
O15   V3    S    
O11   V4    S    
V3    O20   S    
C22   C34   S    
C30   O21   S    
C35   H18   S    
C7    C8    A    
C15   H6    S    
C36   H20   S    
C16   H7    S    
C9    C10   A    
C24   C32   S    
C8    C9    A    
C11   C33   S    
C27   C29   S    
