data_mof_unit_30761.cif
_audit_creation_date              2012-12-10T20:00:55-0500
_audit_creation_method            fapswitch 2.2
_symmetry_space_group_name_H-M    P1
_symmetry_Int_Tables_number       1
_space_group_crystal_system       triclinic
_cell_length_a                    18.41944
_cell_length_b                    18.437586
_cell_length_c                    39.649775
_cell_angle_alpha                 89.967055
_cell_angle_beta                  89.994989
_cell_angle_gamma                 90.099393
_cell_volume                      13465.4379079

loop_
_atom_site_label
_atom_site_type_symbol
_atom_type_description
_atom_site_fract_x
_atom_site_fract_y
_atom_site_fract_z
_atom_type_partial_charge
C1    C     C_R   0.500006 0.000155 0.909150 0.797679
C2    C     C_R   0.500459 0.003673 0.801100 -0.225955
C3    C     C_R   0.738065 0.683145 0.017892 -0.193292
C4    C     C_R   0.315797 0.262871 0.018856 -0.180928
C5    C     C_R   0.262627 0.684654 0.018972 -0.188177
C6    C     C_R   0.684573 0.737309 0.019007 -0.180577
C7    C     C_R   0.736746 0.315913 0.018682 -0.184521
C8    C     C_R   0.800993 0.252767 0.526063 -0.229522
C9    C     C_R   0.768353 0.822436 0.508160 -0.198166
C10   C     C_R   0.202797 0.743631 0.527636 -0.211708
C11   C     C_R   0.261048 0.207306 0.528522 -0.198148
C12   C     C_R   0.822585 0.768565 0.508044 -0.197055
C13   C     C_R   0.536500 0.982184 0.302264 -0.186748
C14   C     C_R   0.747577 0.198970 0.526055 -0.207583
C15   C     C_R   0.208965 0.262348 0.529218 -0.201855
C16   C     C_R   0.257610 0.796132 0.528270 -0.205668
C17   C     C_3   0.143018 0.801415 0.967585 0.274225
C18   C     C_3   0.197875 0.142079 0.968751 0.273087
C19   C     C_3   0.857213 0.198182 0.968503 0.276982
C20   C     C_3   0.801304 0.855983 0.967158 0.274774
C21   C     C_3   0.155871 0.204019 0.952393 0.160242
C22   C     C_3   0.205462 0.843357 0.951476 0.160383
C23   C     C_3   0.842404 0.793558 0.950802 0.155326
C24   C     C_R   0.000085 0.508327 0.301414 -0.227678
C25   C     C_3   0.795179 0.156428 0.952018 0.157102
C26   C     C_3   0.672293 0.267994 0.443741 0.157187
C27   C     C_3   0.681447 0.619975 0.486280 0.227486
C28   C     C_3   0.317524 0.749474 0.440493 0.202040
C29   C     C_3   0.226697 0.296329 0.437208 0.180549
C30   C     C_3   0.621022 0.679318 0.486018 0.208594
C31   C     C_3   0.730135 0.328835 0.443963 0.136260
C32   C     C_3   0.273582 0.227913 0.436397 0.078824
C33   C     C_3   0.250014 0.700338 0.438624 0.099353
C34   C     C_R   0.971773 0.443480 0.818223 0.403236
C35   C     C_1   0.997792 0.507743 0.765055 0.190555
C36   C     C_R   0.557224 0.968448 0.818505 0.399982
C37   C     C_R   0.025734 0.564806 0.819555 0.406861
C38   C     C_R   0.443533 0.037707 0.818863 0.402321
C39   C     C_R   0.480562 0.941461 0.317635 0.382508
C40   C     C_R   0.052856 0.466809 0.318487 0.390828
C41   C     C_R   0.587841 0.019612 0.322313 0.431425
C42   C     C_R   0.947401 0.547728 0.319696 0.406373
C43   C     C_R   0.961373 0.447280 0.853501 -0.038932
C44   C     C_R   0.550212 0.957369 0.853676 -0.042116
C45   C     C_R   0.040089 0.555324 0.854200 -0.024691
C46   C     C_1   0.500392 0.004428 0.764874 0.201605
C47   C     C_R   0.450232 0.046436 0.854180 -0.042406
C48   C     C_R   0.463832 0.953210 0.352168 -0.035263
C49   C     C_R   0.044142 0.454598 0.353382 -0.011976
C50   C     C_R   0.574263 0.029013 0.357358 -0.076386
C51   C     C_R   0.955626 0.554330 0.355066 -0.048778
C52   C     C_3   0.906057 0.397297 0.870663 -0.288592
C53   C     C_3   0.842687 0.439978 0.886224 -0.387385
C54   C     C_3   0.787735 0.389028 0.902703 -0.880351
C55   C     C_3   0.593576 0.897424 0.871317 -0.296517
C56   C     C_3   0.544118 0.838027 0.886064 -0.394589
C57   C     C_1   0.537114 0.989481 0.265673 0.203667
C58   C     C_3   0.588530 0.779988 0.904167 -0.879070
C59   C     C_3   0.103184 0.596830 0.870306 -0.314259
C60   C     C_3   0.176181 0.568224 0.857222 -0.374546
C61   C     C_3   0.239489 0.612558 0.871170 -0.856685
C62   C     C_3   0.407194 0.105652 0.872481 -0.296595
C63   C     C_3   0.457008 0.163773 0.888017 -0.394221
C64   C     C_3   0.412855 0.221839 0.906210 -0.879322
C65   C     C_3   0.394743 0.920480 0.367726 -0.293458
C66   C     C_3   0.342305 0.978917 0.380777 -0.394221
C67   C     C_3   0.263853 0.952065 0.381944 -0.866198
C68   C     C_1   0.998819 0.508354 0.265176 0.194437
C69   C     C_3   0.072637 0.384553 0.369072 -0.271875
C70   C     C_3   0.023219 0.320613 0.359710 -0.410399
C71   C     C_3   0.051571 0.249638 0.374480 -0.837416
C72   C     C_3   0.627740 0.071004 0.379442 -0.285892
C73   C     C_3   0.676745 0.019146 0.399620 -0.311534
C74   C     C_3   0.735426 0.060094 0.418966 -0.876080
C75   C     C_3   0.919656 0.616731 0.374266 -0.293148
C76   C     C_3   0.975917 0.668326 0.390042 -0.405611
C77   C     C_3   0.938944 0.729568 0.409396 -0.865805
C78   C     C_3   0.388666 0.974534 0.207535 -0.354378
C79   C     C_1   0.533167 0.994521 0.235234 0.000674
C80   C     C_3   0.342883 0.043309 0.212072 -0.406885
C81   C     C_3   0.286577 0.033861 0.239986 -0.768935
C82   C     C_3   0.036761 0.372998 0.202760 -0.364898
C83   C     C_3   0.971282 0.323263 0.209027 -0.383014
C84   C     C_3   0.990515 0.261265 0.232897 -0.806502
C85   C     C_3   0.659307 0.023517 0.193688 -0.409133
C86   C     C_3   0.668991 0.103241 0.203886 -0.301775
C87   C     C_3   0.747413 0.119816 0.213733 -0.758970
C88   C     C_3   0.957481 0.637001 0.199599 -0.370764
C89   C     C_3   0.022143 0.687903 0.205588 -0.374182
C90   C     C_1   0.998120 0.507226 0.234876 0.023460
C91   C     C_3   0.999290 0.755754 0.224822 -0.794201
C92   C     C_3   0.882913 0.429007 0.702127 -0.358383
C93   C     C_3   0.811560 0.471860 0.701873 -0.385388
C94   C     C_3   0.754444 0.436120 0.724308 -0.800670
C95   C     C_3   0.535293 0.870336 0.701722 -0.375823
C96   C     C_3   0.468692 0.824655 0.711234 -0.372646
C97   C     C_3   0.489221 0.762676 0.734871 -0.804735
C98   C     C_3   0.111108 0.585148 0.700288 -0.376831
C99   C     C_3   0.178303 0.539230 0.708399 -0.362335
C100  C     C_3   0.237254 0.584388 0.725448 -0.819067
C101  C     C_1   0.997796 0.508230 0.734784 0.017078
C102  C     C_3   0.464523 0.136433 0.699839 -0.382288
C103  C     C_3   0.530517 0.182357 0.709922 -0.365352
C104  C     C_3   0.508570 0.245042 0.732838 -0.807544
C105  C     C_3   0.371096 0.979795 0.131603 -0.431377
C106  C     C_3   0.341148 0.051658 0.117527 -0.373405
C107  C     C_3   0.260284 0.045781 0.109497 -0.787411
C108  C     C_3   0.022047 0.365489 0.126755 -0.430471
C109  C     C_3   0.948671 0.336095 0.114126 -0.369071
C110  C     C_3   0.953138 0.255395 0.105803 -0.785902
C111  C     C_3   0.641539 0.030837 0.119600 -0.433182
C112  C     C_R   0.001155 0.500009 0.909165 0.789387
C113  C     C_1   0.500372 0.004456 0.734592 0.029895
C114  C     C_3   0.683842 0.961555 0.110946 -0.366173
C115  C     C_3   0.761458 0.979364 0.100321 -0.757872
C116  C     C_3   0.976702 0.637843 0.123799 -0.431627
C117  C     C_3   0.050612 0.666030 0.111197 -0.366568
C118  C     C_3   0.047984 0.747143 0.103531 -0.778717
C119  C     C_3   0.885041 0.420866 0.626216 -0.434572
C120  C     C_3   0.832420 0.468508 0.605784 -0.337108
C121  C     C_3   0.768602 0.423304 0.592842 -0.789951
C122  C     C_3   0.506681 0.863115 0.626367 -0.400341
C123  C     C_3   0.428838 0.841466 0.616470 -0.385664
C124  C     C_R   0.453772 0.987604 0.184305 0.074053
C125  C     C_3   0.425634 0.763673 0.603440 -0.817259
C126  C     C_3   0.124181 0.562156 0.625125 -0.423774
C127  C     C_3   0.169319 0.499716 0.610198 -0.377748
C128  C     C_3   0.233941 0.528642 0.590123 -0.826787
C129  C     C_3   0.494299 0.139143 0.624237 -0.424372
C130  C     C_3   0.571943 0.159952 0.613571 -0.369763
C131  C     C_3   0.572136 0.226349 0.590549 -0.820083
C132  C     C_R   0.015746 0.439537 0.181823 0.074508
C133  C     C_R   0.584973 0.011297 0.177798 0.067498
C134  C     C_R   0.980334 0.568864 0.180311 0.073326
C135  C     C_R   0.942264 0.467155 0.681502 0.070969
C136  C     C_R   0.514089 0.937363 0.681276 0.074606
C137  C     C_R   0.054556 0.541213 0.680720 0.068017
C138  C     C_R   0.486905 0.068577 0.680350 0.075029
C139  C     C_R   0.445308 0.989685 0.148502 0.045934
C140  C     C_R   0.999894 0.499660 0.409221 0.798266
C141  C     C_R   0.012894 0.436908 0.146021 0.043506
C142  C     C_R   0.576381 0.014195 0.142261 0.044732
C143  C     C_R   0.985015 0.568185 0.144544 0.045032
C144  C     C_R   0.942785 0.464370 0.645646 0.045037
C145  C     C_R   0.507722 0.935094 0.645635 0.034690
C146  C     C_R   0.058096 0.534491 0.645104 0.048678
C147  C     C_R   0.493334 0.068579 0.644686 0.044490
C148  C     C_R   0.507203 0.001144 0.127874 -0.083051
C149  C     C_R   0.999604 0.501780 0.127795 -0.081790
C150  C     C_R   0.000089 0.499535 0.627844 -0.086410
C151  C     C_R   0.500985 0.999719 0.409116 0.804268
C152  C     C_R   0.500235 0.001212 0.627684 -0.086112
C153  C     C_R   0.523922 0.997974 0.198671 0.005776
C154  C     C_R   0.997898 0.505139 0.198489 0.007381
C155  C     C_R   0.997598 0.506400 0.698450 0.011221
C156  C     C_R   0.500537 0.003527 0.698236 0.010784
C157  C     C_R   0.500171 0.000122 0.090803 0.800759
C158  C     C_R   0.999954 0.500127 0.090731 0.804903
C159  C     C_R   0.999762 0.499867 0.590756 0.804770
C160  C     C_R   0.500030 0.000010 0.590689 0.807529
C161  C     C_R   0.639789 0.859419 0.000088 0.833022
C162  C     C_R   0.001183 0.500514 0.871916 -0.158712
C163  C     C_R   0.140481 0.639822 0.000139 0.830724
C164  C     C_R   0.360164 0.140445 0.000174 0.835589
C165  C     C_R   0.859468 0.360225 0.000146 0.836894
C166  C     C_R   0.638536 0.141609 0.998813 0.832669
C167  C     C_R   0.141576 0.361346 0.998885 0.835420
C168  C     C_R   0.361423 0.858430 0.998837 0.836410
C169  C     C_R   0.858309 0.638496 0.998792 0.836094
C170  C     C_R   0.140548 0.360370 0.500164 0.788710
C171  C     C_R   0.639797 0.140529 0.500081 0.793192
C172  C     C_R   0.859945 0.639868 0.500086 0.849464
C173  C     C_R   0.500056 0.001217 0.871860 -0.147642
C174  C     C_R   0.360542 0.859322 0.500281 0.808045
C175  C     C_R   0.139815 0.640621 0.499631 0.796063
C176  C     C_R   0.639637 0.859708 0.500254 0.851715
C177  C     C_R   0.859325 0.360390 0.500118 0.834393
C178  C     C_R   0.358986 0.139365 0.499418 0.786501
C179  C     C_R   0.257587 0.793240 0.969864 -0.048065
C180  C     C_R   0.206298 0.256805 0.970246 -0.039508
C181  C     C_R   0.742559 0.206758 0.969932 -0.039643
C182  C     C_R   0.792447 0.741590 0.969505 -0.040419
C183  C     C_R   0.252652 0.198950 0.975682 -0.156185
C184  C     C_R   0.511038 0.997202 0.372008 -0.106993
C185  C     C_R   0.199601 0.746760 0.975143 -0.148180
C186  C     C_R   0.746236 0.799713 0.974822 -0.155156
C187  C     C_R   0.800590 0.253025 0.975441 -0.161556
C188  C     C_R   0.737558 0.315726 0.481344 0.088003
C189  C     C_R   0.680821 0.732644 0.492279 -0.029362
C190  C     C_R   0.253622 0.694352 0.476436 0.079620
C191  C     C_R   0.296394 0.243909 0.472208 0.053991
C192  C     C_R   0.733175 0.681124 0.491834 -0.049261
C193  C     C_R   0.685615 0.261274 0.480950 0.046419
C194  C     C_R   0.246661 0.300728 0.473618 0.070498
C195  C     C_R   0.999839 0.502821 0.372097 -0.149171
C196  C     C_R   0.310374 0.743761 0.478039 0.034699
C197  C     C_R   0.311584 0.797212 0.995106 0.027218
C198  C     C_R   0.202733 0.311319 0.995242 0.026885
C199  C     C_R   0.688199 0.202994 0.995003 0.029917
C200  C     C_R   0.796851 0.688070 0.994965 0.027725
C201  C     C_R   0.308604 0.200408 0.998806 0.022115
C202  C     C_R   0.200519 0.691402 0.998644 0.026849
C203  C     C_R   0.691154 0.799176 0.998498 0.024138
C204  C     C_R   0.799280 0.308781 0.998660 0.026552
C205  C     C_R   0.799362 0.308852 0.502007 -0.111572
C206  C     C_R   0.997892 0.505566 0.801224 -0.229545
C207  C     C_R   0.695751 0.804686 0.500120 -0.023889
C208  C     C_R   0.197868 0.694666 0.500542 -0.111604
C209  C     C_R   0.303414 0.195839 0.499494 -0.110489
C210  C     C_R   0.805092 0.696142 0.499802 -0.014238
C211  C     C_R   0.691955 0.200016 0.501823 -0.110267
C212  C     C_R   0.199276 0.307549 0.501086 -0.112383
C213  C     C_R   0.309106 0.799440 0.502150 -0.136633
C214  C     C_R   0.316839 0.738192 0.017841 -0.194506
C215  C     C_R   0.262199 0.316965 0.017747 -0.194243
C216  C     C_R   0.682528 0.262330 0.017527 -0.196616
H1    H     H_    0.360642 0.735157 0.035999 0.166552
H2    H     H_    0.783261 0.877676 0.514393 0.160496
H3    H     H_    0.710282 0.094965 0.438479 0.237104
H4    H     H_    0.771824 0.020766 0.431736 0.248309
H5    H     H_    0.644089 0.987599 0.418024 0.188528
H6    H     H_    0.703049 0.979666 0.382392 0.277178
H7    H     H_    0.660531 0.109589 0.364471 0.263234
H8    H     H_    0.599173 0.108243 0.396694 0.234899
H9    H     H_    0.904173 0.762065 0.392221 0.278852
H10   H     H_    0.905073 0.707083 0.430111 0.251827
H11   H     H_    0.980772 0.765785 0.420532 0.247330
H12   H     H_    0.012131 0.639358 0.407796 0.221981
H13   H     H_    0.162984 0.743049 0.547738 0.174335
H14   H     H_    0.010198 0.692121 0.369761 0.239130
H15   H     H_    0.886220 0.651025 0.357542 0.269678
H16   H     H_    0.881920 0.595434 0.393690 0.231840
H17   H     H_    0.250884 0.986701 0.234488 0.265837
H18   H     H_    0.313850 0.025555 0.264670 0.287335
H19   H     H_    0.252514 0.083358 0.241665 0.248186
H20   H     H_    0.378745 0.089787 0.218625 0.238849
H21   H     H_    0.313860 0.056356 0.188410 0.236842
H22   H     H_    0.355220 0.928180 0.198833 0.202634
H23   H     H_    0.406226 0.956575 0.232745 0.267692
H24   H     H_    0.267310 0.172966 0.550501 0.173046
H25   H     H_    0.035978 0.228815 0.222411 0.263578
H26   H     H_    0.006260 0.282900 0.257991 0.288533
H27   H     H_    0.942620 0.225272 0.236157 0.245274
H28   H     H_    0.926186 0.355131 0.220285 0.243472
H29   H     H_    0.952054 0.299728 0.184932 0.234340
H30   H     H_    0.082674 0.343097 0.191325 0.195187
H31   H     H_    0.059555 0.389167 0.227459 0.263861
H32   H     H_    0.765375 0.083976 0.234595 0.304972
H33   H     H_    0.783876 0.111934 0.191722 0.226670
H34   H     H_    0.751800 0.177065 0.222176 0.255026
H35   H     H_    0.877845 0.783586 0.514280 0.160188
H36   H     H_    0.653759 0.139299 0.182563 0.204792
H37   H     H_    0.632543 0.115923 0.225372 0.271217
H38   H     H_    0.666306 0.987235 0.215590 0.256872
H39   H     H_    0.704076 0.006834 0.176802 0.208561
H40   H     H_    0.957076 0.785757 0.210504 0.258818
H41   H     H_    0.977716 0.740925 0.250043 0.301069
H42   H     H_    0.047033 0.791830 0.228307 0.246657
H43   H     H_    0.064518 0.659036 0.220350 0.245953
H44   H     H_    0.046270 0.704855 0.181249 0.235845
H45   H     H_    0.911900 0.665149 0.186957 0.196326
H46   H     H_    0.751904 0.154907 0.544014 0.178178
H47   H     H_    0.933458 0.622974 0.224370 0.262996
H48   H     H_    0.743708 0.379739 0.715763 0.262912
H49   H     H_    0.773018 0.435304 0.750948 0.293024
H50   H     H_    0.703056 0.467374 0.722911 0.243158
H51   H     H_    0.821718 0.527879 0.711131 0.242912
H52   H     H_    0.789436 0.475408 0.675992 0.233972
H53   H     H_    0.875083 0.372152 0.693832 0.200740
H54   H     H_    0.898900 0.421853 0.728723 0.268340
H55   H     H_    0.530299 0.727104 0.722792 0.263459
H56   H     H_    0.511439 0.784435 0.758866 0.291161
H57   H     H_    0.175170 0.268370 0.551395 0.172052
H58   H     H_    0.440249 0.729765 0.740693 0.245372
H59   H     H_    0.427715 0.859365 0.723970 0.246987
H60   H     H_    0.443682 0.801253 0.688259 0.230777
H61   H     H_    0.576631 0.837334 0.688486 0.197804
H62   H     H_    0.564205 0.886439 0.725087 0.261468
H63   H     H_    0.254335 0.629740 0.708766 0.257242
H64   H     H_    0.217189 0.606622 0.749701 0.300861
H65   H     H_    0.285197 0.549724 0.730661 0.244400
H66   H     H_    0.162578 0.493920 0.725426 0.239816
H67   H     H_    0.201173 0.515478 0.685042 0.228427
H68   H     H_    0.257958 0.835650 0.548472 0.175447
H69   H     H_    0.125479 0.635800 0.686751 0.196149
H70   H     H_    0.088490 0.606066 0.724271 0.262648
H71   H     H_    0.468240 0.280234 0.719982 0.260389
H72   H     H_    0.484909 0.224008 0.756686 0.293480
H73   H     H_    0.557172 0.278142 0.739061 0.246179
H74   H     H_    0.570739 0.148079 0.723422 0.247196
H75   H     H_    0.556822 0.205073 0.687115 0.224950
H76   H     H_    0.424285 0.169089 0.685708 0.192344
H77   H     H_    0.433985 0.121092 0.722906 0.259862
H78   H     H_    0.250540 0.001596 0.090992 0.289209
H79   H     H_    0.100914 0.782326 0.949695 0.144460
H80   H     H_    0.228822 0.034563 0.132831 0.241756
H81   H     H_    0.240899 0.097712 0.098550 0.272126
H82   H     H_    0.349570 0.096326 0.135903 0.223609
H83   H     H_    0.369766 0.066641 0.093961 0.246263
H84   H     H_    0.375434 0.939556 0.110855 0.207801
H85   H     H_    0.330255 0.956142 0.148725 0.213740
H86   H     H_    0.996203 0.245580 0.086739 0.295801
H87   H     H_    0.965497 0.223573 0.128889 0.238117
H88   H     H_    0.900231 0.236552 0.095604 0.270194
H89   H     H_    0.905908 0.344136 0.133533 0.224313
H90   H     H_    0.216702 0.099706 0.951023 0.146943
H91   H     H_    0.931741 0.365534 0.091043 0.246035
H92   H     H_    0.059420 0.373078 0.105054 0.208064
H93   H     H_    0.048549 0.323062 0.141961 0.213619
H94   H     H_    0.761223 0.016215 0.078163 0.297721
H95   H     H_    0.791081 0.005938 0.121373 0.231710
H96   H     H_    0.790421 0.928591 0.093673 0.273078
H97   H     H_    0.685925 0.924232 0.132946 0.227877
H98   H     H_    0.655936 0.932545 0.090057 0.242926
H99   H     H_    0.625568 0.057962 0.095809 0.211569
H100  H     H_    0.677183 0.071884 0.131642 0.210729
H101  H     H_    0.899884 0.216985 0.950870 0.144938
H102  H     H_    0.004546 0.758796 0.084882 0.294793
H103  H     H_    0.037119 0.778388 0.126929 0.238092
H104  H     H_    0.101059 0.765046 0.093147 0.274306
H105  H     H_    0.093472 0.656321 0.130401 0.226338
H106  H     H_    0.066481 0.637007 0.087837 0.245183
H107  H     H_    0.940099 0.628479 0.101977 0.207734
H108  H     H_    0.949632 0.681573 0.137926 0.215531
H109  H     H_    0.788413 0.379154 0.576187 0.262780
H110  H     H_    0.737901 0.399350 0.614252 0.241671
H111  H     H_    0.731021 0.457915 0.578235 0.295864
H112  H     H_    0.265628 0.361082 0.035695 0.164907
H113  H     H_    0.782282 0.898340 0.949431 0.143853
H114  H     H_    0.811361 0.513374 0.621653 0.224004
H115  H     H_    0.859989 0.493050 0.583700 0.235283
H116  H     H_    0.911629 0.380901 0.609420 0.228410
H117  H     H_    0.851844 0.386249 0.642791 0.207036
H118  H     H_    0.463785 0.756731 0.582055 0.300784
H119  H     H_    0.440249 0.725057 0.623844 0.263659
H120  H     H_    0.369781 0.751101 0.594626 0.244638
H121  H     H_    0.391989 0.846463 0.638522 0.226350
H122  H     H_    0.408100 0.877745 0.596418 0.249054
H123  H     H_    0.541077 0.866911 0.603415 0.211605
H124  H     H_    0.167671 0.205847 0.924798 0.051645
H125  H     H_    0.530584 0.818033 0.640871 0.218475
H126  H     H_    0.214855 0.563124 0.568914 0.257939
H127  H     H_    0.270302 0.561009 0.606666 0.262625
H128  H     H_    0.265320 0.482535 0.579591 0.261894
H129  H     H_    0.189615 0.464379 0.630820 0.224186
H130  H     H_    0.136304 0.465470 0.593128 0.226861
H131  H     H_    0.106467 0.599638 0.604891 0.225993
H132  H     H_    0.161889 0.595077 0.640355 0.208426
H133  H     H_    0.541227 0.214817 0.567086 0.259365
H134  H     H_    0.547518 0.273525 0.603648 0.265071
H135  H     H_    0.208089 0.831104 0.923947 0.046515
H136  H     H_    0.628864 0.240325 0.583569 0.256207
H137  H     H_    0.605282 0.171830 0.636211 0.219720
H138  H     H_    0.598749 0.114874 0.600059 0.252171
H139  H     H_    0.459109 0.133392 0.601640 0.201810
H140  H     H_    0.471381 0.185763 0.638010 0.206948
H141  H     H_    0.829257 0.790993 0.923353 0.052142
H142  H     H_    0.793519 0.168530 0.924447 0.048485
H143  H     H_    0.690958 0.219531 0.429615 0.040061
H144  H     H_    0.689450 0.594199 0.461248 0.134666
H145  H     H_    0.307151 0.805327 0.431204 0.023953
H146  H     H_    0.168047 0.285240 0.433067 0.016671
H147  H     H_    0.596563 0.687076 0.460645 0.105182
H148  H     H_    0.638409 0.265580 0.035512 0.164374
H149  H     H_    0.780250 0.313088 0.430159 0.035010
H150  H     H_    0.239313 0.178157 0.435307 0.025743
H151  H     H_    0.201092 0.731125 0.430548 0.022426
H152  H     H_    0.156849 0.884233 0.052825 0.373562
H153  H     H_    0.116510 0.158052 0.054254 0.372706
H154  H     H_    0.839548 0.122564 0.055078 0.365216
H155  H     H_    0.885881 0.840583 0.052040 0.371115
H156  H     H_    0.035316 0.249005 0.907451 0.349085
H157  H     H_    0.251296 0.963411 0.906307 0.349825
H158  H     H_    0.960908 0.746893 0.904953 0.356956
H159  H     H_    0.735249 0.639684 0.036230 0.165297
H160  H     H_    0.748804 0.036612 0.907024 0.349184
H161  H     H_    0.488618 0.337284 0.461844 0.407156
H162  H     H_    0.674076 0.575002 0.574342 0.378922
H163  H     H_    0.468151 0.617909 0.433820 0.391358
H164  H     H_    0.358816 0.437376 0.415242 0.423169
H165  H     H_    0.450212 0.733942 0.521791 0.362911
H166  H     H_    0.799330 0.474938 0.417159 0.362989
H167  H     H_    0.352437 0.111262 0.422467 0.298368
H168  H     H_    0.152568 0.624466 0.391182 0.327005
H169  H     H_    0.957959 0.246584 0.809043 0.396670
H170  H     H_    0.359911 0.267996 0.036749 0.160932
H171  H     H_    0.750406 0.925850 0.809953 0.397313
H172  H     H_    0.031085 0.763057 0.816432 0.396785
H173  H     H_    0.250664 0.082230 0.810501 0.396508
H174  H     H_    0.403521 0.760210 0.307572 0.406486
H175  H     H_    0.244299 0.418265 0.310140 0.412823
H176  H     H_    0.782984 0.068631 0.317102 0.384080
H177  H     H_    0.759505 0.610613 0.313075 0.404094
H178  H     H_    0.764015 0.351735 0.883653 0.271760
H179  H     H_    0.814453 0.356681 0.922756 0.261021
H180  H     H_    0.743257 0.421154 0.914229 0.250216
H181  H     H_    0.267333 0.640981 0.037106 0.163092
H182  H     H_    0.862004 0.478593 0.905667 0.215411
H183  H     H_    0.814937 0.471648 0.866149 0.237334
H184  H     H_    0.880718 0.359434 0.852548 0.263255
H185  H     H_    0.932742 0.362118 0.889609 0.249235
H186  H     H_    0.626851 0.753640 0.886366 0.273246
H187  H     H_    0.619643 0.804507 0.925280 0.256258
H188  H     H_    0.551597 0.737926 0.914594 0.250420
H189  H     H_    0.504737 0.860669 0.904346 0.214356
H190  H     H_    0.512823 0.812167 0.865310 0.238848
H191  H     H_    0.630220 0.868855 0.853776 0.266458
H192  H     H_    0.641152 0.732827 0.037304 0.162144
H193  H     H_    0.629625 0.920617 0.890930 0.245012
H194  H     H_    0.234972 0.670008 0.862982 0.279430
H195  H     H_    0.240078 0.610190 0.899171 0.247081
H196  H     H_    0.291459 0.590209 0.861560 0.255721
H197  H     H_    0.182769 0.510725 0.865120 0.217092
H198  H     H_    0.178182 0.569994 0.829273 0.268033
H199  H     H_    0.098640 0.655751 0.865525 0.271135
H200  H     H_    0.105441 0.591289 0.897982 0.201170
H201  H     H_    0.375814 0.249632 0.888290 0.272689
H202  H     H_    0.380372 0.197008 0.926801 0.256465
H203  H     H_    0.731712 0.359877 0.036619 0.161115
H204  H     H_    0.450063 0.262773 0.917346 0.250356
H205  H     H_    0.495369 0.139872 0.906427 0.214048
H206  H     H_    0.489411 0.189910 0.867693 0.239373
H207  H     H_    0.370989 0.135530 0.855203 0.266263
H208  H     H_    0.370798 0.081626 0.891753 0.245454
H209  H     H_    0.244315 0.939198 0.356122 0.284609
H210  H     H_    0.259472 0.902944 0.397995 0.252014
H211  H     H_    0.228630 0.995038 0.392719 0.252269
H212  H     H_    0.358044 0.994040 0.406790 0.201261
H213  H     H_    0.344694 0.027869 0.364406 0.272355
H214  H     H_    0.845224 0.248475 0.543946 0.176826
H215  H     H_    0.364085 0.887279 0.349547 0.281708
H216  H     H_    0.408963 0.882507 0.388400 0.241815
H217  H     H_    0.107411 0.238613 0.365225 0.291884
H218  H     H_    0.052054 0.252395 0.402460 0.238392
H219  H     H_    0.015636 0.204250 0.366668 0.256079
H220  H     H_    0.967619 0.330600 0.369590 0.220830
H221  H     H_    0.019575 0.315062 0.331876 0.265956
H222  H     H_    0.128784 0.373135 0.360913 0.299968
H223  H     H_    0.075048 0.386871 0.396890 0.200431
H224  H     H_    0.768376 0.094014 0.401564 0.281778
O1    O     O_3   0.500000 0.000000 0.000020 -0.503836
O2    O     O_R   0.500000 0.939230 0.425200 -0.641698
O3    O     O_3   0.169282 0.588877 0.408206 -0.483397
O4    O     O_2   0.876885 0.356814 0.786256 -0.355930
O5    O     O_2   0.002092 0.354959 0.765117 -0.311117
O6    O     O_3   0.975274 0.289926 0.821429 -0.562890
O7    O     O_2   0.629595 0.861830 0.787043 -0.347580
O8    O     O_2   0.650315 0.984721 0.765455 -0.306052
O9    O     O_3   0.710135 0.950199 0.821996 -0.562149
O10   O     O_2   0.117242 0.660358 0.790378 -0.353381
O11   O     O_2   0.992218 0.659625 0.769390 -0.305267
O12   O     O_3   0.016143 0.717271 0.827540 -0.560865
O13   O     O_R   0.060770 0.500000 0.425200 -0.568906
O14   O     O_2   0.372167 0.146072 0.788175 -0.347518
O15   O     O_2   0.350477 0.024179 0.765684 -0.307629
O16   O     O_3   0.290669 0.057126 0.822409 -0.562677
O17   O     O_2   0.362132 0.890211 0.285680 -0.367478
O18   O     O_2   0.479483 0.849820 0.263315 -0.291284
O19   O     O_3   0.435803 0.794698 0.319513 -0.496863
O20   O     O_2   0.120897 0.353577 0.289520 -0.349569
O21   O     O_2   0.145761 0.473058 0.264940 -0.314669
O22   O     O_3   0.204290 0.443020 0.322193 -0.468743
O23   O     O_2   0.689388 0.998427 0.274578 -0.331374
O24   O     O_R   0.500000 0.060770 0.425200 -0.580170
O25   O     O_2   0.661886 0.124099 0.290257 -0.323172
O26   O     O_3   0.742495 0.046011 0.329774 -0.576370
O27   O     O_2   0.885921 0.663108 0.290007 -0.344097
O28   O     O_2   0.851527 0.544191 0.267380 -0.306211
O29   O     O_3   0.797495 0.581993 0.324687 -0.538130
O30   O     O_R   0.500000 0.939250 0.074840 -0.636618
O31   O     O_R   0.060750 0.500000 0.074840 -0.646492
O32   O     O_R   0.500000 0.060750 0.074840 -0.654076
O33   O     O_R   0.939250 0.500000 0.074840 -0.648064
O34   O     O_R   1.000000 0.439250 0.574840 -0.655940
O35   O     O_R   0.560750 0.000000 0.574840 -0.646129
O36   O     O_R   0.000000 0.560750 0.574840 -0.641172
O37   O     O_3   1.000000 0.500000 0.000020 -0.504583
O38   O     O_R   0.439250 0.000000 0.574840 -0.652322
O39   O     O_R   0.646140 0.914530 0.980400 -0.592664
O40   O     O_R   0.085470 0.646140 0.980400 -0.596054
O41   O     O_R   0.353860 0.085470 0.980400 -0.594536
O42   O     O_R   0.914530 0.353860 0.980400 -0.593649
O43   O     O_R   0.646140 0.085470 0.980400 -0.549844
O44   O     O_R   0.085470 0.353860 0.980400 -0.548909
O45   O     O_R   0.353860 0.914530 0.980400 -0.550138
O46   O     O_R   0.914530 0.646140 0.980400 -0.547894
O47   O     O_R   0.146140 0.414530 0.480400 -0.581787
O48   O     O_3   1.000000 0.500000 0.500020 -0.505167
O49   O     O_R   0.585470 0.146140 0.480400 -0.589828
O50   O     O_R   0.853860 0.585470 0.480400 -0.593116
O51   O     O_R   0.414530 0.853860 0.480400 -0.564274
O52   O     O_R   0.146140 0.585470 0.480400 -0.561792
O53   O     O_R   0.585470 0.853860 0.480400 -0.582173
O54   O     O_R   0.853860 0.414530 0.480400 -0.568320
O55   O     O_R   0.414530 0.146140 0.480400 -0.576720
O56   O     O_R   0.414550 0.146130 0.019630 -0.666892
O57   O     O_R   0.853870 0.414550 0.019630 -0.668807
O58   O     O_R   0.585450 0.853870 0.019630 -0.667629
O59   O     O_3   0.500000 0.000000 0.500020 -0.505701
O60   O     O_R   0.146130 0.585450 0.019630 -0.670679
O61   O     O_R   0.414550 0.853870 0.019630 -0.671216
O62   O     O_R   0.853870 0.585450 0.019630 -0.672691
O63   O     O_R   0.585450 0.146130 0.019630 -0.673997
O64   O     O_R   0.146130 0.414550 0.019630 -0.671843
O65   O     O_R   0.914550 0.646130 0.519630 -0.647434
O66   O     O_R   0.353870 0.914550 0.519630 -0.656835
O67   O     O_R   0.085450 0.353870 0.519630 -0.656878
O68   O     O_R   0.646130 0.085450 0.519630 -0.655750
O69   O     O_R   0.914550 0.353870 0.519630 -0.660911
O70   O     O_R   0.439230 0.000000 0.925200 -0.629539
O71   O     O_R   0.353870 0.085450 0.519630 -0.656373
O72   O     O_R   0.085450 0.646130 0.519630 -0.664184
O73   O     O_R   0.646130 0.914550 0.519630 -0.653560
O74   O     O_2   0.060345 0.899703 0.002086 -0.105635
O75   O     O_2   0.071491 0.778120 0.026630 -0.318285
O76   O     O_3   0.180005 0.863202 0.032523 -0.536668
O77   O     O_2   0.099754 0.060463 0.004150 -0.108195
O78   O     O_2   0.221842 0.071721 0.028285 -0.312398
O79   O     O_3   0.137506 0.180612 0.033771 -0.537808
O80   O     O_2   0.937813 0.099802 0.004213 -0.103477
O81   O     O_R   1.000000 0.439230 0.925200 -0.627557
O82   O     O_2   0.926922 0.222075 0.027998 -0.318871
O83   O     O_3   0.817487 0.138052 0.033469 -0.544458
O84   O     O_2   0.900514 0.938040 0.001738 -0.103671
O85   O     O_2   0.779114 0.925878 0.026575 -0.317218
O86   O     O_3   0.864406 0.817797 0.031733 -0.537490
O87   O     O_2   0.029506 0.131990 0.947698 -0.214723
O88   O     O_2   0.039377 0.223612 0.992124 -0.152245
O89   O     O_3   0.025027 0.267592 0.930387 -0.553597
O90   O     O_2   0.133109 0.969245 0.945884 -0.217368
O91   O     O_2   0.223692 0.961005 0.990816 -0.150787
O92   O     O_R   0.560770 0.000000 0.925200 -0.630210
O93   O     O_3   0.269207 0.974366 0.929302 -0.549238
O94   O     O_2   0.968364 0.865833 0.944009 -0.219335
O95   O     O_2   0.961322 0.776147 0.989319 -0.149152
O96   O     O_3   0.972760 0.729563 0.927948 -0.540237
O97   O     O_2   0.867102 0.030555 0.946603 -0.214372
O98   O     O_2   0.776492 0.039396 0.991566 -0.150256
O99   O     O_3   0.731006 0.025536 0.930032 -0.547910
O100  O     O_2   0.570871 0.334037 0.403438 -0.167223
O101  O     O_2   0.537779 0.219461 0.428949 -0.219046
O102  O     O_3   0.540698 0.332649 0.467648 -0.479340
O103  O     O_R   0.000000 0.560770 0.925200 -0.629998
O104  O     O_2   0.615984 0.514471 0.523566 -0.203454
O105  O     O_2   0.745762 0.502969 0.513672 -0.267563
O106  O     O_3   0.704652 0.598955 0.557057 -0.539411
O107  O     O_2   0.403526 0.711123 0.387980 -0.222715
O108  O     O_2   0.464538 0.763087 0.436517 -0.253955
O109  O     O_3   0.418943 0.631098 0.441784 -0.449232
O110  O     O_2   0.269563 0.360921 0.378605 -0.223520
O111  O     O_2   0.202473 0.434935 0.418509 -0.196512
O112  O     O_3   0.336391 0.405992 0.432663 -0.467119
O113  O     O_2   0.509167 0.610699 0.516803 -0.218937
O114  O     O_R   0.939230 0.500000 0.425200 -0.671992
O115  O     O_2   0.587197 0.685733 0.553129 -0.273690
O116  O     O_3   0.497882 0.749977 0.512948 -0.533642
O117  O     O_2   0.679638 0.422026 0.396493 -0.235563
O118  O     O_2   0.639016 0.443525 0.454486 -0.150801
O119  O     O_3   0.769664 0.479476 0.437876 -0.494941
O120  O     O_2   0.315526 0.225329 0.371049 -0.230876
O121  O     O_2   0.400413 0.281974 0.410974 -0.145357
O122  O     O_3   0.387906 0.142453 0.410591 -0.487562
O123  O     O_2   0.296549 0.617451 0.385315 -0.192690
O124  O     O_2   0.287570 0.558269 0.440591 -0.149531
S1    S     S_3+6 0.110663 0.836872 0.007773 0.138298
S2    S     S_3+6 0.685919 0.556025 0.520605 0.103504
S3    S     S_3+6 0.403554 0.714176 0.425836 0.108868
S4    S     S_3+6 0.258334 0.376327 0.415405 0.135222
S5    S     S_3+6 0.553410 0.679121 0.518803 0.086535
S6    S     S_3+6 0.701683 0.419733 0.432968 0.126480
S7    S     S_3+6 0.346011 0.222217 0.406158 0.135372
S8    S     S_3+6 0.254400 0.614005 0.417674 0.157019
S9    S     S_3+6 0.955559 0.360553 0.796147 -0.019032
S10   S     S_3+6 0.637438 0.940276 0.796686 -0.012485
S11   S     S_3+6 0.039008 0.651392 0.800206 -0.006446
S12   S     S_3+6 0.163085 0.110649 0.009327 0.139847
S13   S     S_3+6 0.363584 0.067368 0.797250 -0.012455
S14   S     S_3+6 0.438379 0.868932 0.294820 -0.000767
S15   S     S_3+6 0.131254 0.432707 0.297194 0.010138
S16   S     S_3+6 0.671277 0.048137 0.303260 -0.014861
S17   S     S_3+6 0.870036 0.585461 0.298915 -0.002606
S18   S     S_3+6 0.887922 0.163255 0.009121 0.138627
S19   S     S_3+6 0.837660 0.887482 0.007353 0.139879
S20   S     S_3+6 0.059773 0.205168 0.956762 0.103939
S21   S     S_3+6 0.206217 0.939608 0.955468 0.103333
S22   S     S_3+6 0.938866 0.792908 0.954062 0.104458
S23   S     S_3+6 0.794035 0.060310 0.956148 0.106558
S24   S     S_3+6 0.578328 0.288981 0.434763 0.149362
Zn1   Zn    Zn3+2 0.500000 0.913220 0.028040 0.969571
Zn2   Zn    Zn3+2 1.000000 0.586730 0.971990 1.049611
Zn3   Zn    Zn3+2 0.413270 0.000000 0.971990 1.050968
Zn4   Zn    Zn3+2 1.000000 0.413270 0.971990 1.049160
Zn5   Zn    Zn3+2 0.086730 0.500000 0.471990 1.079935
Zn6   Zn    Zn3+2 0.500000 0.086730 0.471990 1.055209
Zn7   Zn    Zn3+2 0.913270 0.500000 0.471990 1.024332
Zn8   Zn    Zn3+2 0.500000 0.913270 0.471990 1.051329
Zn9   Zn    Zn3+2 0.086780 0.500000 0.028040 0.961679
Zn10  Zn    Zn3+2 0.500000 0.086780 0.028040 0.961008
Zn11  Zn    Zn3+2 0.913220 0.500000 0.028040 0.963454
Zn12  Zn    Zn3+2 0.000000 0.413220 0.528040 0.950842
Zn13  Zn    Zn3+2 0.586780 0.000000 0.528040 0.966253
Zn14  Zn    Zn3+2 1.000000 0.586780 0.528040 0.969223
Zn15  Zn    Zn3+2 0.413220 0.000000 0.528040 0.952251
Zn16  Zn    Zn3+2 0.586730 0.000000 0.971990 1.048895

loop_
_geom_bond_atom_site_label_1
_geom_bond_atom_site_label_2
_ccdc_geom_bond_type
C9    H2    S    
O35   Zn13  S    
C87   H34   S    
C94   H48   S    
C140  O13   A    
C126  C127  S    
C95   H61   S    
C26   H143  S    
C76   H12   S    
C18   C21   S    
C37   C206  A    
C41   C50   A    
C54   H179  S    
C89   H43   S    
C122  H125  S    
C28   H145  S    
C132  C141  A    
C159  O34   A    
C114  C115  S    
C181  C187  A    
H155  O86   S    
C151  C184  S    
H171  O9    S    
C86   H37   S    
O92   Zn16  S    
C31   S6    S    
O69   Zn12  S    
C193  C211  A    
O37   Zn11  S    
C106  C107  S    
C101  C155  S    
C56   H190  S    
C72   H8    S    
C61   H196  S    
O72   Zn14  S    
C108  C109  S    
C18   H90   S    
H153  O79   S    
C30   C189  S    
C55   H193  S    
C50   C72   S    
C157  O32   A    
C125  H120  S    
C111  C142  S    
C134  C143  A    
C146  C150  A    
C11   C15   A    
C64   H201  S    
O88   S20   D    
C20   H113  S    
C26   S24   S    
C48   C65   S    
O53   Zn8   S    
O33   Zn11  S    
C129  H139  S    
C77   H10   S    
C78   H22   S    
C49   C69   S    
C70   H220  S    
C114  H97   S    
C215  H112  S    
C158  O33   A    
C94   H50   S    
C161  O39   A    
O104  S2    D    
O38   Zn15  S    
C28   S3    S    
O39   Zn16  S    
C102  H77   S    
C76   C77   S    
C73   C74   S    
C188  C205  A    
C85   H39   S    
C150  C159  S    
C183  C201  A    
C137  C146  A    
C63   H205  S    
O9    S10   S    
C23   C182  S    
C9    C207  A    
C48   C184  A    
C107  H80   S    
C22   C179  S    
C49   C195  A    
C118  H104  S    
C83   H28   S    
C42   S17   S    
C32   C191  S    
O97   S23   D    
C185  C202  A    
C16   H68   S    
C115  H95   S    
C75   C76   S    
C59   H200  S    
C52   H185  S    
O40   Zn2   S    
O116  S5    S    
C84   H25   S    
H169  O6    S    
O52   Zn5   S    
O31   Zn9   S    
O3    S8    S    
C105  H85   S    
O1    Zn10  S    
C106  H82   S    
C127  H129  S    
C32   H150  S    
C169  C200  S    
C179  C185  A    
C166  O63   A    
C71   H218  S    
C60   H198  S    
C28   C33   S    
C76   H14   S    
C58   H188  S    
C36   C44   A    
C92   C135  S    
C128  H127  S    
C37   C45   A    
C169  O46   A    
C105  C106  S    
C120  H115  S    
C45   C59   S    
H177  O29   S    
C168  O45   A    
C50   C184  A    
O114  Zn7   S    
C72   C73   S    
C164  O56   A    
C97   H56   S    
O7    S10   D    
C73   H5    S    
C69   H222  S    
C174  C213  S    
C6    H192  S    
C130  C131  S    
C191  C194  A    
O113  S5    D    
C6    C203  A    
C131  H133  S    
C91   H42   S    
C51   C195  A    
H154  O83   S    
H158  O96   S    
C44   C55   S    
O59   Zn15  S    
C4    C201  A    
C18   C183  S    
O50   Zn7   S    
C167  C198  S    
C115  H96   S    
C10   H13   S    
C69   C70   S    
C129  C147  S    
C180  C198  A    
O49   Zn6   S    
C20   C186  S    
C143  C149  A    
C170  C212  S    
C126  H131  S    
C108  H92   S    
C98   C99   S    
C74   H4    S    
C174  O66   A    
C19   S18   S    
C140  O114  A    
C22   S21   S    
C67   H211  S    
C158  O31   A    
C171  O68   A    
C197  C214  A    
C53   H183  S    
C119  H117  S    
C151  O2    A    
O65   Zn14  S    
C80   H20   S    
C124  C139  A    
H162  O106  S    
C21   H124  S    
C3    C6    A    
C47   C62   S    
O44   Zn4   S    
C107  H78   S    
C163  O60   A    
C93   H52   S    
C85   C86   S    
O87   S20   D    
C118  H102  S    
C1    C173  S    
C161  O58   A    
C12   H35   S    
C14   C211  A    
C165  C204  S    
O61   Zn1   S    
C65   H216  S    
C171  O49   A    
C78   C80   S    
C121  H110  S    
C13   C57   S    
C40   C49   A    
C30   S5    S    
C109  H89   S    
C137  C155  A    
C15   H57   S    
C10   C208  A    
C92   C93   S    
C144  C150  A    
C14   H46   S    
C166  C199  S    
O60   Zn9   S    
C132  C154  A    
C81   H19   S    
C20   S19   S    
O62   Zn11  S    
O1    Zn16  S    
C172  O50   A    
C89   C91   S    
C149  C158  S    
C138  C147  A    
C7    C216  A    
C66   C67   S    
C110  H87   S    
C96   C97   S    
C83   H29   S    
C8    C205  A    
C165  O42   A    
O98   S23   D    
C41   S16   S    
C139  C148  A    
C82   H30   S    
C102  C103  S    
C125  H118  S    
O63   Zn10  S    
C175  O52   A    
O16   S13   S    
O59   Zn13  S    
C117  H106  S    
C11   H24   S    
C168  C197  S    
C194  C212  A    
C31   H149  S    
C119  H116  S    
C130  H137  S    
C177  O54   A    
C25   S23   S    
O81   Zn4   S    
C80   H21   S    
O18   S14   D    
C15   C212  A    
C79   C153  S    
C92   H54   S    
C22   H135  S    
C2    C38   A    
C35   C206  S    
C68   C90   T    
C83   C84   S    
C20   C23   S    
O47   Zn5   S    
O34   Zn12  S    
C3    C200  A    
C157  O30   A    
C67   H209  S    
O36   Zn14  S    
O48   Zn14  S    
C52   H184  S    
O59   Zn8   S    
C104  H72   S    
H175  O22   S    
H176  O26   S    
C123  H121  S    
C66   H212  S    
C191  C209  A    
C188  C193  A    
H173  O16   S    
C100  H63   S    
C96   H60   S    
C39   S14   S    
C27   C192  S    
O94   S22   D    
C181  C199  A    
C52   C53   S    
O24   Zn6   S    
C129  C130  S    
C17   H79   S    
C71   H219  S    
C104  H73   S    
C87   H33   S    
C94   H49   S    
C1    O92   A    
C46   C113  T    
C81   H18   S    
C54   H180  S    
C34   C43   A    
C127  H130  S    
C128  H126  S    
C66   H213  S    
C33   H151  S    
O2    Zn8   S    
C151  O24   A    
O27   S17   D    
C120  H114  S    
C109  H91   S    
O80   S18   D    
O121  S7    D    
C62   H207  S    
C88   C134  S    
C117  C118  S    
O5    S9    D    
O75   S1    D    
C111  H100  S    
C61   H195  S    
C95   C136  S    
C28   C196  S    
C56   C58   S    
C186  C203  A    
C148  C157  S    
C75   H16   S    
C140  C195  S    
O79   S12   S    
C145  C152  A    
C164  C201  S    
C19   C25   S    
C63   C64   S    
C43   C162  A    
C59   C60   S    
O110  S4    D    
C64   H202  S    
H172  O12   S    
C178  O71   A    
H164  O112  S    
C116  H107  S    
O90   S21   D    
H163  O109  S    
C55   C56   S    
C77   H9    S    
C78   H23   S    
O76   S1    S    
C24   C42   A    
O86   S19   S    
C70   H221  S    
C5    H181  S    
C114  H98   S    
C170  O47   A    
C13   C41   A    
C27   S2    S    
H174  O19   S    
O101  S24   D    
C120  C121  S    
C85   H38   S    
O32   Zn10  S    
O122  S7    S    
C175  C208  S    
O29   S17   S    
C128  H128  S    
C29   C32   S    
O96   S22   S    
C174  O51   A    
O11   S11   D    
C29   H146  S    
C123  C125  S    
C165  O57   A    
O37   Zn2   S    
C138  C156  A    
O105  S2    D    
C1    O70   A    
C182  C186  A    
O78   S12   D    
C122  H123  S    
H157  O93   S    
O59   Zn6   S    
C19   C187  S    
H160  O99   S    
C95   C96   S    
C17   C185  S    
O112  S4    S    
C40   S15   S    
C100  H65   S    
C8    C14   A    
C70   C71   S    
C105  H84   S    
O56   Zn10  S    
C90   C154  S    
C177  O69   A    
C97   H58   S    
C98   H69   S    
C71   H217  S    
O21   S15   D    
C95   H62   S    
C119  C144  S    
C54   H178  S    
C89   H44   S    
O48   Zn5   S    
C19   H101  S    
O14   S13   D    
O99   S23   S    
C198  C215  A    
C108  C141  S    
C161  C203  S    
C170  O67   A    
C86   H36   S    
O117  S6    D    
C106  H83   S    
C73   H6    S    
C98   C137  S    
C182  C200  A    
O43   Zn16  S    
O66   Zn15  S    
H165  O116  S    
C86   C87   S    
C97   H55   S    
O85   S19   D    
O12   S11   S    
C56   H189  S    
C53   C54   S    
H167  O122  S    
C112  O81   A    
C34   C206  A    
O23   S16   D    
O77   S12   D    
C33   C190  S    
C160  O38   A    
C45   C162  A    
C62   C63   S    
C91   H41   S    
C105  C139  S    
O102  S24   S    
O111  S4    D    
C38   S13   S    
O91   S21   D    
C64   H204  S    
C133  C142  A    
O41   Zn3   S    
O19   S14   S    
C47   C173  A    
O82   S18   D    
C129  H140  S    
O84   S19   D    
C126  H132  S    
O106  S2    S    
C107  H81   S    
O28   S17   D    
C8    H214  S    
C25   H142  S    
C160  O35   A    
O57   Zn11  S    
C113  C156  S    
C82   C132  S    
C127  C128  S    
O100  S24   D    
O1    Zn1   S    
C27   H144  S    
O103  Zn2   S    
C102  H76   S    
C53   H182  S    
O26   S16   S    
C63   H206  S    
O4    S9    D    
C35   C101  T    
O74   S1    D    
C119  C120  S    
C164  O41   A    
C93   H51   S    
C112  O103  A    
C118  H103  S    
C17   C22   S    
O58   Zn1   S    
C176  O53   A    
C12   C210  A    
O108  S3    D    
C109  C110  S    
C65   H215  S    
O25   S16   D    
C72   H7    S    
C121  H109  S    
C134  C154  A    
C189  C207  A    
C5    C214  A    
C187  C204  A    
O30   Zn1   S    
C178  O55   A    
C177  C205  S    
C147  C152  A    
C111  C114  S    
H161  O102  S    
C43   C52   S    
C9    C12   A    
C24   C68   S    
C99   H66   S    
O13   Zn5   S    
C60   H197  S    
C82   C83   S    
C103  C104  S    
C58   H187  S    
C60   C61   S    
C4    H170  S    
O48   Zn7   S    
O64   Zn9   S    
O67   Zn12  S    
C26   C193  S    
C7    H203  S    
H152  O76   S    
C85   C133  S    
C39   C48   A    
C152  C160  S    
C163  C202  S    
C93   C94   S    
C196  C213  A    
C110  H88   S    
H168  O3    S    
C57   C79   T    
O54   Zn7   S    
C18   S12   S    
O10   S11   D    
C126  C146  S    
O83   S18   S    
C141  C149  A    
C87   H32   S    
C2    C46   S    
O46   Zn2   S    
C84   H27   S    
C7    C204  A    
C3    H159  S    
C82   H31   S    
C69   H223  S    
C133  C153  A    
C176  C207  S    
C51   C75   S    
C16   C213  A    
C131  H134  S    
C172  C210  S    
C136  C156  A    
O15   S13   D    
C117  H105  S    
C91   H40   S    
C29   C194  S    
O93   S21   S    
C135  C155  A    
C116  C117  S    
C130  H138  S    
C102  C138  S    
C122  C145  S    
O68   Zn13  S    
O124  S8    D    
O37   Zn4   S    
C103  H75   S    
C21   C180  S    
H166  O119  S    
C74   H3    S    
O8    S10   D    
C55   H191  S    
O45   Zn3   S    
O1    Zn3   S    
C136  C145  A    
C180  C183  A    
C190  C196  A    
C42   C51   A    
C88   C89   S    
O55   Zn6   S    
C26   C31   S    
C4    C215  A    
O118  S6    D    
C27   C30   S    
C167  O44   A    
C23   H141  S    
C36   S10   S    
C37   S11   S    
C25   C181  S    
C88   H45   S    
O6    S9    S    
O22   S15   S    
C216  H148  S    
C21   S20   S    
O107  S3    D    
C199  C216  A    
C142  C148  A    
C115  H94   S    
C44   C173  A    
O48   Zn12  S    
C131  H136  S    
C159  O36   A    
C5    C202  A    
C10   C16   A    
C121  H111  S    
C103  H74   S    
C179  C197  A    
C34   S9    S    
C178  C209  S    
C31   C188  S    
C189  C192  A    
C62   H208  S    
O20   S15   D    
C30   H147  S    
C116  C143  S    
C171  C211  S    
C111  H99   S    
C99   C100  S    
O70   Zn3   S    
C192  C210  A    
C61   H194  S    
C58   H186  S    
O71   Zn15  S    
C175  O72   A    
C163  O40   A    
C75   H15   S    
C38   C47   A    
O37   Zn9   S    
C166  O43   A    
C190  C208  A    
C135  C144  A    
C172  O65   A    
C33   S8    S    
C110  H86   S    
C74   H224  S    
O95   S22   D    
C167  O64   A    
C116  H108  S    
C17   S1    S    
C78   C124  S    
O120  S7    D    
C2    C36   A    
O73   Zn13  S    
C59   H199  S    
C125  H119  S    
C80   C81   S    
C214  H1    S    
C77   H11   S    
O123  S8    D    
C29   S4    S    
C169  O62   A    
C112  C162  S    
C168  O61   A    
O17   S14   D    
C11   C209  A    
O119  S6    S    
C92   H53   S    
O42   Zn4   S    
C108  H93   S    
C24   C40   A    
C81   H17   S    
C67   H210  S    
H156  O89   S    
C176  O73   A    
C13   C39   A    
O115  S5    D    
C104  H71   S    
O109  S3    S    
C123  H122  S    
O89   S20   S    
C65   C66   S    
C96   H59   S    
C84   H26   S    
O51   Zn8   S    
C23   S22   S    
C32   S7    S    
C122  C123  S    
C124  C153  A    
C100  H64   S    
C98   H70   S    
C88   H47   S    
C99   H67   S    
