data_mof_unit_55632.cif
_audit_creation_date              2012-12-11T16:10:40-0500
_audit_creation_method            fapswitch 2.2
_symmetry_space_group_name_H-M    P1
_symmetry_Int_Tables_number       1
_space_group_crystal_system       triclinic
_cell_length_a                    26.311879
_cell_length_b                    7.190925
_cell_length_c                    23.649251
_cell_angle_alpha                 89.999966
_cell_angle_beta                  101.252499
_cell_angle_gamma                 90.0
_cell_volume                      4388.58166383

loop_
_atom_site_label
_atom_site_type_symbol
_atom_type_description
_atom_site_fract_x
_atom_site_fract_y
_atom_site_fract_z
_atom_type_partial_charge
O1    O     O_R   0.442540 0.494320 0.443520 -0.529589
O2    O     O_R   0.557460 0.994320 0.556480 -0.529589
O3    O     O_R   0.546640 0.821130 0.446490 -0.503115
O4    O     O_R   0.453360 0.321130 0.553510 -0.503115
C1    C     C_R   0.561705 0.655237 0.433019 0.768971
C2    C     C_R   0.438295 0.155237 0.566981 0.768972
O5    O     O_R   0.442270 0.823840 0.436770 -0.542811
O6    O     O_R   0.557730 0.323840 0.563230 -0.542811
O7    O     O_R   0.452340 0.997060 0.546690 -0.540312
O8    O     O_R   0.547660 0.497060 0.453310 -0.540312
C3    C     C_R   0.423858 0.655830 0.421472 0.730094
C4    C     C_R   0.576142 0.155830 0.578528 0.730095
O9    O     O_3   0.503430 0.661750 0.536080 -0.363262
O10   O     O_3   0.496570 0.161750 0.463920 -0.363262
V1    V     V_3+5 0.499360 0.935480 0.493310 1.626170
V2    V     V_3+5 0.500640 0.435480 0.506690 1.626170
C5    C     C_3   0.722480 0.912094 0.720517 0.332356
C6    C     C_3   0.277520 0.412094 0.279483 0.332356
C7    C     C_3   0.756680 0.232437 0.692976 0.327684
C8    C     C_3   0.243320 0.732437 0.307023 0.327684
C9    C     C_3   0.805272 0.206322 0.741674 -0.500468
C10   C     C_3   0.194728 0.706322 0.258325 -0.500467
H1    H     H_    0.837264 0.137863 0.724978 0.204873
H2    H     H_    0.162736 0.637862 0.275022 0.204874
C11   C     C_1   0.877909 0.070351 0.876063 -0.095584
C12   C     C_1   0.122091 0.570351 0.123937 -0.095583
C13   C     C_3   0.708831 0.121067 0.706461 -0.080618
C14   C     C_3   0.291169 0.621067 0.293539 -0.080618
C15   C     C_3   0.774398 0.895518 0.765777 -0.375509
C16   C     C_3   0.225602 0.395518 0.234223 -0.375509
C17   C     C_3   0.791994 0.089375 0.791824 0.000430
C18   C     C_3   0.208006 0.589375 0.208176 0.000429
C19   C     C_3   0.746279 0.189871 0.813346 0.360399
C20   C     C_3   0.253721 0.689871 0.186654 0.360399
C21   C     C_3   0.697782 0.205894 0.763501 -0.538316
C22   C     C_3   0.302217 0.705894 0.236499 -0.538316
C23   C     C_1   0.839308 0.076179 0.838227 0.075007
C24   C     C_1   0.160691 0.576179 0.161773 0.075006
C25   C     C_1   0.660892 0.140487 0.661165 0.146124
C26   C     C_1   0.339108 0.640487 0.338835 0.146124
C27   C     C_1   0.621942 0.148863 0.623911 -0.061039
C28   C     C_1   0.378058 0.648863 0.376089 -0.061040
H3    H     H_    0.691741 0.856197 0.742170 0.131615
H4    H     H_    0.308259 0.356197 0.257830 0.131615
H5    H     H_    0.769651 0.796090 0.800276 0.193209
H6    H     H_    0.230349 0.296090 0.199724 0.193208
C29   C     C_R   0.125012 0.246030 0.882186 0.366473
C30   C     C_R   0.874988 0.746030 0.117814 0.366474
C31   C     C_R   0.151633 0.247984 0.835694 0.408036
C32   C     C_R   0.848367 0.747983 0.164306 0.408036
C33   C     C_R   0.173703 0.082579 0.820141 -0.171716
C34   C     C_R   0.826297 0.582579 0.179859 -0.171716
C35   C     C_R   0.156740 0.915351 0.839566 -0.098735
C36   C     C_R   0.843260 0.415351 0.160433 -0.098734
H7    H     H_    0.172840 0.786880 0.828450 0.255915
H8    H     H_    0.827160 0.286880 0.171550 0.255915
C37   C     C_R   0.117898 0.913174 0.872271 -0.126773
C38   C     C_R   0.882102 0.413173 0.127729 -0.126772
H9    H     H_    0.101770 0.782085 0.880876 0.251363
H10   H     H_    0.898230 0.282085 0.119124 0.251363
C39   C     C_R   0.102261 0.077137 0.896087 -0.243220
C40   C     C_R   0.897740 0.577137 0.103913 -0.243221
N1    N     N_R   0.214501 0.956432 0.741883 -0.242079
N2    N     N_R   0.785499 0.456432 0.258117 -0.242078
N3    N     N_R   0.250284 0.963789 0.708885 -0.257541
N4    N     N_R   0.749716 0.463789 0.291115 -0.257541
C41   C     C_R   0.287124 0.099349 0.716734 0.556548
C42   C     C_R   0.712876 0.599349 0.283266 0.556549
N5    N     N_R   0.286927 0.225174 0.759539 -0.245974
N6    N     N_R   0.713073 0.725173 0.240461 -0.245974
N7    N     N_R   0.251250 0.217838 0.792415 -0.188527
N8    N     N_R   0.748750 0.717837 0.207584 -0.188528
C43   C     C_R   0.213930 0.084962 0.783895 0.627754
C44   C     C_R   0.786070 0.584962 0.216105 0.627754
C45   C     C_R   0.364038 0.254302 0.688222 -0.160513
C46   C     C_R   0.635962 0.754302 0.311778 -0.160513
H11   H     H_    0.364359 0.352582 0.722934 0.201322
H12   H     H_    0.635641 0.852583 0.277066 0.201322
C47   C     C_R   0.401565 0.270924 0.653495 0.444351
C48   C     C_R   0.598435 0.770924 0.346505 0.444350
C49   C     C_R   0.401037 0.144421 0.607124 -0.177306
C50   C     C_R   0.598963 0.644421 0.392876 -0.177306
C51   C     C_R   0.363629 0.001643 0.598808 -0.110622
C52   C     C_R   0.636371 0.501643 0.401192 -0.110622
C53   C     C_R   0.327012 0.985700 0.634267 -0.057378
C54   C     C_R   0.672988 0.485699 0.365732 -0.057379
C55   C     C_R   0.326516 0.112524 0.679240 -0.067869
C56   C     C_R   0.673484 0.612524 0.320760 -0.067870
O11   O     O_R   0.952390 0.727960 0.046760 -0.499208
O12   O     O_R   0.047610 0.227960 0.953240 -0.499209
O13   O     O_R   0.057740 0.395520 0.063240 -0.530811
O14   O     O_R   0.942260 0.895520 0.936760 -0.530812
C57   C     C_R   0.076336 0.563673 0.078345 0.762071
C58   C     C_R   0.923664 0.063673 0.921655 0.762071
O15   O     O_R   0.953370 0.398410 0.053530 -0.534989
O16   O     O_R   0.046630 0.898410 0.946470 -0.534989
O17   O     O_R   0.942530 0.225390 0.943510 -0.539856
O18   O     O_R   0.057470 0.725390 0.056490 -0.539856
C59   C     C_R   0.936409 0.567228 0.064758 0.751795
C60   C     C_R   0.063591 0.067228 0.935242 0.751795
O19   O     O_3   0.996600 0.557860 0.963960 -0.363378
O20   O     O_3   0.003400 0.057860 0.036040 -0.363378
V3    V     V_3+5 0.000630 0.284060 0.006690 1.644836
V4    V     V_3+5 0.999370 0.784060 0.993310 1.644836
H13   H     H_    0.805831 0.837590 0.745848 0.204461
H14   H     H_    0.194169 0.337590 0.254152 0.204461
H15   H     H_    0.759355 0.333673 0.826307 0.091025
H16   H     H_    0.240645 0.833673 0.173694 0.091024
S1    S     S_3+6 0.143534 0.416010 0.936401 0.042063
O21   O     O_2   0.098008 0.533140 0.943199 -0.350827
O22   O     O_2   0.163962 0.318974 0.992532 -0.302807
O23   O     O_3   0.190444 0.552248 0.919783 -0.481021
H17   H     H_    0.197343 0.646096 0.950998 0.394937
S2    S     S_3+6 0.856466 0.916010 0.063599 0.042063
O24   O     O_2   0.901992 0.033140 0.056801 -0.350827
O25   O     O_2   0.836038 0.818974 0.007468 -0.302807
O26   O     O_3   0.809556 0.052248 0.080217 -0.481021
H18   H     H_    0.802657 0.146096 0.049002 0.394937
S3    S     S_3+6 0.136276 0.420637 0.781901 0.049404
O27   O     O_2   0.112389 0.326323 0.726293 -0.294706
O28   O     O_2   0.097776 0.556196 0.797266 -0.329802
O29   O     O_3   0.190217 0.531467 0.772376 -0.485978
H19   H     H_    0.181887 0.580768 0.732537 0.392088
S4    S     S_3+6 0.863724 0.920637 0.218099 0.049404
O30   O     O_2   0.887610 0.826322 0.273707 -0.294706
O31   O     O_2   0.902224 0.056196 0.202734 -0.329802
O32   O     O_3   0.809783 0.031467 0.227623 -0.485978
H20   H     H_    0.818112 0.080766 0.267463 0.392088
S5    S     S_3+6 0.449478 0.445956 0.671862 0.036249
O33   O     O_2   0.437454 0.604088 0.629814 -0.338826
O34   O     O_2   0.450061 0.517838 0.731685 -0.290928
O35   O     O_3   0.508223 0.358252 0.669221 -0.511945
H21   H     H_    0.531843 0.466849 0.674237 0.367231
S6    S     S_3+6 0.550522 0.945956 0.328138 0.036249
O36   O     O_2   0.562546 0.104089 0.370186 -0.338826
O37   O     O_2   0.549939 0.017839 0.268315 -0.290928
O38   O     O_3   0.491776 0.858252 0.330779 -0.511945
H22   H     H_    0.468157 0.966850 0.325763 0.367231
H23   H     H_    0.362210 0.902495 0.564037 0.172134
H24   H     H_    0.637790 0.402495 0.435962 0.172134
S7    S     S_3+6 0.718730 0.759839 0.658677 0.042380
O39   O     O_2   0.701222 0.858685 0.602312 -0.265082
O40   O     O_2   0.770359 0.671685 0.658328 -0.279495
O41   O     O_3   0.674643 0.594467 0.663610 -0.550373
H25   H     H_    0.666721 0.536115 0.624948 0.362309
S8    S     S_3+6 0.281270 0.259839 0.341323 0.042381
O42   O     O_2   0.298778 0.358685 0.397688 -0.265082
O43   O     O_2   0.229641 0.171685 0.341672 -0.279494
O44   O     O_3   0.325357 0.094466 0.336390 -0.550373
H26   H     H_    0.333278 0.036114 0.375052 0.362309
H27   H     H_    0.298814 0.874413 0.626073 0.173041
H28   H     H_    0.701186 0.374413 0.373927 0.173041
H29   H     H_    0.746205 0.379971 0.694624 0.166481
H30   H     H_    0.253795 0.879971 0.305376 0.166479
S9    S     S_3+6 0.773109 0.205303 0.622706 0.150902
O45   O     O_2   0.725702 0.223340 0.575954 -0.278746
O46   O     O_2   0.810257 0.357168 0.614498 -0.262404
O47   O     O_3   0.801978 0.999902 0.616292 -0.398308
H31   H     H_    0.839599 0.022658 0.628945 0.363534
S10   S     S_3+6 0.226891 0.705303 0.377294 0.150901
O48   O     O_2   0.274298 0.723339 0.424046 -0.278747
O49   O     O_2   0.189743 0.857168 0.385502 -0.262405
O50   O     O_3   0.198022 0.499902 0.383708 -0.398309
H32   H     H_    0.160400 0.522660 0.371056 0.363534
H33   H     H_    0.820257 0.345244 0.757898 0.164257
H34   H     H_    0.179742 0.845243 0.242102 0.164257
H35   H     H_    0.663518 0.136018 0.775213 0.240163
H36   H     H_    0.336482 0.636019 0.224787 0.240164
H37   H     H_    0.686801 0.355000 0.757026 0.200209
H38   H     H_    0.313199 0.855000 0.242974 0.200209
S11   S     S_3+6 0.728601 0.087087 0.876435 0.055962
O51   O     O_2   0.774634 0.082163 0.925267 -0.292501
O52   O     O_2   0.687044 0.204419 0.894065 -0.275095
O53   O     O_3   0.705648 0.870327 0.862338 -0.503911
H39   H     H_    0.699002 0.823341 0.899591 0.403650
S12   S     S_3+6 0.271398 0.587088 0.123565 0.055962
O54   O     O_2   0.225366 0.582164 0.074733 -0.292502
O55   O     O_2   0.312956 0.704420 0.105935 -0.275094
O56   O     O_3   0.294352 0.370327 0.137661 -0.503912
H40   H     H_    0.300997 0.323341 0.100409 0.403651

loop_
_geom_bond_atom_site_label_1
_geom_bond_atom_site_label_2
_ccdc_geom_bond_type
C38   C40   A    
N4    C42   A    
S11   O51   D    
N1    N3    A    
S9    O46   D    
N8    C44   A    
C7    S9    S    
C35   H7    S    
O50   H32   S    
O1    C3    A    
O2    C4    A    
S6    O38   S    
C53   H27   S    
S2    O24   D    
C48   S6    S    
C29   C31   A    
O5    C3    A    
S11   O52   D    
C8    H30   S    
O11   C59   A    
C30   S2    S    
C7    C9    S    
C46   H12   S    
S8    O42   D    
C34   C44   S    
S7    O40   D    
C5    C15   S    
C54   C56   A    
C37   H9    S    
O44   H26   S    
C14   C26   S    
C38   H10   S    
C47   S5    S    
C22   H36   S    
C9    H33   S    
C3    C28   S    
C5    S7    S    
N5    N7    A    
O53   H39   S    
S1    O22   D    
C11   C23   T    
C30   C40   A    
S12   O56   S    
C13   C25   S    
O35   H21   S    
C31   C33   A    
C19   H15   S    
C21   H35   S    
C17   C19   S    
C6    C16   S    
C18   C24   S    
C7    C13   S    
C46   C56   A    
C20   C22   S    
S5    O35   S    
C12   C57   S    
C30   C32   A    
C11   C58   S    
O6    V2    S    
C2    C49   S    
C16   H14   S    
S9    O47   S    
C15   H13   S    
C2    O7    A    
O12   C60   A    
O23   H17   S    
C49   C51   A    
C34   C36   A    
S8    O43   D    
C53   C55   A    
S11   O53   S    
C36   H8    S    
S4    O30   D    
O15   V3    S    
C5    C13   S    
S10   O50   S    
C33   C43   S    
C6    C14   S    
C48   C50   A    
S1    O23   S    
N7    C43   A    
C35   C37   A    
C12   C24   T    
S6    O37   D    
O5    V1    S    
N1    C43   A    
C58   O17   A    
N3    C41   A    
C29   S1    S    
O56   H40   S    
C15   H5    S    
C41   N5    A    
C18   C20   S    
O4    V2    S    
C5    H3    S    
C4    C27   S    
C54   H28   S    
O13   C57   A    
S8    O44   S    
C9    C17   S    
C32   C34   A    
O6    C4    A    
O14   C58   A    
C32   S4    S    
O1    V2    S    
O20   V4    S    
O2    V1    S    
C45   H11   S    
C52   H24   S    
O17   V3    S    
S3    O28   D    
C10   C18   S    
S4    O32   S    
O4    C2    A    
S12   O54   D    
C51   C53   A    
C8    C10   S    
O19   V4    S    
C50   C52   A    
C9    H1    S    
O11   V4    S    
O47   H31   S    
C7    H29   S    
C10   H2    S    
S7    O41   S    
C39   C60   S    
O32   H20   S    
C51   H23   S    
O3    C1    A    
C6    H4    S    
O3    V1    S    
S4    O31   D    
S5    O33   D    
C36   C38   A    
S3    O29   S    
C45   C55   A    
C41   C55   S    
C16   H6    S    
C46   C48   A    
O13   V3    S    
O41   H25   S    
C6    S8    S    
C29   C39   A    
S2    O25   D    
S3    O27   D    
C47   C49   A    
C37   C39   A    
S6    O36   D    
C25   C27   T    
C8    C14   S    
O38   H22   S    
C22   H38   S    
C13   C21   S    
S10   O48   D    
O16   V4    S    
O7    V1    S    
C20   H16   S    
C1    O8    A    
C15   C17   S    
N2    N4    A    
O8    V2    S    
O26   H18   S    
C16   C18   S    
C1    C50   S    
C31   S3    S    
C42   C56   S    
O16   C60   A    
C26   C28   T    
C19   C21   S    
C21   H37   S    
O15   C59   A    
O20   V3    S    
O12   V3    S    
S2    O26   S    
C20   S12   S    
O14   V4    S    
C40   C59   S    
C10   H34   S    
C17   C23   S    
C14   C22   S    
O19   V3    S    
C8    S10   S    
O9    V2    S    
S1    O21   D    
S9    O45   D    
C42   N6    A    
N2    C44   A    
O10   V1    S    
C52   C54   A    
N6    N8    A    
C33   C35   A    
O29   H19   S    
S7    O39   D    
C45   C47   A    
C57   O18   A    
O18   V4    S    
S10   O49   D    
S12   O55   D    
S5    O34   D    
C19   S11   S    
