data_mof_unit_34099.cif
_audit_creation_date              2012-12-10T20:00:00-0500
_audit_creation_method            fapswitch 2.2
_symmetry_space_group_name_H-M    P1
_symmetry_Int_Tables_number       1
_space_group_crystal_system       triclinic
_cell_length_a                    15.043616
_cell_length_b                    14.373791
_cell_length_c                    8.97124
_cell_angle_alpha                 90.05184
_cell_angle_beta                  95.82666
_cell_angle_gamma                 90.289665
_cell_volume                      1929.83635968

loop_
_atom_site_label
_atom_site_type_symbol
_atom_type_description
_atom_site_fract_x
_atom_site_fract_y
_atom_site_fract_z
_atom_type_partial_charge
C1    C     C_R   0.328628 0.499466 0.510804 0.866374
C2    C     C_R   0.460813 0.895757 0.379025 -0.257474
C3    C     C_R   0.499705 0.499962 0.218811 0.938763
C4    C     C_R   0.500397 0.500019 0.781204 0.909375
C5    C     C_R   0.500228 0.053361 0.499897 0.049339
C6    C     C_R   0.500329 0.947454 0.499879 0.045812
C7    C     C_1   0.499955 0.499870 0.065299 -0.084454
C8    C     C_1   0.500166 0.499956 0.934703 -0.100516
C9    C     C_R   0.104610 0.581598 0.609454 -0.100424
C10   C     C_R   0.910063 0.431722 0.581986 -0.141692
C11   C     C_R   0.906920 0.589204 0.486650 -0.104131
C12   C     C_R   0.672009 0.499994 0.492348 0.850346
C13   C     C_R   0.086939 0.432304 0.485127 -0.141715
C14   C     C_R   0.197087 0.576393 0.607964 -0.063697
C15   C     C_R   0.819768 0.420908 0.539122 -0.029367
C16   C     C_R   0.814388 0.583961 0.455208 -0.020268
C17   C     C_R   0.178226 0.422262 0.488403 -0.034872
C18   C     C_R   0.234256 0.498402 0.538316 -0.214855
C19   C     C_R   0.769324 0.500384 0.489218 -0.226738
C20   C     C_R   0.050281 0.510176 0.547375 0.031536
C21   C     C_R   0.954136 0.513307 0.548789 0.028722
C22   C     C_2   0.253047 0.649072 0.690726 0.477744
C23   C     C_R   0.445204 0.202274 0.394486 0.444072
C24   C     C_2   0.784441 0.323933 0.531634 0.556764
C25   C     C_2   0.768301 0.662764 0.373023 0.508720
C26   C     C_2   0.210250 0.328826 0.448340 0.552878
C27   C     C_R   0.545247 0.798329 0.616799 0.485362
C28   C     C_R   0.554933 0.203009 0.605482 0.458129
C29   C     C_R   0.454927 0.797855 0.383062 0.419842
C30   C     C_R   0.441362 0.104381 0.401256 -0.271730
C31   C     C_R   0.539807 0.896227 0.620731 -0.258930
C32   C     C_R   0.558985 0.105164 0.598567 -0.264984
H1    H     H_    0.074699 0.639764 0.662623 0.190823
H2    H     H_    0.691859 0.632028 0.841142 0.363113
H3    H     H_    0.682981 0.372389 0.860494 0.365849
H4    H     H_    0.272772 0.687122 0.302074 0.366998
H5    H     H_    0.321524 0.634684 0.733862 0.097313
H6    H     H_    0.731225 0.303820 0.447018 0.080095
H7    H     H_    0.705642 0.651727 0.304028 0.071578
H8    H     H_    0.268206 0.297953 0.510410 0.096065
H9    H     H_    0.948586 0.372581 0.626604 0.185113
H10   H     H_    0.943087 0.650067 0.453860 0.185577
H11   H     H_    0.043604 0.376864 0.438013 0.179270
H12   H     H_    0.393653 0.068288 0.324057 0.211687
H13   H     H_    0.566886 0.932050 0.720851 0.210254
H14   H     H_    0.606806 0.069662 0.675555 0.213310
H15   H     H_    0.433921 0.931275 0.278914 0.212725
H16   H     H_    0.319273 0.370613 0.137514 0.376430
N1    N     N_R   0.500000 0.252470 0.500000 -0.216829
N2    N     N_R   0.500000 0.747530 0.500000 -0.215268
O1    O     O_R   0.369060 0.579480 0.500010 -0.605814
O2    O     O_2   0.323206 0.182259 0.154693 -0.255809
O3    O     O_3   0.339446 0.351824 0.241662 -0.538201
O4    O     O_2   0.671007 0.822993 0.848783 -0.261932
O5    O     O_2   0.545243 0.722680 0.886941 -0.256215
O6    O     O_3   0.671682 0.658435 0.741533 -0.521263
O7    O     O_2   0.538045 0.266296 0.876717 -0.242539
O8    O     O_2   0.675625 0.183755 0.847104 -0.251957
O9    O     O_3   0.663129 0.352528 0.756575 -0.540477
O10   O     O_2   0.330351 0.822391 0.148842 -0.271540
O11   O     O_2   0.452586 0.718979 0.113677 -0.209013
O12   O     O_R   0.630940 0.420520 0.499990 -0.603855
O13   O     O_3   0.324790 0.659042 0.259809 -0.515872
O14   O     O_2   0.222521 0.725590 0.714764 -0.505779
O15   O     O_2   0.817050 0.264021 0.616591 -0.503580
O16   O     O_2   0.800830 0.740873 0.379049 -0.508400
O17   O     O_2   0.169345 0.282969 0.348866 -0.504544
O18   O     O_R   0.630940 0.579480 0.499990 -0.580927
O19   O     O_R   0.369060 0.420520 0.500010 -0.604033
O20   O     O_R   0.500000 0.579460 0.285340 -0.557747
O21   O     O_R   0.500000 0.420540 0.714660 -0.551936
O22   O     O_R   0.500000 0.579460 0.714660 -0.571594
O23   O     O_R   0.500000 0.420540 0.285340 -0.558174
O24   O     O_2   0.462254 0.262860 0.122187 -0.238953
S1    S     S_3+6 0.391289 0.250038 0.225896 0.076072
S2    S     S_3+6 0.608762 0.750031 0.776516 0.079782
S3    S     S_3+6 0.609091 0.251622 0.773916 0.081867
S4    S     S_3+6 0.390277 0.749078 0.223924 0.085295
Zn1   Zn    Zn3+2 0.500000 0.606140 0.500000 1.080419
Zn2   Zn    Zn3+2 0.500000 0.393860 0.500000 1.074687

loop_
_geom_bond_atom_site_label_1
_geom_bond_atom_site_label_2
_ccdc_geom_bond_type
H2    O6    S    
O6    S2    S    
C14   C18   A    
C13   H11   S    
C4    C8    S    
O2    S1    D    
N2    Zn1   S    
O9    S3    S    
C7    C8    T    
C2    C6    A    
C15   C19   A    
C12   O18   A    
O10   S4    D    
C1    C18   S    
C2    C29   A    
C17   C26   S    
O12   Zn2   S    
O22   Zn1   S    
C3    C7    S    
C10   C15   A    
C5    C6    S    
C23   N1    A    
C11   H10   S    
H3    O9    S    
C11   C16   A    
O8    S3    D    
C29   S4    S    
C24   H6    S    
H4    O13   S    
C27   N2    A    
C5    C32   A    
O18   Zn1   S    
C6    C31   A    
C10   H9    S    
C9    H1    S    
C30   H12   S    
O3    S1    S    
O21   Zn2   S    
C29   N2    A    
C10   C21   A    
H16   O3    S    
O24   S1    D    
C27   C31   A    
C23   C30   A    
O7    S3    D    
C28   C32   A    
C3    O20   A    
C22   H5    S    
C11   C21   A    
C1    O19   A    
C9    C14   A    
C12   O12   A    
C28   N1    A    
C9    C20   A    
O11   S4    D    
C17   C18   A    
C28   S3    S    
C1    O1    A    
C24   O15   D    
O4    S2    D    
O5    S2    D    
C15   C24   S    
C26   O17   D    
C27   S2    S    
C4    O22   A    
C5    C30   A    
C16   C25   S    
C13   C20   A    
O20   Zn1   S    
C32   H14   S    
C25   O16   D    
C23   S1    S    
C2    H15   S    
N1    Zn2   S    
C13   C17   A    
C14   C22   S    
C25   H7    S    
C26   H8    S    
C16   C19   A    
C12   C19   S    
O23   Zn2   S    
C3    O23   A    
O1    Zn1   S    
C22   O14   D    
C20   C21   S    
C31   H13   S    
O19   Zn2   S    
C4    O21   A    
O13   S4    S    
