data_mof_unit_25889.cif
_audit_creation_date              2012-12-11T16:57:09-0500
_audit_creation_method            fapswitch 2.2
_symmetry_space_group_name_H-M    P1
_symmetry_Int_Tables_number       1
_space_group_crystal_system       triclinic
_cell_length_a                    14.529245
_cell_length_b                    16.152355
_cell_length_c                    6.942721
_cell_angle_alpha                 89.999804
_cell_angle_beta                  98.762126
_cell_angle_gamma                 90.000132
_cell_volume                      1610.31292547

loop_
_atom_site_label
_atom_site_type_symbol
_atom_type_description
_atom_site_fract_x
_atom_site_fract_y
_atom_site_fract_z
_atom_type_partial_charge
O1    O     O_R   0.584990 0.413650 0.534420 -0.537265
O2    O     O_R   0.584990 0.586350 0.534420 -0.537267
O3    O     O_R   0.596190 0.585230 0.208380 -0.543237
O4    O     O_R   0.596190 0.414770 0.208380 -0.543241
O5    O     O_R   0.415010 0.586420 0.976930 -0.538223
O6    O     O_R   0.415010 0.413580 0.976930 -0.538224
C1    C     C_R   0.618709 0.614367 0.384153 0.693643
C2    C     C_R   0.618709 0.385633 0.384153 0.693641
O7    O     O_3   0.440560 0.500000 0.319140 -0.368927
V1    V     V_3+5 0.511030 0.500000 0.068070 1.390901
O8    O     O_R   0.403810 0.414840 0.643540 -0.542863
O9    O     O_R   0.403810 0.585160 0.643540 -0.542863
C3    C     C_R   0.381618 0.385966 0.805864 0.758849
C4    C     C_R   0.381618 0.614035 0.805864 0.758847
V2    V     V_3+5 0.488970 0.500000 0.560620 1.395863
O10   O     O_3   0.559440 0.500000 0.859420 -0.375135
H1    H     H_    0.188574 0.806204 0.805945 0.154601
H2    H     H_    0.188574 0.193797 0.805945 0.154601
H3    H     H_    0.318852 0.693445 0.101928 0.154707
H4    H     H_    0.318852 0.306555 0.101929 0.154707
C5    C     C_2   0.312513 0.681923 0.796315 -0.346415
C6    C     C_2   0.312513 0.318078 0.796315 -0.346411
C7    C     C_2   0.287995 0.715861 0.958978 -0.128352
C8    C     C_2   0.287995 0.284139 0.958978 -0.128352
C9    C     C_2   0.194671 0.818160 0.111326 -0.345923
C10   C     C_2   0.194671 0.181839 0.111326 -0.345922
C11   C     C_2   0.219389 0.783975 0.949097 -0.127769
C12   C     C_2   0.219389 0.216026 0.949097 -0.127771
H5    H     H_    0.281673 0.704902 0.653881 0.125366
H6    H     H_    0.281673 0.295098 0.653881 0.125366
C13   C     C_R   0.684803 0.741199 0.567816 0.104569
C14   C     C_R   0.684828 0.258821 0.567867 0.104607
C15   C     C_R   0.684896 0.685399 0.413156 -0.114423
C16   C     C_R   0.684894 0.314599 0.413158 -0.114440
C17   C     C_R   0.747810 0.701705 0.281865 -0.176765
C18   C     C_R   0.747784 0.298274 0.281832 -0.176800
H7    H     H_    0.750628 0.660727 0.159993 0.131805
H8    H     H_    0.750586 0.339241 0.159933 0.131857
C19   C     C_R   0.812433 0.767578 0.314398 -0.176185
C20   C     C_R   0.812405 0.232401 0.314362 -0.176205
H9    H     H_    0.862718 0.775411 0.215983 0.125325
H10   H     H_    0.862673 0.224553 0.215914 0.125358
C21   C     C_R   0.816593 0.819010 0.479840 -0.112583
C22   C     C_R   0.816590 0.180987 0.479841 -0.112596
C23   C     C_R   0.749006 0.805897 0.600679 0.104899
C24   C     C_R   0.749029 0.194121 0.600731 0.104938
C25   C     C_3   0.760763 0.794160 0.815807 -0.409446
C26   C     C_3   0.760834 0.205897 0.815850 -0.409504
C27   C     C_3   0.690440 0.724093 0.780012 -0.399815
C28   C     C_3   0.690512 0.275963 0.780054 -0.399855
H11   H     H_    0.735049 0.848125 0.891522 0.176653
H12   H     H_    0.735138 0.151949 0.891656 0.176672
H13   H     H_    0.832077 0.772750 0.875648 0.167908
H14   H     H_    0.832158 0.227313 0.875599 0.167896
H15   H     H_    0.720701 0.662102 0.819887 0.169847
H16   H     H_    0.720781 0.337959 0.819840 0.169834
O11   O     O_R   0.921430 0.915960 0.371040 -0.536217
O12   O     O_R   0.921430 0.084040 0.371040 -0.536221
O13   O     O_R   0.910450 0.087500 0.697310 -0.542883
O14   O     O_R   0.910450 0.912500 0.697310 -0.542885
O15   O     O_R   0.091710 0.087460 0.928430 -0.540547
O16   O     O_R   0.091710 0.912540 0.928430 -0.540547
C29   C     C_R   0.887987 0.114373 0.519390 0.695101
C30   C     C_R   0.887988 0.885627 0.519390 0.695101
O17   O     O_3   0.065970 0.000000 0.586140 -0.370261
V3    V     V_3+5 0.995640 0.000000 0.837400 1.402309
O18   O     O_R   0.103020 0.915700 0.261710 -0.542535
O19   O     O_R   0.103020 0.084300 0.261710 -0.542534
C31   C     C_R   0.125332 0.885950 0.100233 0.755247
C32   C     C_R   0.125332 0.114050 0.100233 0.755248
V4    V     V_3+5 0.017940 0.000000 0.344880 1.391671
O20   O     O_3   0.947330 0.000000 0.046180 -0.371537
H17   H     H_    0.225457 0.795521 0.254102 0.125404
H18   H     H_    0.225457 0.204479 0.254102 0.125404
H19   H     H_    0.623868 0.737725 0.834115 0.170089
H20   H     H_    0.623955 0.262346 0.834238 0.170108

loop_
_geom_bond_atom_site_label_1
_geom_bond_atom_site_label_2
_ccdc_geom_bond_type
O15   C32   A    
O1    C2    A    
C17   C19   A    
O2    C1    A    
O4    C2    A    
C19   H9    S    
C26   H14   S    
C4    C5    S    
C17   H7    S    
O3    C1    A    
O13   V3    S    
O12   V4    S    
V2    O10   S    
C10   H18   S    
O8    V2    S    
O15   V3    S    
V3    O20   S    
H4    C8    S    
O17   V4    S    
C13   C15   A    
O1    V2    S    
C7    C11   S    
O7    V1    S    
C20   C22   A    
O18   V4    S    
C25   H13   S    
C20   H10   S    
O14   V3    S    
C1    C15   S    
C13   C27   S    
C22   C24   A    
C21   C30   S    
C23   C25   S    
C22   C29   S    
C24   C26   S    
O16   V3    S    
H1    C11   S    
C18   C20   A    
H2    C12   S    
C25   C27   S    
C19   C21   A    
C27   H15   S    
C5    H5    S    
C28   H16   S    
O16   C31   A    
O18   C31   A    
C14   C16   A    
H3    C7    S    
C28   H20   S    
O9    V2    S    
C26   H12   S    
C27   H19   S    
C2    C16   S    
O11   V4    S    
O2    V2    S    
C21   C23   A    
C14   C28   S    
O5    C4    A    
O9    C4    A    
C5    C7    D    
C10   C32   S    
C6    C8    D    
O13   C29   A    
C9    C31   S    
O4    V1    S    
O11   C30   A    
O12   C29   A    
C6    H6    S    
C14   C24   A    
C8    C12   S    
O6    V1    S    
C25   H11   S    
C9    C11   D    
C10   C12   D    
O14   C30   A    
C18   H8    S    
O7    V2    S    
V4    O20   S    
O3    V1    S    
V1    O10   S    
O6    C3    A    
O8    C3    A    
O19   V4    S    
C26   C28   S    
C15   C17   A    
C16   C18   A    
C3    C6    S    
C9    H17   S    
O5    V1    S    
O19   C32   A    
O17   V3    S    
C13   C23   A    
