data_mof_unit_67328.cif
_audit_creation_date              2013-03-05T16:05:29-0500
_audit_creation_method            fapswitch 2.2
_symmetry_space_group_name_H-M    P1
_symmetry_Int_Tables_number       1
_space_group_crystal_system       triclinic
_cell_length_a                    8.653169
_cell_length_b                    15.39184
_cell_length_c                    15.346375
_cell_angle_alpha                 98.429128
_cell_angle_beta                  98.511192
_cell_angle_gamma                 99.992902
_cell_volume                      1959.39285447

loop_
_atom_site_label
_atom_site_type_symbol
_atom_site_description
_atom_site_fract_x
_atom_site_fract_y
_atom_site_fract_z
_atom_type_partial_charge
P1    P     P_3+3 0.996530 0.418490 0.288400 0.482667
O1    O     O_2   0.826410 0.445300 0.275350 -0.333906
O2    O     O_3   0.098900 0.448430 0.388910 -0.312584
O3    O     O_3   0.628630 0.613330 0.338230 -0.247064
O4    O     O_2   0.695694 0.538169 0.186227 -0.333506
O5    O     O_3   0.936433 0.302112 0.277304 -0.647275
O6    O     O_3   0.643351 0.689234 0.179609 -0.527863
C1    C     C_3   0.516566 0.793864 0.113803 -0.818419
H1    H     H_    0.628419 0.823138 0.092798 0.333135
H2    H     H_    0.444693 0.742097 0.058284 0.178692
P2    P     P_3+3 0.693090 0.712100 0.580610 0.467767
P3    P     P_3+3 0.122719 0.778532 0.411933 0.592941
O7    O     O_2   0.863180 0.725040 0.553770 -0.372962
O8    O     O_3   0.060890 0.661420 0.386090 -0.268316
O9    O     O_2   0.026150 0.817841 0.478868 -0.359131
O10   O     O_3   0.728259 0.733631 0.697692 -0.653484
O11   O     O_3   0.051709 0.815950 0.315344 -0.461624
C2    C     C_3   0.158693 0.809779 0.255877 0.169058
H3    H     H_    0.132573 0.741530 0.214751 0.127411
H4    H     H_    0.284157 0.823130 0.289940 0.085940
C3    C     C_3   0.145281 0.881499 0.198962 0.101593
H5    H     H_    0.113375 0.941343 0.236029 0.202276
C4    C     C_3   0.344006 0.735381 0.685744 0.223090
H6    H     H_    0.433276 0.693754 0.674353 0.139656
C5    C     C_3   0.431335 0.828084 0.736452 0.166867
H7    H     H_    0.538212 0.851205 0.707673 0.076532
H8    H     H_    0.351012 0.876224 0.728163 0.062770
Ba1   Ba    Ba6+2 0.844890 0.542420 0.457460 1.765431
C6    C     C_3   0.047870 0.257593 0.241011 0.875757
H9    H     H_    0.171968 0.294236 0.267697 0.055089
C7    C     C_3   0.015582 0.244096 0.138663 -0.809415
H10   H     H_    0.888105 0.238113 0.111796 0.255961
H11   H     H_    0.051907 0.182236 0.110078 0.339531
C8    C     C_3   0.888911 0.738118 0.733083 0.907080
H12   H     H_    0.937523 0.684079 0.697172 0.002621
C9    C     C_3   0.988205 0.831483 0.734306 -0.822697
H13   H     H_    0.021978 0.839015 0.668679 0.197698
H14   H     H_    0.100714 0.844369 0.783358 0.281937
H15   H     H_    0.918562 0.883257 0.752322 0.279552
P4    P     P_3+3 0.193180 0.581580 0.711620 0.545240
O12   O     O_2   0.363300 0.554730 0.724710 -0.362363
O13   O     O_3   0.090820 0.551650 0.611100 -0.370876
O14   O     O_3   0.561090 0.386750 0.661790 -0.345892
O15   O     O_3   0.234108 0.698776 0.735497 -0.531231
P5    P     P_3+3 0.068209 0.221778 0.595847 0.514691
O16   O     O_3   0.598940 0.388670 0.448890 -0.371244
O17   O     O_3   0.128820 0.338650 0.613920 -0.323737
O18   O     O_2   0.159711 0.187425 0.524465 -0.351014
O19   O     O_3   0.164734 0.183272 0.685848 -0.551890
Ba2   Ba    Ba6+2 0.344950 0.457650 0.542550 1.754861
P6    P     P_3+3 0.575205 0.591625 0.219491 0.584438
C10   C     C_3   0.550960 0.753430 0.197535 1.011983
H16   H     H_    0.434570 0.726289 0.214991 -0.122854
H17   H     H_    0.446697 0.846040 0.126022 0.241126
O20   O     O_3   0.590780 0.611410 0.551120 -0.319128
C11   C     C_3   0.558645 0.254961 0.251901 0.703243
H18   H     H_    0.656614 0.309976 0.287665 0.024361
C12   C     C_3   0.622287 0.168047 0.240839 0.122655
H19   H     H_    0.685928 0.160172 0.306113 0.041744
P7    P     P_3+3 0.494108 0.273390 0.414697 0.483204
O21   O     O_2   0.326530 0.274990 0.446290 -0.300916
O22   O     O_3   0.430148 0.249647 0.297849 -0.567023
C13   C     C_3   0.078230 0.178102 0.755978 0.732281
H20   H     H_    0.948720 0.172508 0.733914 -0.036964
C14   C     C_3   0.108761 0.092471 0.789773 0.080471
H21   H     H_    0.235627 0.101722 0.817062 0.193569
P8    P     P_3+3 0.614527 0.400725 0.779713 0.526268
C15   C     C_3   0.641412 0.238241 0.804944 0.743151
H22   H     H_    0.756895 0.270399 0.789118 -0.070195
O23   O     O_2   0.510876 0.463631 0.817620 -0.335160
O24   O     O_3   0.539743 0.299981 0.815489 -0.510179
H23   H     H_    0.797566 0.177432 0.884255 0.162884
C16   C     C_3   0.688532 0.202076 0.891496 0.120567
H24   H     H_    0.722287 0.258190 0.948469 0.087502
C17   C     C_R   0.828646 0.452772 0.828534 0.161219
C18   C     C_R   0.893540 0.463424 0.921608 0.088373
C19   C     C_R   0.032080 0.465936 0.105632 -0.015617
C20   C     C_R   0.869271 0.434113 0.072733 -0.081095
C21   C     C_R   0.800643 0.435177 0.984164 -0.197705
C22   C     C_R   0.104837 0.459171 0.194961 0.001097
H25   H     H_    0.794047 0.404776 0.114549 0.225293
C23   C     C_R   0.272302 0.481841 0.215590 -0.286039
C24   C     C_R   0.086332 0.527455 0.798022 0.282584
C25   C     C_R   0.154342 0.532302 0.891262 0.057862
C26   C     C_R   0.058123 0.499731 0.952622 0.097013
C27   C     C_R   0.316462 0.566148 0.925116 -0.017829
C28   C     C_R   0.384995 0.566175 0.013751 -0.255607
C29   C     C_R   0.293401 0.535022 0.075270 -0.056224
C30   C     C_R   0.127642 0.500890 0.044833 0.049525
C31   C     C_R   0.363932 0.532104 0.164653 0.191956
C32   C     C_R   0.925964 0.484370 0.769300 -0.405075
H26   H     H_    0.512642 0.588655 0.032546 0.198720
H27   H     H_    0.394468 0.589402 0.882281 0.214624
H28   H     H_    0.330498 0.468237 0.277573 0.193866
H29   H     H_    0.873258 0.478584 0.699683 0.136043
C33   C     C_R   0.340268 0.821224 0.456999 -0.024526
H30   H     H_    0.183303 0.957219 0.427962 0.168783
C34   C     C_R   0.590952 0.790906 0.525326 0.107663
C35   C     C_R   0.764929 0.223801 0.503817 -0.264406
C36   C     C_R   0.859434 0.170995 0.544689 0.249196
C37   C     C_R   0.801511 0.078925 0.538985 -0.201328
C38   C     C_R   0.639423 0.040196 0.504385 0.186255
C39   C     C_R   0.540239 0.097835 0.468973 0.084172
C40   C     C_R   0.571032 0.947129 0.506049 0.155600
C41   C     C_R   0.405852 0.914913 0.471980 -0.024884
C42   C     C_R   0.310794 0.976502 0.448725 -0.130679
C43   C     C_R   0.376776 0.064928 0.447077 0.005159
C44   C     C_R   0.658223 0.884296 0.539737 -0.263022
C45   C     C_R   0.439520 0.758683 0.473573 0.216428
C46   C     C_R   0.605636 0.189470 0.463748 0.094385
H31   H     H_    0.816102 0.293280 0.504270 0.129957
H32   H     H_    0.883089 0.040139 0.566395 0.116217
H33   H     H_    0.297883 0.107108 0.426157 0.216836
S1    S     S_3+6 0.664138 0.837298 0.287050 0.013831
O25   O     O_2   0.562000 0.899992 0.317770 -0.356067
O26   O     O_2   0.725415 0.794205 0.362933 -0.248623
O27   O     O_3   0.818588 0.895777 0.253530 -0.463433
H34   H     H_    0.878244 0.936940 0.308615 0.374103
S2    S     S_3+6 0.490591 0.827085 0.853527 0.084103
O28   O     O_2   0.635179 0.898495 0.893188 -0.103818
O29   O     O_2   0.356852 0.842495 0.902181 -0.227825
O30   O     O_3   0.534376 0.727950 0.866637 -0.498469
H35   H     H_    0.576367 0.734554 0.931354 0.387739
S3    S     S_3+6 0.028504 0.149426 0.272780 -0.032044
O31   O     O_2   0.184803 0.120361 0.280312 -0.238486
O32   O     O_2   0.973097 0.152340 0.361081 -0.359505
O33   O     O_3   0.899722 0.073233 0.194216 -0.475540
H36   H     H_    0.821707 0.045392 0.227550 0.404904
H37   H     H_    0.085420 0.299636 0.114603 0.194051
S4    S     S_3+6 0.896635 0.718878 0.844387 0.037188
O34   O     O_2   0.059555 0.704509 0.879050 -0.296278
O35   O     O_2   0.864012 0.799861 0.899761 -0.107467
O36   O     O_3   0.760249 0.629124 0.850305 -0.525436
H38   H     H_    0.698908 0.608426 0.788805 0.343260
S5    S     S_3+6 0.499739 0.281125 0.143713 0.008033
O37   O     O_2   0.613549 0.256235 0.084813 -0.352539
O38   O     O_2   0.333720 0.234982 0.100829 -0.183086
O39   O     O_3   0.506959 0.389450 0.150620 -0.572133
H39   H     H_    0.490580 0.397987 0.087340 0.368050
H40   H     H_    0.710811 0.173608 0.196404 0.144298
S6    S     S_3+6 0.479029 0.067340 0.195832 0.058679
O40   O     O_2   0.557358 0.003687 0.142520 -0.231842
O41   O     O_2   0.431584 0.028574 0.273666 -0.314151
O42   O     O_3   0.314040 0.079135 0.130076 -0.384070
H41   H     H_    0.279955 0.022383 0.086439 0.388843
H42   H     H_    0.261661 0.902947 0.180561 0.116737
S7    S     S_3+6 0.155023 0.277561 0.839519 0.009243
O43   O     O_2   0.299756 0.267751 0.901138 -0.203763
O44   O     O_2   0.200390 0.355641 0.794270 -0.249005
O45   O     O_3   0.017828 0.299689 0.900948 -0.648401
H43   H     H_    0.074874 0.314930 0.963650 0.381487
S8    S     S_3+6 0.007670 0.058320 0.874662 0.016026
O46   O     O_2   0.031035 0.133882 0.951864 -0.255515
O47   O     O_2   0.834162 0.024538 0.836926 -0.211268
O48   O     O_3   0.086655 0.975264 0.910568 -0.470960
H44   H     H_    0.059046 0.974880 0.970624 0.437969
H45   H     H_    0.079139 0.035749 0.732297 0.058869
S9    S     S_3+6 0.559402 0.154318 0.709565 -0.014818
O49   O     O_2   0.672006 0.091915 0.696330 -0.333245
O50   O     O_2   0.399614 0.099921 0.710910 -0.288027
O51   O     O_3   0.538407 0.211144 0.626214 -0.577382
H46   H     H_    0.430349 0.224498 0.622983 0.418538
S10   S     S_3+6 0.560706 0.110695 0.922048 0.145217
O52   O     O_2   0.657257 0.079132 0.996345 -0.122485
O53   O     O_2   0.420250 0.139206 0.955514 -0.166495
O54   O     O_3   0.496036 0.024481 0.837309 -0.431460
H47   H     H_    0.388677 0.997277 0.846466 0.374290
H48   H     H_    0.673817 0.409847 0.964532 0.181931
S11   S     S_3+6 0.359354 0.642593 0.426938 0.012746
O55   O     O_2   0.435509 0.563019 0.414594 -0.218977
O56   O     O_2   0.240422 0.615259 0.484679 -0.259336
O57   O     O_3   0.295338 0.654154 0.321059 -0.652848
H49   H     H_    0.202194 0.606698 0.296199 0.351212
H50   H     H_    0.778617 0.905858 0.576349 0.158010
S12   S     S_3+6 0.012442 0.841087 0.096509 0.053633
O58   O     O_2   0.908451 0.751599 0.094856 -0.222269
O59   O     O_2   0.909701 0.907767 0.077715 -0.152560
O60   O     O_3   0.130606 0.831795 0.020084 -0.441015
H51   H     H_    0.186707 0.783580 0.034831 0.353911
H52   H     H_    0.278820 0.742725 0.620251 0.002571

loop_
_geom_bond_atom_site_label_1
_geom_bond_atom_site_label_2
_geom_bond_distance
_ccdc_geom_bond_type
S5    O39   1.644746 S    
C28   C29   1.404183 A    
C13   C14   1.535131 S    
C37   C38   1.414600 A    
O19   C13   1.402788 S    
C2    C3    1.513956 S    
C16   H24   1.100535 S    
S7    O43   1.497483 D    
C12   S6    1.783892 S    
C18   C21   1.409374 A    
C33   C41   1.426393 A    
S1    O25   1.490153 D    
S5    O37   1.492173 D    
S12   O59   1.501487 D    
C19   C20   1.398948 A    
O57   H49   0.975531 S    
C37   H32   1.078715 S    
C19   C30   1.436994 A    
P2    C34   1.850408 S    
C23   H28   1.074926 S    
C9    H13   1.105784 S    
S10   O53   1.495758 D    
C25   C27   1.400214 A    
O6    C10   1.396684 S    
C8    H12   1.108215 S    
S6    O41   1.490100 D    
P6    C31   1.904487 S    
C39   C43   1.389590 A    
C19   C22   1.447633 A    
C42   C43   1.386984 A    
C6    S3    1.789666 S    
C34   C44   1.425598 A    
C11   H18   1.101740 S    
C2    H4    1.103287 S    
P7    O22   1.760494 S    
C2    H3    1.110821 S    
S11   O55   1.489734 D    
P5    O17   1.752481 S    
C43   H33   1.068016 S    
S9    O51   1.657889 S    
O10   C8    1.401587 S    
S10   O52   1.501775 D    
Ba1   Ba2   4.726007 S    
Ba1   O20   3.053999 S    
C7    H10   1.101933 S    
C1    H1    1.107846 S    
C3    S12   1.763645 S    
C44   H50   1.078528 S    
P3    O11   1.734925 S    
P1    Ba1   3.537947 S    
C4    H6    1.103033 S    
C7    H11   1.104560 S    
O7    Ba1   2.944294 S    
C7    H37   1.100729 S    
C21   H48   1.079981 S    
O17   Ba2   2.838627 S    
C1    C10   1.520724 S    
P8    O24   1.769510 S    
C17   C32   1.409288 A    
P4    O13   1.619267 S    
C34   C45   1.394537 A    
C3    H5    1.108771 S    
S9    O50   1.491636 D    
S11   O56   1.500105 D    
P4    C24   1.930406 S    
C15   S9    1.770517 S    
C5    S2    1.797036 S    
C13   S7    1.802260 S    
C40   C41   1.420928 A    
O3    Ba1   2.884765 S    
O2    Ba2   2.902349 S    
C45   S11   1.798370 S    
O60   H51   0.989620 S    
S12   O60   1.672743 S    
S2    O29   1.500712 D    
S7    O44   1.497406 D    
O3    P6    1.778859 S    
P1    O5    1.751908 S    
S10   O54   1.669190 S    
C25   C26   1.434185 A    
C14   H45   1.111570 S    
S6    O42   1.675337 S    
C1    H17   1.097076 S    
C28   H26   1.080164 S    
C26   C30   1.449696 A    
C20   C21   1.404055 A    
C15   H22   1.112656 S    
C15   C16   1.541291 S    
C35   C46   1.399415 A    
C4    O15   1.399944 S    
P7    O21   1.598565 D    
P1    O2    1.619177 S    
S4    O35   1.496033 D    
C17   C18   1.429806 A    
C6    H9    1.109444 S    
C27   H27   1.064111 S    
O36   H38   0.989372 S    
P2    O10   1.749134 S    
C35   C36   1.396827 A    
S8    O48   1.674303 S    
P5    O19   1.739794 S    
C6    C7    1.530528 S    
C35   H31   1.082732 S    
S7    O45   1.670800 S    
O11   C2    1.397879 S    
S8    O46   1.496904 D    
C38   C40   1.457336 A    
C4    H52   1.108500 S    
O13   Ba2   3.062431 S    
S3    O33   1.674821 S    
H30   C42   1.077617 S    
O14   P8    1.771643 S    
P4    O12   1.589371 D    
C29   C31   1.426829 A    
P3    O9    1.538460 D    
C39   C46   1.444142 A    
S9    O49   1.496468 D    
S11   O57   1.682630 S    
C11   O22   1.399153 S    
C24   C25   1.450358 A    
S4    O36   1.676964 S    
P8    C17   1.879893 S    
O33   H36   0.983436 S    
O12   Ba2   2.938438 S    
C40   C44   1.433941 A    
C11   S5    1.787554 S    
P2    O20   1.609370 S    
C10   H16   1.107826 S    
S3    O32   1.500046 D    
C41   C42   1.409081 A    
P5    O18   1.529294 D    
C12   H40   1.099143 S    
S5    O38   1.493428 D    
Ba1   O16   2.867927 S    
O2    Ba1   3.061465 S    
O16   P7    1.809461 S    
C27   C28   1.401025 A    
Ba2   O21   2.944351 S    
C9    H15   1.107267 S    
P3    C33   1.872417 S    
S8    O47   1.497779 D    
H23   C16   1.090552 S    
P5    C36   1.844234 S    
S1    O26   1.497648 D    
S2    O28   1.498363 D    
O14   Ba2   2.884122 S    
C10   S1    1.776448 S    
C5    H8    1.108380 S    
C24   C32   1.404853 A    
C33   C45   1.422320 A    
O16   Ba2   3.053055 S    
Ba2   O20   2.867420 S    
C23   C31   1.409297 A    
O42   H41   0.989495 S    
P8    O23   1.539819 D    
C3    H42   1.095001 S    
C14   S8    1.765552 S    
C9    H14   1.107298 S    
S4    O34   1.496689 D    
C5    H7    1.108951 S    
O6    P6    1.745979 S    
C16   S10   1.796810 S    
S12   O58   1.503472 D    
O51   H46   0.987411 S    
S6    O40   1.499425 D    
P2    O7    1.573956 D    
C20   H25   1.070514 S    
O54   H47   0.989449 S    
P2    Ba1   3.549145 S    
C15   O24   1.410831 S    
P4    Ba2   3.538703 S    
P1    O1    1.589083 D    
Ba1   O13   2.901692 S    
C36   C37   1.404009 A    
S2    O30   1.667446 S    
C22   C23   1.406491 A    
C11   C12   1.529213 S    
C8    C9    1.537057 S    
C4    C5    1.529304 S    
C38   C39   1.444493 A    
C12   H19   1.103113 S    
S1    O27   1.668155 S    
P7    C46   1.915488 S    
O39   H39   0.991747 S    
C32   H29   1.082187 S    
C13   H20   1.106171 S    
P3    O8    1.756610 S    
P4    O15   1.749203 S    
O5    C6    1.409255 S    
C29   C30   1.421172 A    
C8    S4    1.769521 S    
C1    H2    1.104414 S    
C14   H21   1.092242 S    
O48   H44   0.986324 S    
P1    C22   1.945244 S    
O45   H43   0.988767 S    
O4    P6    1.535165 D    
O1    Ba1   2.937795 S    
O8    Ba1   2.837947 S    
O30   H35   0.989709 S    
O27   H34   0.991369 S    
C18   C26   1.418531 A    
S3    O31   1.490497 D    
