data_mof_unit_64753.cif
_audit_creation_date              2012-12-10T19:48:44-0500
_audit_creation_method            fapswitch 2.2
_symmetry_space_group_name_H-M    P1
_symmetry_Int_Tables_number       1
_space_group_crystal_system       monoclinic
_cell_length_a                    26.055025
_cell_length_b                    26.054894
_cell_length_c                    22.222053
_cell_angle_alpha                 90.0
_cell_angle_beta                  54.111409
_cell_angle_gamma                 90.0
_cell_volume                      12221.7927646

loop_
_atom_site_label
_atom_site_type_symbol
_atom_type_description
_atom_site_fract_x
_atom_site_fract_y
_atom_site_fract_z
_atom_type_partial_charge
C1    C     C_R   0.849477 0.750042 0.301056 0.828106
C2    C     C_R   0.445298 0.250546 0.500551 -0.041727
C3    C     C_R   0.304294 0.974100 0.456471 0.129327
C4    C     C_R   0.749180 0.554456 0.500530 -0.082531
C5    C     C_R   0.749180 0.445544 0.500530 -0.082531
C6    C     C_R   0.249180 0.054456 0.500530 -0.082531
C7    C     C_R   0.249180 0.945544 0.500530 -0.082531
C8    C     C_R   0.691833 0.526994 0.546256 -0.222361
C9    C     C_R   0.691833 0.473006 0.546256 -0.222361
C10   C     C_R   0.191833 0.026994 0.546257 -0.222360
C11   C     C_R   0.191833 0.973006 0.546257 -0.222361
C12   C     C_3   0.874301 0.470431 0.401205 -0.471550
C13   C     C_R   0.945297 0.249454 0.500551 -0.041727
C14   C     C_3   0.874301 0.529569 0.401205 -0.471550
C15   C     C_3   0.374300 0.970430 0.401203 -0.471550
C16   C     C_3   0.374300 0.029569 0.401203 -0.471550
C17   C     C_R   0.750026 0.890011 0.500057 0.811073
C18   C     C_R   0.750026 0.109989 0.500057 0.811073
C19   C     C_R   0.250026 0.390010 0.500057 0.811073
C20   C     C_R   0.250026 0.609989 0.500057 0.811073
C21   C     C_R   0.889991 0.750047 0.500053 0.812817
C22   C     C_R   0.889991 0.249953 0.500053 0.812817
C23   C     C_R   0.389991 0.250047 0.500053 0.812817
C24   C     C_R   0.945297 0.750546 0.500551 -0.041727
C25   C     C_R   0.389991 0.749953 0.500053 0.812817
C26   C     C_R   0.609995 0.749993 0.500070 0.805790
C27   C     C_R   0.609995 0.250007 0.500070 0.805790
C28   C     C_R   0.109995 0.249993 0.500070 0.805790
C29   C     C_R   0.109995 0.750007 0.500070 0.805790
C30   C     C_R   0.547708 0.782513 0.456429 0.041140
C31   C     C_R   0.547708 0.217487 0.456429 0.041140
C32   C     C_R   0.047707 0.282513 0.456429 0.041140
C33   C     C_R   0.047708 0.717487 0.456429 0.041140
C34   C     C_R   0.554206 0.749456 0.500540 -0.086757
C35   C     C_R   0.495885 0.782526 0.456435 0.020882
C36   C     C_R   0.554206 0.250544 0.500540 -0.086757
C37   C     C_R   0.054206 0.249456 0.500540 -0.086757
C38   C     C_R   0.054206 0.750544 0.500540 -0.086757
C39   C     C_R   0.503849 0.715021 0.546344 -0.208367
C40   C     C_R   0.503849 0.284978 0.546344 -0.208367
C41   C     C_R   0.003849 0.215021 0.546344 -0.208366
C42   C     C_R   0.003849 0.784979 0.546344 -0.208366
C43   C     C_R   0.495885 0.217474 0.456435 0.020883
C44   C     C_R   0.995885 0.282526 0.456435 0.020882
C45   C     C_R   0.995885 0.717474 0.456435 0.020883
C46   C     C_3   0.519798 0.824772 0.400941 -0.525182
C47   C     C_3   0.519798 0.175228 0.400941 -0.525182
C48   C     C_3   0.019798 0.324772 0.400941 -0.525182
C49   C     C_R   0.849477 0.249958 0.301056 0.828106
C50   C     C_3   0.019798 0.675228 0.400941 -0.525182
C51   C     C_3   0.578899 0.824793 0.401000 0.519036
C52   C     C_3   0.578899 0.175207 0.400999 0.519036
C53   C     C_3   0.078899 0.324793 0.401000 0.519036
C54   C     C_3   0.078899 0.675207 0.400999 0.519036
C55   C     C_3   0.468002 0.734575 0.956911 -0.393775
C56   C     C_3   0.467942 0.265214 0.956911 -0.393773
C57   C     C_3   0.967959 0.234727 0.956911 -0.393772
C58   C     C_3   0.967982 0.765353 0.956911 -0.393774
C59   C     C_3   0.535019 0.804064 0.956943 -0.387244
C60   C     C_R   0.349477 0.250042 0.301056 0.828106
C61   C     C_3   0.535232 0.195989 0.956944 -0.387230
C62   C     C_3   0.035172 0.304026 0.956944 -0.387235
C63   C     C_3   0.035091 0.695954 0.956943 -0.387241
C64   C     C_3   0.491928 0.804056 0.043106 -0.392713
C65   C     C_3   0.492141 0.195997 0.043106 -0.392707
C66   C     C_3   0.992081 0.304018 0.043106 -0.392708
C67   C     C_3   0.992001 0.695962 0.043105 -0.392710
C68   C     C_1   0.389200 0.749954 0.221615 -0.107292
C69   C     C_1   0.389200 0.250046 0.221615 -0.107292
C70   C     C_1   0.889200 0.249954 0.221615 -0.107292
C71   C     C_R   0.349477 0.749958 0.301056 0.828106
C72   C     C_1   0.889200 0.750046 0.221615 -0.107292
C73   C     C_3   0.536619 0.749972 0.926835 0.344940
C74   C     C_3   0.536619 0.250028 0.926835 0.344938
C75   C     C_3   0.036619 0.249972 0.926835 0.344939
C76   C     C_3   0.036619 0.750028 0.926835 0.344939
C77   C     C_R   0.650571 0.749995 0.698949 0.816469
C78   C     C_R   0.650571 0.250005 0.698949 0.816469
C79   C     C_R   0.150571 0.249995 0.698949 0.816469
C80   C     C_R   0.150571 0.750005 0.698949 0.816469
C81   C     C_3   0.424911 0.734567 0.043074 -0.371134
C82   C     C_R   0.449865 0.715020 0.546350 -0.217894
C83   C     C_3   0.424851 0.265222 0.043074 -0.371181
C84   C     C_3   0.924868 0.234718 0.043074 -0.371167
C85   C     C_3   0.924891 0.765361 0.043074 -0.371149
C86   C     C_3   0.463429 0.749958 0.073183 0.330037
C87   C     C_3   0.463429 0.250042 0.073183 0.330036
C88   C     C_3   0.963429 0.249958 0.073183 0.330036
C89   C     C_3   0.963429 0.750042 0.073183 0.330037
C90   C     C_3   0.518595 0.711260 0.043096 -0.382327
C91   C     C_3   0.518442 0.288897 0.043095 -0.382284
C92   C     C_3   0.018485 0.211147 0.043095 -0.382294
C93   C     C_R   0.449865 0.284980 0.546350 -0.217894
C94   C     C_3   0.018543 0.788794 0.043096 -0.382315
C95   C     C_3   0.561686 0.711269 0.956933 -0.391152
C96   C     C_3   0.561533 0.288889 0.956933 -0.391165
C97   C     C_3   0.061576 0.211155 0.956933 -0.391162
C98   C     C_3   0.061634 0.788785 0.956933 -0.391156
C99   C     C_1   0.422622 0.749953 0.154779 -0.110514
C100  C     C_1   0.422622 0.250047 0.154779 -0.110513
C101  C     C_1   0.922622 0.249953 0.154779 -0.110513
C102  C     C_1   0.922622 0.750047 0.154779 -0.110513
C103  C     C_1   0.577428 0.749981 0.845236 -0.127392
C104  C     C_R   0.949865 0.215020 0.546350 -0.217894
C105  C     C_1   0.577428 0.250019 0.845236 -0.127392
C106  C     C_1   0.077428 0.249981 0.845236 -0.127392
C107  C     C_1   0.077428 0.750019 0.845236 -0.127392
C108  C     C_1   0.610851 0.749989 0.778397 -0.138103
C109  C     C_1   0.610851 0.250011 0.778397 -0.138103
C110  C     C_1   0.110851 0.249989 0.778397 -0.138103
C111  C     C_1   0.110851 0.750011 0.778397 -0.138103
C112  C     C_R   0.739390 0.974080 0.456317 -0.074514
C113  C     C_R   0.739390 0.025920 0.456317 -0.074513
C114  C     C_R   0.239390 0.474080 0.456317 -0.074513
C115  C     C_R   0.949865 0.784980 0.546350 -0.217894
C116  C     C_R   0.239390 0.525920 0.456317 -0.074514
C117  C     C_R   0.750294 0.945553 0.500535 -0.045413
C118  C     C_R   0.750294 0.054447 0.500535 -0.045414
C119  C     C_R   0.250294 0.445553 0.500535 -0.045414
C120  C     C_R   0.250295 0.554447 0.500535 -0.045413
C121  C     C_R   0.761708 0.973012 0.546440 -0.203153
C122  C     C_R   0.761707 0.026988 0.546440 -0.203153
C123  C     C_R   0.261708 0.473012 0.546440 -0.203153
C124  C     C_R   0.261708 0.526988 0.546440 -0.203153
C125  C     C_R   0.749952 0.610021 0.500062 0.807052
C126  C     C_R   0.445298 0.749454 0.500551 -0.041727
C127  C     C_R   0.749952 0.389978 0.500062 0.807052
C128  C     C_R   0.249952 0.110021 0.500062 0.807052
C129  C     C_R   0.249952 0.889978 0.500062 0.807052
C130  C     C_3   0.725065 0.029583 0.400663 0.481622
C131  C     C_3   0.725065 0.970417 0.400664 0.481623
C132  C     C_3   0.225065 0.529583 0.400664 0.481622
C133  C     C_3   0.225065 0.470417 0.400664 0.481622
C134  C     C_R   0.804294 0.525900 0.456471 0.129327
C135  C     C_R   0.804294 0.474100 0.456471 0.129326
C136  C     C_R   0.304294 0.025900 0.456471 0.129326
F1    F     F_    0.775232 0.050473 0.334382 -0.568382
F2    F     F_    0.775231 0.949527 0.334383 -0.568382
F3    F     F_    0.275231 0.550473 0.334383 -0.568382
F4    F     F_    0.275231 0.449527 0.334383 -0.568381
F5    F     F_    0.632674 0.807926 0.334391 -0.617972
F6    F     F_    0.632674 0.192074 0.334391 -0.617972
F7    F     F_    0.132674 0.307926 0.334391 -0.617971
F8    F     F_    0.132674 0.692074 0.334391 -0.617972
H1    H     H_    0.505936 0.688176 0.582061 0.175548
H2    H     H_    0.453575 0.167297 0.063738 0.168778
H3    H     H_    0.953483 0.332687 0.063738 0.168780
H4    H     H_    0.953360 0.667335 0.063738 0.168784
H5    H     H_    0.520052 0.816024 0.063755 0.172636
H6    H     H_    0.520312 0.184180 0.063755 0.172652
H7    H     H_    0.020239 0.315877 0.063755 0.172648
H8    H     H_    0.020141 0.684045 0.063754 0.172642
H9    H     H_    0.563152 0.671986 0.936288 0.171371
H10   H     H_    0.562845 0.328137 0.936288 0.171393
H11   H     H_    0.062932 0.171898 0.936288 0.171387
H12   H     H_    0.505936 0.311824 0.582061 0.175548
H13   H     H_    0.063048 0.828056 0.936288 0.171378
H14   H     H_    0.610939 0.721537 0.936313 0.169175
H15   H     H_    0.610827 0.278775 0.936312 0.169166
H16   H     H_    0.110858 0.221313 0.936312 0.169168
H17   H     H_    0.110901 0.778569 0.936312 0.169172
H18   H     H_    0.499421 0.671974 0.063720 0.180745
H19   H     H_    0.499114 0.328149 0.063720 0.180795
H20   H     H_    0.999200 0.171885 0.063720 0.180780
H21   H     H_    0.999316 0.828068 0.063720 0.180762
H22   H     H_    0.467748 0.695721 0.936266 0.174483
H23   H     H_    0.005936 0.188175 0.582061 0.175548
H24   H     H_    0.467534 0.304026 0.936266 0.174480
H25   H     H_    0.967594 0.195902 0.936266 0.174480
H26   H     H_    0.967675 0.804193 0.936266 0.174482
H27   H     H_    0.404017 0.695708 0.063699 0.186431
H28   H     H_    0.403804 0.304039 0.063699 0.186430
H29   H     H_    0.903864 0.195890 0.063699 0.186430
H30   H     H_    0.903944 0.804206 0.063700 0.186430
H31   H     H_    0.547208 0.721524 0.063744 0.171848
H32   H     H_    0.547096 0.278787 0.063744 0.171841
H33   H     H_    0.047128 0.221300 0.063744 0.171843
H34   H     H_    0.005936 0.811824 0.582061 0.175548
H35   H     H_    0.047170 0.778582 0.063744 0.171846
H36   H     H_    0.770606 0.953072 0.582239 0.170636
H37   H     H_    0.770606 0.046927 0.582239 0.170636
H38   H     H_    0.270606 0.453072 0.582239 0.170636
H39   H     H_    0.270606 0.546927 0.582239 0.170636
H40   H     H_    0.412070 0.688169 0.582064 0.173854
H41   H     H_    0.412070 0.311831 0.582065 0.173854
H42   H     H_    0.912070 0.188168 0.582064 0.173854
H43   H     H_    0.912070 0.811831 0.582064 0.173854
H44   H     H_    0.678343 0.047395 0.423009 -0.010923
H45   H     H_    0.516979 0.832657 0.936307 0.166457
H46   H     H_    0.678343 0.952605 0.423009 -0.010923
H47   H     H_    0.178343 0.547395 0.423009 -0.010923
H48   H     H_    0.178343 0.452605 0.423009 -0.010923
H49   H     H_    0.647122 0.546938 0.581920 0.178494
H50   H     H_    0.647121 0.453062 0.581920 0.178494
H51   H     H_    0.147122 0.046938 0.581921 0.178494
H52   H     H_    0.147122 0.953062 0.581921 0.178494
H53   H     H_    0.897582 0.453375 0.425372 0.203410
H54   H     H_    0.897582 0.546625 0.425373 0.203410
H55   H     H_    0.397582 0.953375 0.425370 0.203410
H56   H     H_    0.517305 0.167285 0.936307 0.166462
H57   H     H_    0.397582 0.046625 0.425370 0.203410
H58   H     H_    0.888054 0.453360 0.347812 0.211117
H59   H     H_    0.888054 0.546639 0.347812 0.211117
H60   H     H_    0.388053 0.953360 0.347811 0.211117
H61   H     H_    0.388053 0.046640 0.347811 0.211117
H62   H     H_    0.529076 0.811696 0.347768 0.241484
H63   H     H_    0.529076 0.188304 0.347768 0.241484
H64   H     H_    0.029076 0.311696 0.347768 0.241484
H65   H     H_    0.029076 0.688304 0.347768 0.241484
H66   H     H_    0.490714 0.860161 0.425080 0.158844
H67   H     H_    0.017213 0.332699 0.936307 0.166461
H68   H     H_    0.490714 0.139839 0.425080 0.158844
H69   H     H_    0.990714 0.360161 0.425080 0.158844
H70   H     H_    0.990714 0.639839 0.425080 0.158844
H71   H     H_    0.585618 0.860334 0.423296 0.055536
H72   H     H_    0.585618 0.139666 0.423295 0.055536
H73   H     H_    0.085618 0.360334 0.423296 0.055535
H74   H     H_    0.085618 0.639666 0.423296 0.055536
H75   H     H_    0.385000 0.761878 0.063706 0.174223
H76   H     H_    0.385047 0.237795 0.063707 0.174173
H77   H     H_    0.885034 0.262113 0.063707 0.174187
H78   H     H_    0.017090 0.667323 0.936307 0.166459
H79   H     H_    0.885016 0.738011 0.063707 0.174206
H80   H     H_    0.448730 0.761891 0.936274 0.168579
H81   H     H_    0.448778 0.237782 0.936274 0.168558
H82   H     H_    0.948764 0.262126 0.936274 0.168563
H83   H     H_    0.948746 0.737998 0.936274 0.168571
H84   H     H_    0.583782 0.816037 0.936322 0.170520
H85   H     H_    0.584042 0.184168 0.936322 0.170526
H86   H     H_    0.083969 0.315889 0.936322 0.170525
H87   H     H_    0.083871 0.684033 0.936322 0.170522
H88   H     H_    0.453250 0.832645 0.063738 0.168787
O1    O     O_3   0.750020 0.750020 0.500000 -0.491199
O2    O     O_R   0.741140 0.134170 0.457020 -0.613391
O3    O     O_R   0.241140 0.365830 0.457020 -0.613391
O4    O     O_R   0.241140 0.634170 0.457020 -0.613391
O5    O     O_R   0.862350 0.719680 0.336040 -0.647809
O6    O     O_R   0.862350 0.280320 0.336040 -0.647809
O7    O     O_R   0.362350 0.219680 0.336040 -0.647809
O8    O     O_R   0.362350 0.780320 0.336040 -0.647809
O9    O     O_R   0.698420 0.780360 0.663960 -0.641184
O10   O     O_R   0.698420 0.219640 0.663960 -0.641184
O11   O     O_R   0.198420 0.280360 0.663960 -0.641184
O12   O     O_3   0.750020 0.249980 0.500000 -0.491199
O13   O     O_R   0.198420 0.719640 0.663960 -0.641184
O14   O     O_R   0.801620 0.780400 0.336040 -0.595105
O15   O     O_R   0.801620 0.219600 0.336040 -0.595104
O16   O     O_R   0.301620 0.280400 0.336040 -0.595104
O17   O     O_R   0.301620 0.719600 0.336040 -0.595105
O18   O     O_R   0.637700 0.719640 0.663960 -0.639742
O19   O     O_R   0.637700 0.280360 0.663960 -0.639742
O20   O     O_R   0.137700 0.219640 0.663960 -0.639742
O21   O     O_R   0.137700 0.780360 0.663960 -0.639742
O22   O     O_R   0.801870 0.634220 0.457010 -0.644109
O23   O     O_3   0.250020 0.250020 0.500000 -0.491199
O24   O     O_R   0.801870 0.365780 0.457010 -0.644109
O25   O     O_R   0.301870 0.134220 0.457010 -0.644109
O26   O     O_R   0.301870 0.865780 0.457010 -0.644109
O27   O     O_R   0.758890 0.865820 0.542980 -0.657630
O28   O     O_R   0.758890 0.134180 0.542980 -0.657629
O29   O     O_R   0.258890 0.365820 0.542980 -0.657630
O30   O     O_R   0.258890 0.634180 0.542980 -0.657629
O31   O     O_R   0.887320 0.719660 0.457000 -0.638662
O32   O     O_R   0.887320 0.280340 0.457000 -0.638662
O33   O     O_R   0.387320 0.219660 0.457000 -0.638662
O34   O     O_3   0.250020 0.749980 0.500000 -0.491199
O35   O     O_R   0.387320 0.780340 0.457000 -0.638662
O36   O     O_R   0.655700 0.780400 0.457020 -0.618047
O37   O     O_R   0.655700 0.219600 0.457020 -0.618047
O38   O     O_R   0.155700 0.280400 0.457020 -0.618047
O39   O     O_R   0.155700 0.719600 0.457020 -0.618047
O40   O     O_R   0.844340 0.780370 0.542980 -0.651337
O41   O     O_R   0.844340 0.219630 0.542980 -0.651337
O42   O     O_R   0.344340 0.280370 0.542980 -0.651337
O43   O     O_R   0.344340 0.719630 0.542980 -0.651337
O44   O     O_R   0.612730 0.719670 0.543000 -0.654137
O45   O     O_R   0.698170 0.634220 0.542990 -0.647679
O46   O     O_R   0.612730 0.280330 0.543000 -0.654137
O47   O     O_R   0.112730 0.219670 0.543000 -0.654137
O48   O     O_R   0.112730 0.780330 0.543000 -0.654137
O49   O     O_R   0.698170 0.365780 0.542990 -0.647679
O50   O     O_R   0.198170 0.134220 0.542990 -0.647679
O51   O     O_R   0.198170 0.865780 0.542990 -0.647679
O52   O     O_R   0.741140 0.865830 0.457020 -0.613391
Zn1   Zn    Zn3+2 0.675940 0.706640 0.561420 0.959556
Zn2   Zn    Zn3+2 0.762700 0.206610 0.561410 0.959635
Zn3   Zn    Zn3+2 0.262700 0.293390 0.561410 0.959635
Zn4   Zn    Zn3+2 0.262700 0.706610 0.561410 0.959635
Zn5   Zn    Zn3+2 0.737340 0.793410 0.438590 1.038863
Zn6   Zn    Zn3+2 0.737340 0.206590 0.438590 1.038863
Zn7   Zn    Zn3+2 0.237340 0.293410 0.438590 1.038863
Zn8   Zn    Zn3+2 0.237340 0.706590 0.438590 1.038863
Zn9   Zn    Zn3+2 0.675940 0.293360 0.561420 0.959556
Zn10  Zn    Zn3+2 0.175940 0.206640 0.561420 0.959556
Zn11  Zn    Zn3+2 0.175940 0.793360 0.561420 0.959556
Zn12  Zn    Zn3+2 0.824100 0.706650 0.438580 0.967875
Zn13  Zn    Zn3+2 0.824100 0.293350 0.438580 0.967875
Zn14  Zn    Zn3+2 0.324100 0.206650 0.438580 0.967875
Zn15  Zn    Zn3+2 0.324100 0.793350 0.438580 0.967875
Zn16  Zn    Zn3+2 0.762700 0.793390 0.561410 0.959635

loop_
_geom_bond_atom_site_label_1
_geom_bond_atom_site_label_2
_ccdc_geom_bond_type
C30   C51   S    
O14   Zn5   S    
C87   C91   S    
C95   H14   S    
C33   C45   A    
C83   C87   S    
C40   C93   A    
C90   C95   S    
C4    C125  S    
C84   H77   S    
C63   C76   S    
C76   C98   S    
O48   Zn11  S    
C89   C94   S    
C129  O51   A    
C20   O30   A    
C91   C96   S    
C21   O31   A    
C96   H10   S    
C50   H65   S    
C22   O32   A    
C20   O4    A    
C12   C135  S    
O31   Zn12  S    
C79   O11   A    
C59   C73   S    
C81   C86   S    
C79   C110  S    
C63   H78   S    
C94   H21   S    
C25   O35   A    
C54   H74   S    
C121  H36   S    
C26   O36   A    
O44   Zn1   S    
C28   O38   A    
C86   C90   S    
O38   Zn7   S    
C62   C66   S    
C46   H66   S    
O34   Zn11  S    
C95   H9    S    
C25   C126  S    
C98   H13   S    
C39   H1    S    
C8    H49   S    
C59   H84   S    
C76   C107  S    
C62   C75   S    
C59   H45   S    
C73   C95   S    
C84   H29   S    
C32   C53   S    
C20   C120  S    
C56   C83   S    
C48   H69   S    
C84   C88   S    
C18   O2    A    
C47   C52   S    
C119  C123  A    
C61   C74   S    
C104  H42   S    
C33   C38   A    
C71   O8    A    
C130  C131  S    
C131  F2    S    
O17   Zn8   S    
C45   C50   S    
C42   H34   S    
O15   Zn6   S    
C81   H27   S    
C112  C131  S    
C69   C100  T    
C61   C65   S    
O25   Zn14  S    
C73   C103  S    
C21   C24   S    
C31   C36   A    
O34   Zn8   S    
C77   O18   A    
C55   H22   S    
C43   C47   S    
C71   O17   A    
C13   C44   A    
O28   Zn2   S    
C44   C48   S    
C21   O40   A    
C55   H80   S    
O29   Zn3   S    
O30   Zn4   S    
O12   Zn2   S    
C79   O20   A    
C128  O50   A    
C70   C101  T    
C58   C76   S    
C123  C124  A    
C132  F3    S    
O33   Zn14  S    
C31   C43   A    
C90   H18   S    
C77   O9    A    
O3    Zn7   S    
C66   C88   S    
O8    Zn15  S    
C82   H40   S    
C3    C136  A    
C118  C122  A    
O23   Zn7   S    
O49   Zn9   S    
C17   O52   A    
C82   C126  A    
O51   Zn11  S    
C62   H86   S    
C29   C38   S    
O35   Zn15  S    
C12   H58   S    
C55   C81   S    
C114  C119  A    
C22   O41   A    
O2    Zn6   S    
O23   Zn10  S    
C92   C97   S    
O9    Zn16  S    
C51   F5    S    
C53   H73   S    
C48   C53   S    
C1    C72   S    
C113  C130  S    
C30   C34   A    
C34   C39   A    
C29   O39   A    
C74   C96   S    
C16   H61   S    
C1    O5    A    
O45   Zn1   S    
C46   C51   S    
C23   O33   A    
C116  C120  A    
C5    C9    A    
C115  H43   S    
C116  C132  S    
O26   Zn15  S    
C85   H30   S    
C32   C37   A    
C75   C106  S    
C27   O37   A    
O1    Zn5   S    
C16   C136  S    
C63   H87   S    
C87   C100  S    
C33   C54   S    
C46   H62   S    
C18   C118  S    
C67   H8    S    
C107  C111  T    
C77   C108  S    
C39   C82   A    
C114  C116  A    
C134  C135  A    
C75   C97   S    
C64   H5    S    
C128  O25   A    
C57   C75   S    
C6    C128  S    
C74   C105  S    
C35   C46   S    
C72   C102  T    
C28   C37   S    
C91   H32   S    
C78   C109  S    
C94   H35   S    
C37   C41   A    
C125  O22   A    
C10   C11   A    
C55   C73   S    
O6    Zn13  S    
O34   Zn4   S    
C96   H15   S    
C2    C23   S    
O36   Zn5   S    
C58   H83   S    
O11   Zn3   S    
C54   F8    S    
O41   Zn2   S    
C50   C54   S    
C56   H81   S    
C4    C134  A    
C3    C7    A    
C112  C117  A    
O12   Zn9   S    
C94   C98   S    
C81   H75   S    
O23   Zn3   S    
C52   H72   S    
C5    C135  A    
O10   Zn2   S    
C105  C109  T    
C122  H37   S    
O1    Zn1   S    
C61   H85   S    
C65   C87   S    
C17   O27   A    
O40   Zn16  S    
C18   O28   A    
C17   C117  S    
O34   Zn15  S    
C19   C119  S    
C78   O19   A    
C91   H19   S    
O1    Zn12  S    
O43   Zn4   S    
C64   C86   S    
C15   H60   S    
C27   O46   A    
C56   C74   S    
C80   O21   A    
C97   H16   S    
C11   H52   S    
C64   H88   S    
C85   C89   S    
C9    H50   S    
O50   Zn10  S    
C90   H31   S    
O5    Zn12  S    
C83   H28   S    
C5    C127  S    
C57   C84   S    
C60   O7    A    
O23   Zn14  S    
C85   H79   S    
C121  C122  A    
C49   O15   A    
O12   Zn6   S    
O52   Zn5   S    
C49   C70   S    
C16   H57   S    
O39   Zn8   S    
C98   H17   S    
C28   O47   A    
C131  H46   S    
C51   H71   S    
O16   Zn7   S    
C58   H26   S    
C49   O6    A    
C19   O3    A    
C6    C10   A    
C41   C104  A    
C27   C36   S    
C25   O43   A    
C26   O44   A    
C125  O45   A    
C68   C71   S    
C80   C111  S    
O18   Zn1   S    
C13   C22   S    
C97   H11   S    
C7    C129  S    
C42   C115  A    
C66   H7    S    
C133  F4    S    
C67   H4    S    
O42   Zn3   S    
C130  F1    S    
C133  H48   S    
C93   H41   S    
O1    Zn16  S    
C89   C102  S    
C4    C8    A    
C88   C101  S    
C29   O48   A    
C7    C11   A    
C14   H54   S    
C59   C64   S    
C78   O10   A    
C30   C35   A    
O20   Zn10  S    
C24   C45   A    
C60   C69   S    
O21   Zn11  S    
C38   C42   A    
C123  H38   S    
O22   Zn12  S    
C1    O14   A    
C23   O42   A    
C130  H44   S    
C50   H70   S    
C15   C16   S    
C67   C89   S    
C65   H6    S    
C117  C121  A    
C6    C136  A    
C26   C34   S    
C88   C92   S    
O24   Zn13  S    
C8    C9    A    
C12   H53   S    
C103  C108  T    
O7    Zn14  S    
C13   C104  A    
C92   H20   S    
C47   H68   S    
O13   Zn4   S    
C48   H64   S    
C61   H56   S    
C112  C113  A    
O12   Zn13  S    
C57   H25   S    
C63   C67   S    
O27   Zn16  S    
C127  O24   A    
O19   Zn9   S    
C36   C40   A    
O32   Zn13  S    
C124  H39   S    
C129  O26   A    
C92   H33   S    
C132  C133  S    
C14   C134  S    
O46   Zn9   S    
C52   F6    S    
C53   F7    S    
C35   C126  A    
C86   C99   S    
C19   O29   A    
C15   H55   S    
C2    C43   A    
C62   H67   S    
C14   H59   S    
C56   H24   S    
C66   H3    S    
O4    Zn8   S    
C132  H47   S    
C57   H82   S    
C12   C14   S    
C60   O16   A    
C58   C85   S    
C3    C15   S    
C106  C110  T    
C2    C93   A    
O47   Zn10  S    
C31   C52   S    
C47   H63   S    
C127  O49   A    
C65   H2    S    
C68   C99   T    
O37   Zn6   S    
C10   H51   S    
C83   H76   S    
C41   H23   S    
C114  C133  S    
C113  C118  A    
C32   C44   A    
C24   C115  A    
C80   O13   A    
C40   H12   S    
C120  C124  A    
