data_mof_unit_29406.cif
_audit_creation_date              2012-12-11T16:44:15-0500
_audit_creation_method            fapswitch 2.2
_symmetry_space_group_name_H-M    P1
_symmetry_Int_Tables_number       1
_space_group_crystal_system       triclinic
_cell_length_a                    27.233533
_cell_length_b                    7.201124
_cell_length_c                    22.817614
_cell_angle_alpha                 90.002444
_cell_angle_beta                  101.453685
_cell_angle_gamma                 90.005087
_cell_volume                      4385.69559846

loop_
_atom_site_label
_atom_site_type_symbol
_atom_type_description
_atom_site_fract_x
_atom_site_fract_y
_atom_site_fract_z
_atom_type_partial_charge
O1    O     O_R   0.707300 0.594030 0.176840 -0.532590
O2    O     O_R   0.292700 0.405970 0.823160 -0.532590
O3    O     O_R   0.792700 0.094030 0.323160 -0.532576
O4    O     O_R   0.207300 0.905970 0.676840 -0.532575
O5    O     O_R   0.697330 0.262360 0.295660 -0.540804
O6    O     O_R   0.302670 0.737640 0.704340 -0.540804
O7    O     O_R   0.802670 0.762360 0.204340 -0.540803
O8    O     O_R   0.197330 0.237640 0.795660 -0.540803
C1    C     C_R   0.684763 0.432484 0.311720 0.673244
C2    C     C_R   0.315237 0.567516 0.688279 0.673245
C3    C     C_R   0.815236 0.932490 0.188279 0.673211
C4    C     C_R   0.184764 0.067510 0.811721 0.673211
O9    O     O_R   0.701410 0.264250 0.175600 -0.534398
O10   O     O_R   0.298590 0.735750 0.824400 -0.534398
O11   O     O_R   0.798590 0.764250 0.324400 -0.534389
O12   O     O_R   0.201410 0.235750 0.675600 -0.534390
O13   O     O_R   0.796800 0.094950 0.202240 -0.538898
O14   O     O_R   0.203200 0.905050 0.797760 -0.538898
O15   O     O_R   0.703200 0.594950 0.297760 -0.538895
O16   O     O_R   0.296800 0.405050 0.702240 -0.538896
C5    C     C_R   0.689743 0.432515 0.153497 0.685898
C6    C     C_R   0.310257 0.567485 0.846503 0.685900
C7    C     C_R   0.810256 0.932536 0.346501 0.685916
C8    C     C_R   0.189744 0.067463 0.653499 0.685915
O17   O     O_3   0.781290 0.427390 0.258880 -0.372920
O18   O     O_3   0.218710 0.572610 0.741120 -0.372919
O19   O     O_3   0.718710 0.927390 0.241120 -0.372938
O20   O     O_3   0.281290 0.072610 0.758880 -0.372938
V1    V     V_3+5 0.744190 0.152150 0.248350 1.408429
V2    V     V_3+5 0.255810 0.847850 0.751650 1.408429
V3    V     V_3+5 0.755810 0.652150 0.251650 1.408423
V4    V     V_3+5 0.244190 0.347850 0.748350 1.408423
C9    C     C_R   0.154712 0.062358 0.595221 -0.037297
C10   C     C_R   0.845288 0.937642 0.404779 -0.037297
C11   C     C_R   0.345292 0.562511 0.904784 -0.037420
C12   C     C_R   0.654708 0.437489 0.095216 -0.037421
C13   C     C_R   0.138943 0.123213 0.488969 -0.161871
C14   C     C_R   0.861057 0.876787 0.511031 -0.161871
C15   C     C_R   0.361155 0.624981 0.010947 -0.161920
C16   C     C_R   0.638845 0.375019 0.989053 -0.161922
C17   C     C_R   0.171870 0.114882 0.543967 -0.165109
C18   C     C_R   0.828130 0.885118 0.456033 -0.165109
C19   C     C_R   0.328200 0.616132 0.955979 -0.165033
C20   C     C_R   0.671800 0.383869 0.044021 -0.165032
C21   C     C_R   0.103767 0.018689 0.591143 -0.213374
C22   C     C_R   0.896233 0.981311 0.408857 -0.213374
C23   C     C_R   0.396203 0.518235 0.908896 -0.213421
C24   C     C_R   0.603797 0.481765 0.091104 -0.213422
C25   C     C_R   0.068986 0.029348 0.535506 0.085534
C26   C     C_R   0.931014 0.970652 0.464494 0.085534
C27   C     C_R   0.431017 0.529450 0.964499 0.085506
C28   C     C_R   0.568983 0.470550 0.035501 0.085506
C29   C     C_R   0.087915 0.082320 0.484312 0.138810
C30   C     C_R   0.912085 0.917680 0.515688 0.138810
C31   C     C_R   0.412152 0.583565 0.015629 0.138809
C32   C     C_R   0.587847 0.416435 0.984371 0.138810
C33   C     C_R   0.016274 0.991901 0.528848 0.057955
C34   C     C_R   0.983726 0.008099 0.471152 0.057954
C35   C     C_R   0.483705 0.491542 0.971176 0.057947
C36   C     C_R   0.516295 0.508458 0.028824 0.057947
C37   C     C_R   0.005008 0.060593 0.422071 -0.186578
C38   C     C_R   0.994992 0.939407 0.577929 -0.186578
C39   C     C_R   0.495076 0.562103 0.077840 -0.186590
C40   C     C_R   0.504924 0.437897 0.922160 -0.186590
C41   C     C_R   0.055888 0.096424 0.428672 -0.200442
C42   C     C_R   0.944112 0.903576 0.571328 -0.200442
C43   C     C_R   0.444218 0.598345 0.071224 -0.200434
C44   C     C_R   0.555782 0.401655 0.928775 -0.200435
H1    H     H_    0.070335 0.136881 0.389553 0.123656
H2    H     H_    0.929665 0.863120 0.610447 0.123656
H3    H     H_    0.429820 0.639697 0.110292 0.123668
H4    H     H_    0.570180 0.360303 0.889708 0.123669
H5    H     H_    0.907438 0.018526 0.367714 0.095030
H6    H     H_    0.092562 0.981473 0.632286 0.095030
H7    H     H_    0.592635 0.519763 0.132205 0.095128
H8    H     H_    0.407365 0.480236 0.867795 0.095129
H9    H     H_    0.789096 0.849309 0.453344 0.107411
H10   H     H_    0.210903 0.150692 0.546656 0.107410
H11   H     H_    0.710802 0.347542 0.046740 0.107479
H12   H     H_    0.289198 0.652458 0.953260 0.107479
H13   H     H_    0.153355 0.164361 0.449913 0.114075
H14   H     H_    0.846645 0.835640 0.550087 0.114075
H15   H     H_    0.346793 0.667011 0.049952 0.114088
H16   H     H_    0.653207 0.332990 0.950048 0.114089
H17   H     H_    0.983278 0.075983 0.377492 0.124214
H18   H     H_    0.016722 0.924018 0.622508 0.124214
H19   H     H_    0.516841 0.578117 0.122377 0.124215
H20   H     H_    0.483159 0.421883 0.877623 0.124216
C45   C     C_R   0.872218 0.117623 0.135983 -0.162388
C46   C     C_R   0.127787 0.882377 0.864026 -0.162386
C47   C     C_R   0.627752 0.617594 0.363973 -0.162395
C48   C     C_R   0.372225 0.382399 0.635995 -0.162383
H21   H     H_    0.859027 0.245096 0.152741 0.125275
H22   H     H_    0.140984 0.754902 0.847274 0.125273
H23   H     H_    0.640920 0.745059 0.347180 0.125274
H24   H     H_    0.359037 0.254926 0.652762 0.125268
C49   C     C_R   0.907845 0.130294 0.099652 -0.148885
C50   C     C_R   0.092161 0.869706 0.900356 -0.148882
C51   C     C_R   0.592126 0.630265 0.400304 -0.148885
C52   C     C_R   0.407851 0.369729 0.599665 -0.148879
H25   H     H_    0.921283 0.266459 0.090247 0.101211
H26   H     H_    0.078728 0.733541 0.909767 0.101207
H27   H     H_    0.578666 0.766420 0.409676 0.101214
H28   H     H_    0.421293 0.233566 0.590271 0.101198
C53   C     C_R   0.926391 0.969767 0.076498 0.095279
C54   C     C_R   0.073609 0.030235 0.923504 0.095279
C55   C     C_R   0.573608 0.469748 0.423500 0.095283
C56   C     C_R   0.426392 0.530253 0.576497 0.095289
C57   C     C_R   0.908588 0.795700 0.091244 -0.145180
C58   C     C_R   0.091408 0.204303 0.908750 -0.145179
C59   C     C_R   0.591438 0.295688 0.408795 -0.145174
C60   C     C_R   0.408583 0.704319 0.591233 -0.145167
H29   H     H_    0.921554 0.669126 0.073678 0.100381
H30   H     H_    0.078437 0.330879 0.926311 0.100379
H31   H     H_    0.578493 0.169125 0.426395 0.100375
H32   H     H_    0.421545 0.830892 0.573657 0.100363
C61   C     C_R   0.872931 0.782842 0.127780 -0.160693
C62   C     C_R   0.127064 0.217160 0.872213 -0.160693
C63   C     C_R   0.627095 0.282830 0.372258 -0.160686
C64   C     C_R   0.372927 0.717176 0.627771 -0.160690
H33   H     H_    0.859823 0.646585 0.137637 0.120309
H34   H     H_    0.140167 0.353418 0.862350 0.120310
H35   H     H_    0.640225 0.146582 0.362435 0.120291
H36   H     H_    0.359816 0.853430 0.637620 0.120293
C65   C     C_R   0.854053 0.943819 0.150495 -0.049447
C66   C     C_R   0.145947 0.056182 0.849506 -0.049449
C67   C     C_R   0.645945 0.443800 0.349502 -0.049430
C68   C     C_R   0.354054 0.556199 0.650496 -0.049434
C69   C     C_R   0.003285 0.855343 0.041444 -0.152667
C70   C     C_R   0.996715 0.144659 0.958558 -0.152666
C71   C     C_R   0.496733 0.355243 0.458588 -0.152665
C72   C     C_R   0.503268 0.644758 0.541409 -0.152660
H37   H     H_    0.007171 0.743940 0.073900 0.109602
H38   H     H_    0.992828 0.256060 0.926101 0.109600
H39   H     H_    0.492861 0.243758 0.426158 0.109600
H40   H     H_    0.507143 0.756240 0.573839 0.109593
C73   C     C_R   0.038766 0.870543 0.004872 -0.152901
C74   C     C_R   0.961235 0.129462 0.995130 -0.152902
C75   C     C_R   0.461252 0.370455 0.495159 -0.152897
C76   C     C_R   0.538748 0.629551 0.504836 -0.152902
H41   H     H_    0.068924 0.770177 0.010226 0.108403
H42   H     H_    0.931078 0.229831 0.989778 0.108404
H43   H     H_    0.431107 0.270016 0.489829 0.108390
H44   H     H_    0.568892 0.729993 0.510162 0.108394
C77   C     C_R   0.035975 0.015343 0.962865 0.081733
C78   C     C_R   0.964025 0.984660 0.037137 0.081731
C79   C     C_R   0.464025 0.515354 0.537134 0.081738
C80   C     C_R   0.535975 0.484649 0.462863 0.081733

loop_
_geom_bond_atom_site_label_1
_geom_bond_atom_site_label_2
_ccdc_geom_bond_type
O17   V3    S    
C51   H27   S    
O1    C5    A    
O19   V1    S    
C9    C21   A    
C16   H16   S    
O3    C7    A    
C10   C18   A    
O1    V3    S    
O15   V3    S    
C76   C80   A    
C57   C61   A    
C33   C38   A    
C5    C12   S    
C45   C65   A    
O7    C3    A    
C6    C11   S    
C38   H18   S    
C75   C79   A    
C35   C40   A    
C1    C67   S    
C54   C77   S    
C47   C67   A    
C36   C39   A    
C40   C44   A    
O2    V4    S    
C73   C77   A    
C3    C65   S    
C23   H8    S    
C14   C18   A    
C71   H39   S    
C54   C58   A    
O4    C8    A    
C25   C29   A    
C72   H40   S    
C44   H4    S    
C4    C66   S    
C48   H24   S    
O13   V1    S    
C59   C63   A    
C62   H34   S    
O3    V1    S    
C61   H33   S    
C53   C57   A    
C28   C36   A    
C75   H43   S    
C1    O15   A    
C52   H28   S    
C15   C31   A    
C72   C76   A    
C2    O16   A    
C16   C32   A    
O2    C6    A    
C10   C22   A    
C11   C19   A    
C58   H30   S    
C16   C20   A    
C43   H3    S    
C57   H29   S    
C56   C79   S    
C13   C29   A    
C34   C37   A    
O11   C7    A    
C11   C23   A    
C35   C36   A    
O12   C8    A    
C14   H14   S    
C70   C77   A    
C45   H21   S    
C24   H7    S    
C13   H13   S    
C70   H38   S    
O10   V2    S    
C2    C68   S    
C48   C68   A    
C46   H22   S    
O5    V1    S    
C39   C43   A    
C52   C56   A    
O7    V3    S    
C38   C42   A    
O8    V4    S    
C74   H42   S    
C17   H10   S    
C60   C64   A    
O18   V4    S    
C15   C19   A    
C19   H12   S    
C32   C44   A    
C47   H23   S    
C56   C60   A    
C45   C49   A    
C21   H6    S    
C26   C34   A    
O5    C1    A    
C31   C43   A    
C14   C30   A    
C21   C25   A    
O8    C4    A    
C7    C10   S    
C46   C66   A    
O9    C5    A    
C71   C80   A    
C26   C30   A    
C58   C62   A    
C69   C78   A    
C37   H17   S    
C69   H37   S    
O6    V2    S    
O14   V2    S    
C12   C20   A    
C27   C35   A    
C70   C74   A    
C60   H32   S    
C29   C41   A    
C48   C52   A    
O16   V4    S    
O9    V1    S    
C73   H41   S    
C3    O13   A    
C39   H19   S    
C72   C79   A    
C55   C59   A    
C20   H11   S    
C76   H44   S    
O6    C2    A    
C25   C33   A    
C23   C27   A    
C64   C68   A    
O11   V3    S    
C30   C42   A    
C63   H35   S    
O12   V4    S    
C51   C55   A    
C22   C26   A    
C8    C9    S    
C50   C54   A    
C9    C17   A    
O10   C6    A    
O20   V2    S    
C49   C53   A    
C50   H26   S    
C55   C80   S    
C33   C34   A    
C42   H2    S    
C74   C78   A    
C41   H1    S    
C53   C78   S    
C46   C50   A    
C12   C24   A    
C27   C31   A    
C13   C17   A    
C49   H25   S    
C71   C75   A    
C64   H36   S    
C15   H15   S    
C37   C41   A    
C24   C28   A    
C69   C73   A    
C18   H9    S    
C4    O14   A    
C59   H31   S    
C62   C66   A    
C47   C51   A    
C61   C65   A    
C40   H20   S    
C22   H5    S    
O4    V2    S    
C28   C32   A    
C63   C67   A    
