data_mof_unit_42493.cif
_audit_creation_date              2012-12-11T14:52:31-0500
_audit_creation_method            fapswitch 2.2
_symmetry_space_group_name_H-M    P1
_symmetry_Int_Tables_number       1
_space_group_crystal_system       triclinic
_cell_length_a                    18.878538
_cell_length_b                    10.886469
_cell_length_c                    18.748417
_cell_angle_alpha                 89.988219
_cell_angle_beta                  90.772358
_cell_angle_gamma                 89.995129
_cell_volume                      3852.83607865

loop_
_atom_site_label
_atom_site_type_symbol
_atom_type_description
_atom_site_fract_x
_atom_site_fract_y
_atom_site_fract_z
_atom_type_partial_charge
C1    C     C_R   0.289442 0.998506 0.860961 0.527685
C2    C     C_R   0.699822 0.524759 0.038048 -0.120883
C3    C     C_3   0.035552 0.321417 0.062580 0.025596
C4    C     C_3   0.353603 0.836735 0.105146 0.003878
C5    C     C_3   0.278940 0.808449 0.130150 -0.354408
C6    C     C_3   0.648352 0.768332 0.900608 0.002080
C7    C     C_3   0.721587 0.793859 0.871740 -0.350806
C8    C     C_3   0.853031 0.267773 0.095406 0.001403
C9    C     C_3   0.779492 0.293733 0.123260 -0.352281
C10   C     C_3   0.160303 0.295202 0.907991 0.001003
C11   C     C_3   0.235857 0.325340 0.887617 -0.353532
C12   C     C_R   0.799459 0.022167 0.961456 -0.119640
C13   C     C_R   0.199103 0.027236 0.037783 -0.124205
C14   C     C_R   0.296964 0.523041 0.038141 -0.110277
C15   C     C_R   0.712673 0.488865 0.968088 -0.113720
C16   C     C_R   0.786572 0.986329 0.031459 -0.112131
C17   C     C_R   0.211636 0.992372 0.967652 -0.125840
C18   C     C_R   0.228817 0.537868 0.066192 0.064868
C19   C     C_R   0.777608 0.518266 0.936406 0.057315
C20   C     C_R   0.722042 0.017364 0.063467 0.055009
C21   C     C_R   0.709776 0.996377 0.139176 0.537982
C22   C     C_R   0.276083 0.023693 0.935655 0.054768
C23   C     C_R   0.175522 0.594985 0.025966 -0.102415
C24   C     C_R   0.831582 0.572578 0.977209 -0.100628
C25   C     C_R   0.668322 0.072850 0.022841 -0.104352
C26   C     C_R   0.329255 0.082211 0.975453 -0.101996
C27   C     C_R   0.190330 0.641931 0.960022 -0.118162
C28   C     C_R   0.819626 0.604863 0.047107 -0.108838
C29   C     C_R   0.680296 0.105139 0.952930 -0.109259
C30   C     C_R   0.317223 0.115390 0.044918 -0.119395
C31   C     C_R   0.258295 0.628580 0.931345 0.046376
C32   C     C_R   0.790109 0.496651 0.860851 0.539744
C33   C     C_R   0.753050 0.584910 0.077476 0.041939
C34   C     C_R   0.746627 0.083925 0.922304 0.043468
C35   C     C_R   0.252101 0.088791 0.076734 0.048873
C36   C     C_R   0.464571 0.726377 0.527432 -0.121582
C37   C     C_R   0.471609 0.730631 0.454610 -0.132825
C38   C     C_R   0.013439 0.222451 0.540949 -0.134494
C39   C     C_R   0.016755 0.219768 0.468114 -0.128466
C40   C     C_R   0.499215 0.835732 0.422846 0.027297
C41   C     C_R   0.482725 0.828649 0.569645 0.033476
C42   C     C_R   0.011213 0.328742 0.428417 0.033548
C43   C     C_R   0.212133 0.502380 0.138556 0.540812
C44   C     C_R   0.998476 0.332564 0.575858 0.030410
C45   C     C_R   0.513374 0.941227 0.464054 -0.138701
C46   C     C_R   0.504810 0.937733 0.537539 -0.149610
C47   C     C_R   0.000862 0.441075 0.463245 -0.132584
C48   C     C_R   0.993493 0.442823 0.537034 -0.128789
C49   C     C_R   0.438942 0.816734 0.863291 0.532045
C50   C     C_R   0.561177 0.816725 0.136780 0.549038
C51   C     C_R   0.940939 0.317042 0.863503 0.554250
C52   C     C_R   0.061647 0.316712 0.137028 0.557058
C53   C     C_R   0.215011 0.698466 0.524431 -0.120971
C54   C     C_3   0.515058 0.716546 0.964875 -0.144231
C55   C     C_R   0.791718 0.687611 0.474114 -0.126483
C56   C     C_R   0.707462 0.186019 0.526103 -0.128321
C57   C     C_R   0.318251 0.087636 0.454968 -0.136048
C58   C     C_R   0.214187 0.687238 0.451739 -0.134858
C59   C     C_R   0.791675 0.680874 0.546827 -0.138515
C60   C     C_R   0.707578 0.179831 0.453397 -0.140080
C61   C     C_R   0.323941 0.082719 0.527751 -0.125295
C62   C     C_R   0.253026 0.593269 0.420733 0.029232
C63   C     C_R   0.747487 0.596273 0.579700 0.032088
C64   C     C_R   0.752369 0.096417 0.420316 0.032357
C65   C     C_3   0.479724 0.722841 0.037977 -0.131850
C66   C     C_R   0.263462 0.061508 0.568836 0.038241
C67   C     C_R   0.300422 0.521573 0.461651 -0.138243
C68   C     C_R   0.695200 0.533051 0.540352 -0.130180
C69   C     C_R   0.805175 0.034187 0.459497 -0.132207
C70   C     C_R   0.198116 0.036875 0.536301 -0.149395
C71   C     C_R   0.301866 0.533882 0.534856 -0.150262
C72   C     C_R   0.693663 0.542804 0.466857 -0.136165
C73   C     C_R   0.806759 0.043706 0.533017 -0.137201
C74   C     C_R   0.192287 0.043064 0.462970 -0.139711
C75   C     C_R   0.256822 0.618790 0.566405 0.037754
C76   C     C_3   0.024480 0.222832 0.961831 -0.141934
C77   C     C_R   0.743981 0.616407 0.433498 0.039715
C78   C     C_R   0.755889 0.115956 0.566566 0.040155
C79   C     C_R   0.251608 0.076431 0.422933 0.031600
C80   C     C_R   0.270986 0.675257 0.859912 0.525532
C81   C     C_R   0.739063 0.638009 0.147362 0.530791
C82   C     C_R   0.760866 0.137744 0.852578 0.531245
C83   C     C_R   0.238878 0.138709 0.147256 0.528806
C84   C     C_R   0.273666 0.040988 0.643646 0.554642
C85   C     C_R   0.730032 0.049276 0.352227 0.554554
C86   C     C_R   0.769960 0.549239 0.647768 0.553830
C87   C     C_3   0.987319 0.216936 0.034130 -0.141366
C88   C     C_R   0.229962 0.548469 0.352487 0.554885
C89   C     C_R   0.466807 0.822994 0.644926 0.554304
C90   C     C_R   0.528879 0.824354 0.352352 0.554604
C91   C     C_R   0.970835 0.323976 0.647375 0.557546
C92   C     C_R   0.031331 0.323239 0.354113 0.556404
C93   C     C_R   0.261466 0.642530 0.641372 0.557429
C94   C     C_R   0.738730 0.641694 0.358505 0.551783
C95   C     C_R   0.761238 0.141557 0.641532 0.551138
C96   C     C_R   0.240716 0.132596 0.354591 0.549975
C97   C     C_3   0.484825 0.925118 0.035694 -0.154614
C98   C     C_R   0.311770 0.569054 0.970727 -0.111067
C99   C     C_3   0.520836 0.918552 0.961638 -0.140270
C100  C     C_3   0.981967 0.419514 0.037250 -0.145972
C101  C     C_3   0.020101 0.425347 0.964212 -0.149366
C102  C     C_3   0.431140 0.826410 0.011379 0.246362
C103  C     C_3   0.569110 0.814105 0.989054 0.253172
C104  C     C_3   0.934163 0.315160 0.009021 0.249319
C105  C     C_3   0.072697 0.326114 0.990361 0.249174
C106  C     C_3   0.466046 0.821040 0.937706 0.015734
C107  C     C_3   0.534048 0.821361 0.062497 0.022897
C108  C     C_3   0.970813 0.321963 0.936537 0.023698
Cr1   Cr    Cr6+3 0.229630 0.835900 0.747350 0.999592
Cr2   Cr    Cr6+3 0.614200 0.677120 0.250660 1.004488
Cr3   Cr    Cr6+3 0.885800 0.177120 0.749340 1.005939
Cr4   Cr    Cr6+3 0.114200 0.177120 0.250660 0.999470
Cr5   Cr    Cr6+3 0.770370 0.835900 0.252650 1.000003
Cr6   Cr    Cr6+3 0.729630 0.335900 0.747350 1.001057
Cr7   Cr    Cr6+3 0.270370 0.335900 0.252650 1.000961
Cr8   Cr    Cr6+3 0.387410 0.989850 0.750850 0.999762
Cr9   Cr    Cr6+3 0.612590 0.989850 0.249150 0.997155
Cr10  Cr    Cr6+3 0.887410 0.489850 0.750850 1.004202
Cr11  Cr    Cr6+3 0.112590 0.489850 0.249150 1.006560
Cr12  Cr    Cr6+3 0.385800 0.677120 0.749340 1.001169
H1    H     H_    0.182539 0.769728 0.547551 0.140265
H2    H     H_    0.659227 0.469574 0.565637 0.123422
H3    H     H_    0.841611 0.971726 0.434044 0.120955
H4    H     H_    0.151923 0.014480 0.567429 0.113134
H5    H     H_    0.336704 0.476020 0.566666 0.120738
H6    H     H_    0.654304 0.492040 0.436327 0.119133
H7    H     H_    0.846638 0.993887 0.563410 0.117585
H8    H     H_    0.140550 0.031142 0.438393 0.124100
H9    H     H_    0.472864 0.011899 0.064170 0.106150
H10   H     H_    0.537684 0.998993 0.929754 0.118959
H11   H     H_    0.964524 0.500063 0.068707 0.118216
H12   H     H_    0.829220 0.749824 0.450072 0.131065
H13   H     H_    0.034069 0.510662 0.935168 0.118669
H14   H     H_    0.526221 0.627796 0.938098 0.113745
H15   H     H_    0.462284 0.639758 0.067347 0.123620
H16   H     H_    0.040519 0.139213 0.932250 0.115864
H17   H     H_    0.975401 0.128469 0.060901 0.114624
H18   H     H_    0.364522 0.558512 0.949561 0.120566
H19   H     H_    0.648175 0.508132 0.060571 0.120247
H20   H     H_    0.850891 0.004431 0.938728 0.119759
H21   H     H_    0.148163 0.007528 0.061076 0.118194
H22   H     H_    0.338882 0.478774 0.068600 0.118275
H23   H     H_    0.669415 0.247101 0.550245 0.130569
H24   H     H_    0.670740 0.444014 0.937951 0.116663
H25   H     H_    0.828258 0.940431 0.061422 0.117017
H26   H     H_    0.170193 0.945422 0.937931 0.113799
H27   H     H_    0.122371 0.605795 0.046232 0.122038
H28   H     H_    0.882792 0.592667 0.954547 0.117211
H29   H     H_    0.617380 0.094220 0.045703 0.116950
H30   H     H_    0.380118 0.104177 0.952556 0.120472
H31   H     H_    0.147684 0.687938 0.931521 0.124573
H32   H     H_    0.862089 0.649798 0.076441 0.117736
H33   H     H_    0.638104 0.151340 0.923857 0.117857
H34   H     H_    0.364811 0.110233 0.424383 0.127140
H35   H     H_    0.359256 0.163049 0.073422 0.116408
H36   H     H_    0.444316 0.642430 0.550488 0.138524
H37   H     H_    0.459587 0.648909 0.423727 0.127124
H38   H     H_    0.017918 0.136025 0.569371 0.126533
H39   H     H_    0.025900 0.131447 0.443359 0.127321
H40   H     H_    0.535003 0.023575 0.440304 0.134748
H41   H     H_    0.516558 0.018633 0.569183 0.118155
H42   H     H_    0.998354 0.526463 0.433651 0.125425
H43   H     H_    0.981215 0.528852 0.563120 0.131752
H44   H     H_    0.368087 0.930907 0.122671 0.138109
H45   H     H_    0.178757 0.745055 0.420517 0.126575
H46   H     H_    0.389706 0.772490 0.134104 0.141507
H47   H     H_    0.278956 0.720034 0.159248 0.151377
H48   H     H_    0.260890 0.879616 0.168172 0.107403
H49   H     H_    0.241029 0.803362 0.084667 0.190471
H50   H     H_    0.609610 0.814331 0.863922 0.147166
H51   H     H_    0.639450 0.667716 0.897730 0.140493
H52   H     H_    0.731371 0.732472 0.825759 0.143255
H53   H     H_    0.724116 0.888297 0.850659 0.128264
H54   H     H_    0.762992 0.779404 0.913397 0.183440
H55   H     H_    0.891386 0.312110 0.133182 0.146110
H56   H     H_    0.830965 0.733181 0.576621 0.124332
H57   H     H_    0.861300 0.166958 0.097525 0.139791
H58   H     H_    0.768631 0.231211 0.168435 0.143875
H59   H     H_    0.777275 0.387426 0.145399 0.128937
H60   H     H_    0.738689 0.281267 0.080798 0.183034
H61   H     H_    0.124232 0.341213 0.868648 0.144239
H62   H     H_    0.153754 0.194309 0.902989 0.143345
H63   H     H_    0.251978 0.266286 0.842509 0.142959
H64   H     H_    0.238766 0.420957 0.868588 0.156674
H65   H     H_    0.272798 0.311215 0.933385 0.177282
H66   H     H_    0.667855 0.231464 0.423767 0.123964
H67   H     H_    0.376030 0.095072 0.551606 0.139284
H68   H     H_    0.331867 0.449335 0.438048 0.137647
O1    O     O_R   0.214270 0.709000 0.827470 -0.529075
O2    O     O_R   0.543270 0.717630 0.330160 -0.518291
O3    O     O_R   0.956730 0.217630 0.669840 -0.522038
O4    O     O_R   0.043270 0.217630 0.330160 -0.526411
O5    O     O_R   0.320620 0.625640 0.672920 -0.502960
O6    O     O_R   0.679380 0.625640 0.327080 -0.501778
O7    O     O_R   0.820620 0.125640 0.672920 -0.503164
O8    O     O_R   0.179380 0.125640 0.327080 -0.508955
O9    O     O_3   0.334280 0.834290 0.749180 -0.286631
O10   O     O_3   0.665720 0.834290 0.250820 -0.271085
O11   O     O_3   0.834280 0.334290 0.749180 -0.270885
O12   O     O_R   0.785730 0.709000 0.172530 -0.531834
O13   O     O_3   0.165720 0.334290 0.250820 -0.268087
O14   O     O_R   0.236160 0.958490 0.823130 -0.519133
O15   O     O_R   0.763840 0.958490 0.176870 -0.516159
O16   O     O_R   0.736160 0.458490 0.823130 -0.516577
O17   O     O_R   0.263840 0.458490 0.176870 -0.514323
O18   O     O_R   0.332080 0.075470 0.831280 -0.536941
O19   O     O_R   0.667920 0.075470 0.168720 -0.544275
O20   O     O_R   0.832080 0.575470 0.831280 -0.545298
O21   O     O_R   0.167920 0.575470 0.168720 -0.544509
O22   O     O_R   0.446300 0.918110 0.826620 -0.515125
O23   O     O_R   0.714270 0.209000 0.827470 -0.531689
O24   O     O_R   0.553700 0.918110 0.173380 -0.522846
O25   O     O_R   0.946300 0.418110 0.826620 -0.519368
O26   O     O_R   0.053700 0.418110 0.173380 -0.519006
O27   O     O_R   0.457110 0.716200 0.831760 -0.530808
O28   O     O_R   0.542890 0.716200 0.168240 -0.531451
O29   O     O_R   0.957110 0.216200 0.831760 -0.526811
O30   O     O_R   0.042890 0.216200 0.168240 -0.531559
O31   O     O_R   0.320980 0.624310 0.823030 -0.518586
O32   O     O_R   0.679020 0.624310 0.176970 -0.518649
O33   O     O_R   0.820980 0.124310 0.823030 -0.517576
O34   O     O_R   0.285730 0.209000 0.172530 -0.535181
O35   O     O_R   0.179020 0.124310 0.176970 -0.521315
O36   O     O_R   0.213890 0.710430 0.665540 -0.522765
O37   O     O_R   0.786110 0.710430 0.334460 -0.528495
O38   O     O_R   0.713890 0.210430 0.665540 -0.528559
O39   O     O_R   0.286110 0.210430 0.334460 -0.522981
O40   O     O_R   0.235810 0.959820 0.673020 -0.503027
O41   O     O_R   0.764190 0.959820 0.326980 -0.503901
O42   O     O_R   0.735810 0.459820 0.673020 -0.504206
O43   O     O_R   0.264190 0.459820 0.326980 -0.502909
O44   O     O_R   0.331700 0.076900 0.669350 -0.524492
O45   O     O_R   0.445950 0.919440 0.676520 -0.500801
O46   O     O_R   0.668300 0.076900 0.330650 -0.524030
O47   O     O_R   0.831700 0.576900 0.669350 -0.522742
O48   O     O_R   0.168300 0.576900 0.330650 -0.518885
O49   O     O_3   0.358668 0.826523 0.029597 -0.568376
O50   O     O_3   0.642007 0.808481 0.972418 -0.560504
O51   O     O_3   0.860897 0.309664 0.024084 -0.561815
O52   O     O_3   0.146547 0.332185 0.978999 -0.565910
O53   O     O_R   0.554050 0.919440 0.323480 -0.501439
O54   O     O_R   0.945950 0.419440 0.676520 -0.497536
O55   O     O_R   0.054050 0.419440 0.323480 -0.495218
O56   O     O_R   0.456730 0.717630 0.669840 -0.522681

loop_
_geom_bond_atom_site_label_1
_geom_bond_atom_site_label_2
_ccdc_geom_bond_type
C12   H20   S    
C58   C62   A    
C104  O51   S    
C99   C103  S    
C14   H22   S    
Cr3   O3    S    
C76   C105  S    
C53   C58   A    
C55   C59   A    
C43   O17   A    
C80   O1    A    
C57   C79   A    
Cr7   O34   S    
Cr1   O9    S    
Cr11  O13   S    
C61   H67   S    
C49   C106  S    
Cr10  O54   S    
C80   O31   A    
C76   H16   S    
C8    H55   S    
C92   O4    A    
C31   C80   S    
C48   H43   S    
C45   C46   A    
C3    C105  S    
Cr12  O27   S    
C15   C19   A    
C6    O50   S    
C75   C93   S    
C62   C67   A    
C98   H18   S    
C2    H19   S    
C65   C102  S    
Cr1   O14   S    
C87   H17   S    
C13   C35   A    
C37   C40   A    
C8    O51   S    
Cr12  O31   S    
Cr12  O56   S    
C38   C39   A    
C55   C77   A    
C92   O55   A    
C31   C98   A    
C67   C71   A    
Cr2   O10   S    
C20   C25   A    
C69   H3    S    
C37   H37   S    
C54   H14   S    
C7    H54   S    
C7    H53   S    
C77   C94   S    
C100  C104  S    
C56   C78   A    
C5    H49   S    
C25   H29   S    
Cr3   O33   S    
C5    H48   S    
C89   O45   A    
C58   H45   S    
C14   C18   A    
Cr1   O36   S    
Cr4   O8    S    
Cr8   O22   S    
C94   O37   A    
Cr3   O11   S    
C56   H23   S    
C3    C100  S    
Cr5   O12   S    
C74   H8    S    
C6    C7    S    
C12   C16   A    
Cr1   O1    S    
C8    C9    S    
C46   H41   S    
C90   O2    A    
Cr8   O45   S    
C70   C74   A    
C47   C48   A    
C60   H66   S    
C41   C46   A    
C4    H44   S    
C69   C73   A    
C13   H21   S    
C32   O20   A    
Cr2   O32   S    
Cr10  O25   S    
Cr7   O43   S    
C97   C102  S    
C9    H59   S    
C68   C72   A    
C83   O35   A    
C51   O25   A    
C101  C108  S    
Cr5   O15   S    
C50   O24   A    
C1    C22   S    
C76   C108  S    
Cr2   O6    S    
C94   O6    A    
C7    H52   S    
Cr8   O44   S    
C25   C29   A    
C47   H42   S    
C36   C41   A    
C53   C75   A    
C45   H40   S    
Cr4   O13   S    
C81   O12   A    
C84   O44   A    
C1    O14   A    
C61   C66   A    
C54   C65   S    
C97   C99   S    
Cr1   O40   S    
C38   C44   A    
C14   C98   A    
C39   C42   A    
C6    H51   S    
C101  C105  S    
C40   C45   A    
C88   O48   A    
Cr10  O11   S    
C100  H11   S    
Cr11  O21   S    
C54   C106  S    
C3    C87   S    
C85   O46   A    
C86   O42   A    
C96   O39   A    
Cr9   O53   S    
C54   C103  S    
C26   H30   S    
C11   H63   S    
C38   H38   S    
C59   H56   S    
C24   H28   S    
C68   H2    S    
C82   O33   A    
C35   C83   S    
Cr2   O28   S    
C51   C108  S    
C73   H7    S    
C73   C78   A    
C62   C88   S    
C29   C34   A    
Cr2   O2    S    
C51   O29   A    
C56   C60   A    
C72   H6    S    
C16   H25   S    
C66   C84   S    
Cr11  O55   S    
Cr6   O23   S    
C49   O22   A    
C4    O49   S    
Cr10  O20   S    
Cr7   O39   S    
C72   C77   A    
C2    C15   A    
C32   O16   A    
Cr6   O38   S    
Cr5   O37   S    
C18   C23   A    
C55   H12   S    
C91   O54   A    
C50   O28   A    
C78   C95   S    
C16   C20   A    
C86   O47   A    
C19   C32   S    
C52   O26   A    
Cr12  O9    S    
C89   O56   A    
C85   O41   A    
C64   C69   A    
Cr5   O41   S    
C1    O18   A    
C44   C91   S    
C76   C87   S    
C65   H15   S    
C9    H60   S    
Cr4   O4    S    
C30   C35   A    
C2    C33   A    
C30   H35   S    
C28   C33   A    
C28   H32   S    
C23   C27   A    
Cr6   O11   S    
Cr7   O17   S    
C27   C31   A    
C8    H57   S    
C50   C107  S    
C10   H62   S    
Cr4   O35   S    
Cr6   O16   S    
C12   C34   A    
C21   O15   A    
C83   O34   A    
C64   C85   S    
C104  C108  S    
C67   H68   S    
C36   H36   S    
C29   H33   S    
C82   O23   A    
C6    H50   S    
Cr5   O10   S    
C99   C106  S    
C63   C68   A    
C36   C37   A    
C102  O49   S    
C95   O7    A    
C99   H10   S    
C39   H39   S    
C41   C89   S    
C11   H65   S    
C52   O30   A    
Cr9   O24   S    
C93   O5    A    
C11   H64   S    
C24   C28   A    
Cr12  O5    S    
C27   H31   S    
C4    C5    S    
Cr9   O19   S    
Cr6   O42   S    
C3    C52   S    
C57   C61   A    
C10   O52   S    
C101  H13   S    
Cr3   O29   S    
C57   H34   S    
C49   O27   A    
C59   C63   A    
C17   C22   A    
C13   C17   A    
C60   C64   A    
C21   O19   A    
C19   C24   A    
C95   O38   A    
C97   H9    S    
C79   C96   S    
C63   C86   S    
C53   H1    S    
C18   C43   S    
C23   H27   S    
C71   C75   A    
Cr8   O9    S    
C81   O32   A    
C66   C70   A    
C91   O3    A    
Cr9   O46   S    
C103  O50   S    
Cr7   O13   S    
C100  C101  S    
C74   C79   A    
C105  O52   S    
C4    H46   S    
C102  C106  S    
C93   O36   A    
C42   C92   S    
C42   C47   A    
C5    H47   S    
C43   O21   A    
C10   C11   S    
C9    H58   S    
C17   H26   S    
C87   C104  S    
C97   C107  S    
C70   H4    S    
Cr11  O48   S    
C96   O8    A    
C88   O43   A    
C20   C21   S    
Cr11  O26   S    
C15   H24   S    
C22   C26   A    
C90   O53   A    
C10   H61   S    
Cr4   O30   S    
C71   H5    S    
C103  C107  S    
C34   C82   S    
C40   C90   S    
Cr10  O47   S    
C33   C81   S    
C65   C107  S    
Cr8   O18   S    
Cr9   O10   S    
C44   C48   A    
Cr3   O7    S    
C26   C30   A    
C84   O40   A    
