data_mof_unit_31108.cif
_audit_creation_date              2012-12-11T15:55:38-0500
_audit_creation_method            fapswitch 2.2
_symmetry_space_group_name_H-M    P1
_symmetry_Int_Tables_number       1
_space_group_crystal_system       triclinic
_cell_length_a                    11.028329
_cell_length_b                    11.037963
_cell_length_c                    18.757403
_cell_angle_alpha                 90.585319
_cell_angle_beta                  90.961218
_cell_angle_gamma                 59.316104
_cell_volume                      1963.38618683

loop_
_atom_site_label
_atom_site_type_symbol
_atom_type_description
_atom_site_fract_x
_atom_site_fract_y
_atom_site_fract_z
_atom_type_partial_charge
C1    C     C_R   0.360830 0.763644 0.394977 0.536707
C2    C     C_R   0.640455 0.119780 0.169785 0.028467
C3    C     C_R   0.372406 0.331468 0.159189 0.004160
C4    C     C_R   0.484735 0.242852 0.272989 -0.154200
C5    C     C_R   0.495433 0.232049 0.198767 -0.021502
C6    C     C_R   0.052809 0.635144 0.351819 -0.090481
C7    C     C_R   0.913890 0.708895 0.375091 -0.117053
C8    C     C_R   0.667507 0.005108 0.123657 -0.081159
C9    C     C_R   0.803872 0.901326 0.105097 -0.140278
C10   C     C_R   0.261060 0.446190 0.194368 -0.163845
C11   C     C_R   0.244732 0.448287 0.268359 -0.041743
C12   C     C_R   0.384613 0.355075 0.386873 0.533947
C13   C     C_R   0.810192 0.699187 0.337280 -0.076961
C14   C     C_R   0.843718 0.623299 0.274033 -0.096133
C15   C     C_R   0.984214 0.541675 0.253600 -0.103365
C16   C     C_R   0.094389 0.539615 0.294175 0.007206
C17   C     C_R   0.363249 0.345577 0.309199 -0.000261
C18   C     C_R   0.849061 0.342319 0.180182 0.016955
C19   C     C_R   0.938511 0.275764 0.237593 -0.001039
C20   C     C_R   0.894092 0.298601 0.305300 0.038128
C21   C     C_R   0.657143 0.452354 0.265385 -0.190031
C22   C     C_R   0.704251 0.431001 0.194046 -0.171811
C23   C     C_R   0.711666 0.416351 0.395203 0.560514
C24   C     C_3   0.089469 0.190327 0.258579 -0.293393
C25   C     C_3   0.038649 0.215879 0.336213 -0.267911
C26   C     C_R   0.754681 0.388630 0.322236 0.021674
C27   C     C_R   0.368184 0.820661 0.171815 0.006742
C28   C     C_R   0.448774 0.851223 0.219577 -0.005732
C29   C     C_R   0.440485 0.838467 0.292656 0.007841
C30   C     C_R   0.296250 0.737537 0.271891 -0.173073
C31   C     C_R   0.306690 0.746921 0.198689 -0.164956
C32   C     C_3   0.452913 0.982175 0.231667 -0.273242
C33   C     C_3   0.434121 0.972656 0.310238 -0.284582
C34   C     C_R   0.344108 0.768758 0.604306 0.547596
C35   C     C_R   0.356336 0.791785 0.319690 0.012130
C36   C     C_R   0.310829 0.335371 0.817025 0.016381
C37   C     C_R   0.444414 0.282223 0.788426 -0.001771
C38   C     C_R   0.459752 0.284115 0.716448 0.031730
C39   C     C_R   0.208301 0.408421 0.698048 -0.172120
C40   C     C_R   0.191714 0.408692 0.771936 -0.169815
C41   C     C_3   0.579836 0.144084 0.796483 -0.275367
C42   C     C_3   0.594705 0.145857 0.716489 -0.265659
C43   C     C_R   0.344148 0.337553 0.669726 0.027837
C44   C     C_R   0.914896 0.290832 0.821701 0.011469
C45   C     C_R   0.371256 0.350443 0.596218 0.548463
C46   C     C_R   0.866629 0.420433 0.789289 0.034317
C47   C     C_R   0.837086 0.439929 0.718562 -0.014664
C48   C     C_R   0.906234 0.196007 0.704975 -0.170014
C49   C     C_R   0.945198 0.174882 0.777883 -0.177601
C50   C     C_3   0.753202 0.567977 0.807798 0.024647
C51   C     C_3   0.721381 0.590034 0.728530 -0.207765
C52   C     C_R   0.842029 0.332779 0.676557 0.012616
C53   C     C_R   0.311987 0.839045 0.826540 0.036220
C54   C     C_R   0.256243 0.764739 0.793435 0.000464
C55   C     C_R   0.258428 0.753956 0.720595 0.039375
C56   C     C_R   0.768641 0.374639 0.608556 0.549108
C57   C     C_R   0.395301 0.866523 0.711228 -0.179874
C58   C     C_R   0.391539 0.880181 0.784977 -0.124596
C59   C     C_3   0.119311 0.768738 0.798706 -0.284672
C60   C     C_3   0.116538 0.767428 0.717563 -0.261070
C61   C     C_R   0.321003 0.810353 0.678012 0.016040
C62   C     C_R   0.907288 0.317763 0.110156 0.554299
C63   C     C_R   0.332796 0.295432 0.090573 0.541792
C64   C     C_R   0.309993 0.896953 0.104883 0.538620
C65   C     C_R   0.946885 0.281117 0.897412 0.566027
C66   C     C_R   0.295633 0.290322 0.886343 0.544817
C67   C     C_R   0.919115 0.900809 0.135813 -0.072825
C68   C     C_R   0.275911 0.894641 0.898049 0.535788
C69   C     C_R   0.897942 0.002742 0.186067 -0.073580
C70   C     C_R   0.761217 0.109952 0.202583 -0.105853
Cr1   Cr    Cr6+3 0.601740 0.606840 0.505840 0.998351
Cr2   Cr    Cr6+3 0.291500 0.601560 0.495070 0.985235
Cr3   Cr    Cr6+3 0.606780 0.291630 0.499130 1.001442
Cr4   Cr    Cr6+3 0.062440 0.063060 0.008240 1.009258
Cr5   Cr    Cr6+3 0.062950 0.375000 0.998920 0.984195
Cr6   Cr    Cr6+3 0.374550 0.061770 0.992470 0.982157
H1    H     H_    0.575243 0.165269 0.303288 0.144016
H2    H     H_    0.704128 0.751781 0.356550 0.132197
H3    H     H_    0.760921 0.626322 0.241365 0.134375
H4    H     H_    0.006428 0.480355 0.205347 0.142111
H5    H     H_    0.546653 0.517196 0.276224 0.130231
H6    H     H_    0.629268 0.482668 0.150815 0.126903
H7    H     H_    0.148950 0.242892 0.245079 0.138195
H8    H     H_    0.138122 0.078993 0.241225 0.148565
H9    H     H_    0.056907 0.119113 0.363708 0.143794
H10   H     H_    0.069547 0.282872 0.366901 0.158710
H11   H     H_    0.241292 0.687831 0.290726 0.141514
H12   H     H_    0.820113 0.815794 0.070099 0.099550
H13   H     H_    0.252869 0.710742 0.163639 0.124095
H14   H     H_    0.366467 0.075615 0.204330 0.154712
H15   H     H_    0.561026 0.958837 0.224289 0.145149
H16   H     H_    0.523443 0.961277 0.343312 0.132596
H17   H     H_    0.330357 0.054524 0.330507 0.143558
H18   H     H_    0.116248 0.460556 0.663394 0.121813
H19   H     H_    0.086612 0.457053 0.793065 0.128169
H20   H     H_    0.566930 0.055491 0.813615 0.153918
H21   H     H_    0.661547 0.154816 0.826609 0.136703
H22   H     H_    0.684913 0.156400 0.700415 0.153381
H23   H     H_    0.886165 0.776599 0.421500 0.097551
H24   H     H_    0.585245 0.061901 0.688217 0.133600
H25   H     H_    0.919372 0.109096 0.672228 0.115817
H26   H     H_    0.993145 0.071493 0.800413 0.131558
H27   H     H_    0.795787 0.633096 0.829739 0.117974
H28   H     H_    0.617028 0.606959 0.711840 0.174528
H29   H     H_    0.748209 0.665465 0.705156 0.105080
H30   H     H_    0.454945 0.900416 0.680449 0.117426
H31   H     H_    0.443333 0.932078 0.808426 0.145645
H32   H     H_    0.032258 0.865128 0.822819 0.144525
H33   H     H_    0.024170 0.817180 0.123134 0.115405
H34   H     H_    0.134168 0.670247 0.822393 0.141315
H35   H     H_    0.119415 0.674025 0.694115 0.156456
H36   H     H_    0.034394 0.868850 0.694056 0.126002
H37   H     H_    0.987599 0.996575 0.213605 0.125095
H38   H     H_    0.749595 0.180911 0.244882 0.127330
H39   H     H_    0.121567 0.662220 0.377488 0.183172
H40   H     H_    0.589534 0.978911 0.108429 0.170403
H41   H     H_    0.174038 0.525685 0.162679 0.122329
O1    O     O_R   0.748670 0.497520 0.427970 -0.508648
O2    O     O_R   0.300170 0.471020 0.567120 -0.501420
O3    O     O_R   0.491630 0.259030 0.574940 -0.519075
O4    O     O_R   0.718640 0.304340 0.577850 -0.503934
O5    O     O_3   0.500010 0.500010 0.500020 -0.268498
O6    O     O_R   0.186620 0.923750 0.087000 -0.526245
O7    O     O_R   0.957350 0.194160 0.084660 -0.481581
O8    O     O_R   0.935120 0.407280 0.085350 -0.532499
O9    O     O_R   0.203800 0.365060 0.067090 -0.507791
O10   O     O_R   0.417470 0.174910 0.067830 -0.535589
O11   O     O_R   0.375160 0.946380 0.070880 -0.514083
O12   O     O_R   0.476470 0.723930 0.429450 -0.515171
O13   O     O_R   0.160500 0.919670 0.926690 -0.531714
O14   O     O_R   0.933140 0.190380 0.936050 -0.508030
O15   O     O_R   0.909010 0.403210 0.925030 -0.526722
O16   O     O_R   0.179590 0.361290 0.918480 -0.526931
O17   O     O_R   0.391360 0.170840 0.907510 -0.527024
O18   O     O_R   0.350950 0.942600 0.922260 -0.516217
O19   O     O_3   0.166650 0.166610 0.999880 -0.264741
O20   O     O_R   0.264730 0.744140 0.416740 -0.554845
O21   O     O_R   0.309440 0.472410 0.418220 -0.523281
O22   O     O_R   0.501630 0.260530 0.414310 -0.533825
O23   O     O_R   0.727920 0.305730 0.428950 -0.504768
O24   O     O_R   0.738670 0.496020 0.588600 -0.519765
O25   O     O_R   0.467190 0.722540 0.578350 -0.508309
O26   O     O_R   0.254720 0.742640 0.577370 -0.516880
N1    N     N_2   0.636321 0.580469 0.849456 -0.504135
H42   H     H_    0.639557 0.604916 0.902380 0.270248
C71   C     C_3   0.584681 0.484104 0.838226 -0.269243
H43   H     H_    0.478308 0.530031 0.861500 0.139731
H44   H     H_    0.653890 0.383029 0.865940 0.158099
H45   H     H_    0.576720 0.464385 0.780763 0.154700

loop_
_geom_bond_atom_site_label_1
_geom_bond_atom_site_label_2
_ccdc_geom_bond_type
C44   C49   A    
Cr2   O26   S    
Cr4   O7    S    
C21   C26   A    
C41   C42   S    
C54   C55   A    
Cr1   O5    S    
C19   C20   A    
C23   O1    A    
C62   O7    A    
Cr6   O19   S    
C53   C54   A    
C70   H38   S    
C69   H37   S    
C7    H23   S    
C30   C35   A    
C22   H6    S    
C21   C22   A    
C36   C37   A    
C24   H7    S    
C38   C42   S    
C1    O12   A    
C42   H22   S    
C9    H12   S    
C30   C31   A    
C36   C66   S    
C32   H15   S    
C20   C25   S    
C15   C16   A    
C66   O16   A    
C29   C33   S    
C59   H34   S    
C18   C19   A    
C23   C26   S    
C4    H1    S    
C53   C68   S    
C36   C40   A    
C7    C13   A    
C66   O17   A    
C67   H33   S    
C32   H14   S    
C44   C46   A    
C8    C9    A    
C31   H13   S    
Cr4   O19   S    
C12   C17   S    
Cr1   O24   S    
C45   O2    A    
Cr2   O21   S    
C57   H30   S    
C59   C60   S    
Cr3   O3    S    
C13   C14   A    
C44   C65   S    
C65   O14   A    
Cr6   O18   S    
C50   N1    S    
C71   H44   S    
C54   C59   S    
Cr4   O14   S    
C34   O26   A    
C27   C31   A    
C23   O23   A    
C28   C32   S    
C24   C25   S    
N1    C71   S    
C10   C11   A    
C33   H16   S    
C49   H26   S    
Cr6   O17   S    
Cr5   O19   S    
N1    H42   S    
C39   C43   A    
Cr3   O22   S    
C64   O11   A    
C51   H28   S    
C34   C61   S    
C33   H17   S    
Cr5   O8    S    
C9    C67   A    
C39   H18   S    
C37   C38   A    
C60   H36   S    
C42   H24   S    
Cr1   O12   S    
C71   H45   S    
C34   O25   A    
C11   C16   S    
C15   H4    S    
C48   C52   A    
C51   H29   S    
C25   H9    S    
C50   C51   S    
C12   O22   A    
C14   H3    S    
C68   O13   A    
C43   C45   S    
C47   C52   A    
Cr1   O25   S    
C56   O24   A    
C45   O3    A    
Cr2   O20   S    
C41   H20   S    
C21   H5    S    
Cr3   O4    S    
Cr4   O13   S    
Cr6   O11   S    
C41   H21   S    
C2    C5    S    
C4    C17   A    
C40   H19   S    
C58   H31   S    
C65   O15   A    
C1    O20   A    
Cr5   O15   S    
C1    C35   S    
C71   H43   S    
C46   C50   S    
C46   C47   A    
C28   C29   A    
Cr1   O1    S    
Cr2   O5    S    
C18   C22   A    
C68   O18   A    
C2    C8    A    
C4    C5    A    
C3    C5    A    
C11   C17   A    
C62   O8    A    
C47   C51   S    
C53   C58   A    
Cr5   O16   S    
C57   C61   A    
C6    C7    A    
Cr3   O23   S    
C3    C63   S    
C64   O6    A    
C29   C35   A    
C8    H40   S    
C59   H32   S    
C10   H41   S    
Cr5   O9    S    
C32   C33   S    
C19   C24   S    
C24   H8    S    
C38   C43   A    
C60   H35   S    
C2    C70   A    
C56   O4    A    
C57   C58   A    
C20   C26   A    
C48   C49   A    
C48   H25   S    
C55   C61   A    
Cr2   O2    S    
C25   H10   S    
Cr4   O6    S    
C12   O21   A    
C37   C41   S    
C69   C70   A    
C6    H39   S    
C63   O9    A    
C27   C64   S    
C13   H2    S    
C6    C16   A    
C39   C40   A    
C50   H27   S    
Cr3   O5    S    
C27   C28   A    
C3    C10   A    
Cr6   O10   S    
C14   C15   A    
C18   C62   S    
C67   C69   A    
C30   H11   S    
C55   C60   S    
C63   O10   A    
C52   C56   S    
