data_mof_unit_7778.cif
_audit_creation_date              2012-12-11T14:42:05-0500
_audit_creation_method            fapswitch 2.2
_symmetry_space_group_name_H-M    P1
_symmetry_Int_Tables_number       1
_space_group_crystal_system       triclinic
_cell_length_a                    18.841976
_cell_length_b                    10.965897
_cell_length_c                    18.665016
_cell_angle_alpha                 89.855225
_cell_angle_beta                  90.626313
_cell_angle_gamma                 90.049791
_cell_volume                      3856.30599191

loop_
_atom_site_label
_atom_site_type_symbol
_atom_type_description
_atom_site_fract_x
_atom_site_fract_y
_atom_site_fract_z
_atom_type_partial_charge
C1    C     C_R   0.728317 0.952881 0.852831 0.542245
C2    C     C_R   0.271693 0.953067 0.147144 0.542564
C3    C     C_R   0.228317 0.452881 0.852831 0.542244
C4    C     C_R   0.771693 0.453068 0.147143 0.542563
C5    C     C_R   0.688346 0.442529 0.042541 -0.146386
C6    C     C_R   0.311759 0.442372 0.957264 -0.146868
C7    C     C_R   0.188352 0.942551 0.042536 -0.146381
C8    C     C_R   0.811755 0.942383 0.957267 -0.146861
C9    C     C_R   0.747181 0.396431 0.080443 0.030588
C10   C     C_R   0.252908 0.396042 0.919529 0.030296
C11   C     C_R   0.247178 0.896431 0.080444 0.030585
C12   C     C_R   0.752909 0.896043 0.919529 0.030294
C13   C     C_R   0.789926 0.307142 0.048880 -0.124521
C14   C     C_R   0.210246 0.306499 0.951282 -0.124951
C15   C     C_R   0.289913 0.807121 0.048886 -0.124519
C16   C     C_R   0.710252 0.806489 0.951279 -0.124950
C17   C     C_R   0.779860 0.276550 0.977729 -0.129798
C18   C     C_R   0.220372 0.275917 0.022496 -0.129693
C19   C     C_R   0.279848 0.776530 0.977734 -0.129800
C20   C     C_R   0.720379 0.775904 0.022494 -0.129693
C21   C     C_R   0.726504 0.333387 0.937090 0.026217
C22   C     C_R   0.273707 0.333011 0.062956 0.026421
C23   C     C_R   0.226503 0.833390 0.937090 0.026216
C24   C     C_R   0.773709 0.833009 0.062956 0.026419
C25   C     C_R   0.459595 0.276912 0.550369 -0.128949
C26   C     C_R   0.441392 0.279089 0.478877 -0.131426
C27   C     C_R   0.959595 0.776912 0.550369 -0.128948
C28   C     C_R   0.941392 0.779089 0.478877 -0.131426
C29   C     C_R   0.443575 0.171944 0.438904 0.026169
C30   C     C_R   0.483895 0.168153 0.581683 0.032129
C31   C     C_R   0.943574 0.671944 0.438904 0.026169
C32   C     C_R   0.983895 0.668153 0.581683 0.032129
C33   C     C_R   0.456932 0.059640 0.472868 -0.128525
C34   C     C_R   0.478115 0.057945 0.544315 -0.130513
C35   C     C_R   0.956932 0.559640 0.472868 -0.128525
C36   C     C_R   0.978114 0.557946 0.544315 -0.130513
C37   C     C_R   0.785544 0.287236 0.524193 -0.132883
C38   C     C_R   0.205504 0.318393 0.470333 -0.126917
C39   C     C_R   0.285543 0.787235 0.524193 -0.132883
C40   C     C_R   0.705508 0.818384 0.470335 -0.126916
C41   C     C_R   0.793921 0.314487 0.452795 -0.131977
C42   C     C_R   0.204179 0.327743 0.543608 -0.128480
C43   C     C_R   0.293920 0.814486 0.452795 -0.131977
C44   C     C_R   0.704183 0.827737 0.543610 -0.128479
C45   C     C_R   0.529656 0.177444 0.850679 0.547064
C46   C     C_R   0.470328 0.177692 0.149314 0.557219
C47   C     C_R   0.029656 0.677443 0.850679 0.547065
C48   C     C_R   0.970328 0.677692 0.149314 0.557219
C49   C     C_R   0.748208 0.397853 0.418796 0.033096
C50   C     C_R   0.249211 0.410264 0.578363 0.035058
C51   C     C_R   0.248207 0.897853 0.418796 0.033095
C52   C     C_R   0.749212 0.910262 0.578364 0.035058
C53   C     C_R   0.688854 0.442279 0.455128 -0.133607
C54   C     C_R   0.300953 0.473475 0.539635 -0.142285
C55   C     C_R   0.188855 0.942281 0.455129 -0.133606
C56   C     C_R   0.800953 0.973476 0.539636 -0.142284
C57   C     C_R   0.678825 0.410503 0.526679 -0.130963
C58   C     C_R   0.301750 0.465500 0.465374 -0.148772
C59   C     C_R   0.178826 0.910505 0.526680 -0.130963
C60   C     C_R   0.801750 0.965499 0.465375 -0.148773
C61   C     C_R   0.729337 0.337255 0.562328 0.029221
C62   C     C_R   0.253528 0.388472 0.430378 0.034637
C63   C     C_R   0.229337 0.837256 0.562328 0.029220
C64   C     C_R   0.753529 0.888468 0.430379 0.034636
C65   C     C_R   0.723480 0.310806 0.859961 0.570674
C66   C     C_R   0.276597 0.310685 0.140135 0.570422
C67   C     C_R   0.223480 0.810806 0.859961 0.570673
C68   C     C_R   0.776597 0.810684 0.140135 0.570422
C69   C     C_R   0.729009 0.952719 0.648621 0.545658
C70   C     C_R   0.271172 0.952286 0.351595 0.542375
C71   C     C_R   0.229009 0.452719 0.648621 0.545657
C72   C     C_R   0.771172 0.452286 0.351595 0.542375
C73   C     C_R   0.526849 0.176283 0.646362 0.544671
C74   C     C_R   0.434318 0.180494 0.361920 0.571565
C75   C     C_R   0.026849 0.676283 0.646362 0.544670
C76   C     C_R   0.934318 0.680494 0.361920 0.571564
C77   C     C_R   0.724932 0.311275 0.638814 0.571666
C78   C     C_R   0.261294 0.358886 0.355275 0.553018
C79   C     C_R   0.224932 0.811275 0.638814 0.571666
C80   C     C_R   0.761294 0.858885 0.355275 0.553019
C81   C     C_2   0.496921 0.167595 0.920845 -0.107333
C82   C     C_2   0.503165 0.168314 0.079188 -0.108371
C83   C     C_2   0.996920 0.667594 0.920845 -0.107332
C84   C     C_2   0.003165 0.668313 0.079188 -0.108370
C85   C     C_2   0.492459 0.068885 0.038560 -0.157013
C86   C     C_2   0.508567 0.068824 0.962015 -0.156149
C87   C     C_2   0.992458 0.568885 0.038560 -0.157016
C88   C     C_2   0.008567 0.568824 0.962015 -0.156152
C89   C     C_R   0.677979 0.411128 0.970834 -0.138391
C90   C     C_R   0.322195 0.410947 0.029022 -0.139157
C91   C     C_R   0.177988 0.911154 0.970828 -0.138384
C92   C     C_R   0.822192 0.910957 0.029024 -0.139150
Cr1   Cr    Cr6+3 0.769270 0.163730 0.750710 1.003873
Cr2   Cr    Cr6+3 0.230730 0.163730 0.249290 1.006185
Cr3   Cr    Cr6+3 0.269270 0.663730 0.750710 1.003875
Cr4   Cr    Cr6+3 0.730730 0.663730 0.249290 1.006186
Cr5   Cr    Cr6+3 0.612620 0.009790 0.748780 1.009849
Cr6   Cr    Cr6+3 0.387380 0.009790 0.251220 1.009913
Cr7   Cr    Cr6+3 0.112620 0.509790 0.748780 1.009847
Cr8   Cr    Cr6+3 0.887380 0.509790 0.251220 1.009911
Cr9   Cr    Cr6+3 0.614160 0.322500 0.747710 1.010168
Cr10  Cr    Cr6+3 0.385840 0.322500 0.252290 1.007926
Cr11  Cr    Cr6+3 0.114160 0.822500 0.747710 1.010168
Cr12  Cr    Cr6+3 0.885840 0.822500 0.252290 1.007927
H1    H     H_    0.470072 0.986066 0.061048 0.158020
H2    H     H_    0.531710 0.986533 0.939972 0.158234
H3    H     H_    0.970071 0.486067 0.061047 0.158016
H4    H     H_    0.031710 0.486532 0.939972 0.158231
H5    H     H_    0.839796 0.277308 0.426040 0.128056
H6    H     H_    0.164716 0.275763 0.572487 0.131750
H7    H     H_    0.339794 0.777305 0.426040 0.128057
H8    H     H_    0.664721 0.775755 0.572489 0.131750
H9    H     H_    0.633801 0.447815 0.554744 0.131866
H10   H     H_    0.340583 0.517271 0.435596 0.111304
H11   H     H_    0.133803 0.947820 0.554745 0.131866
H12   H     H_    0.840582 0.017273 0.435596 0.111305
H13   H     H_    0.527424 0.249611 0.056680 0.108661
H14   H     H_    0.472025 0.248380 0.942947 0.108774
H15   H     H_    0.027424 0.749611 0.056680 0.108665
H16   H     H_    0.972025 0.748380 0.942947 0.108777
H17   H     H_    0.634415 0.452239 0.941188 0.131861
H18   H     H_    0.365714 0.452290 0.058563 0.131705
H19   H     H_    0.134434 0.952286 0.941179 0.131862
H20   H     H_    0.865706 0.952310 0.058567 0.131707
H21   H     H_    0.653000 0.507767 0.066870 0.116661
H22   H     H_    0.346999 0.507943 0.932787 0.116639
H23   H     H_    0.153013 0.007802 0.066862 0.116659
H24   H     H_    0.846991 0.007963 0.932792 0.116639
H25   H     H_    0.834447 0.266898 0.077511 0.133351
H26   H     H_    0.165712 0.266168 0.922770 0.133221
H27   H     H_    0.334425 0.766859 0.077522 0.133351
H28   H     H_    0.665721 0.766151 0.922765 0.133224
H29   H     H_    0.816331 0.213179 0.953488 0.123748
H30   H     H_    0.183897 0.212494 0.046947 0.124059
H31   H     H_    0.316309 0.713141 0.953497 0.123746
H32   H     H_    0.683909 0.712468 0.046943 0.124062
H33   H     H_    0.461355 0.362831 0.578881 0.130266
H34   H     H_    0.430495 0.366009 0.453755 0.129304
H35   H     H_    0.961355 0.862832 0.578881 0.130266
H36   H     H_    0.930495 0.866009 0.453755 0.129305
H37   H     H_    0.456143 0.974769 0.443321 0.136010
H38   H     H_    0.495059 0.972595 0.568286 0.130232
H39   H     H_    0.956143 0.474769 0.443321 0.136009
H40   H     H_    0.995059 0.472596 0.568286 0.130231
H41   H     H_    0.825345 0.231673 0.550378 0.121708
H42   H     H_    0.169265 0.254149 0.445362 0.133003
H43   H     H_    0.325343 0.731670 0.550377 0.121709
H44   H     H_    0.669271 0.754135 0.445364 0.133002
O1    O     O_R   0.784320 0.290430 0.830510 -0.506848
O2    O     O_R   0.215680 0.290430 0.169490 -0.509017
O3    O     O_R   0.284320 0.790430 0.830510 -0.506842
O4    O     O_R   0.715680 0.790430 0.169490 -0.509012
O5    O     O_R   0.554640 0.080370 0.673500 -0.499871
O6    O     O_R   0.445360 0.080370 0.326500 -0.498590
O7    O     O_R   0.054640 0.580370 0.673500 -0.499871
O8    O     O_R   0.945360 0.580370 0.326500 -0.498590
O9    O     O_R   0.543920 0.282180 0.666790 -0.535099
O10   O     O_R   0.456080 0.282180 0.333210 -0.514476
O11   O     O_R   0.043920 0.782180 0.666790 -0.535099
O12   O     O_R   0.956080 0.782180 0.333210 -0.514475
O13   O     O_R   0.679040 0.374160 0.674430 -0.493470
O14   O     O_R   0.320960 0.374160 0.325570 -0.518222
O15   O     O_R   0.179040 0.874160 0.674430 -0.493471
O16   O     O_R   0.820960 0.874160 0.325570 -0.518222
O17   O     O_3   0.665350 0.165340 0.749070 -0.284030
O18   O     O_3   0.334650 0.165340 0.250930 -0.290286
O19   O     O_3   0.165350 0.665340 0.749070 -0.284029
O20   O     O_3   0.834650 0.665340 0.250930 -0.290287
O21   O     O_R   0.762640 0.040960 0.825200 -0.523316
O22   O     O_R   0.237360 0.040960 0.174800 -0.520973
O23   O     O_R   0.262640 0.540960 0.825200 -0.523317
O24   O     O_R   0.737360 0.540960 0.174800 -0.520973
O25   O     O_R   0.667400 0.923970 0.829950 -0.521419
O26   O     O_R   0.332600 0.923970 0.170050 -0.522175
O27   O     O_R   0.167400 0.423970 0.829950 -0.521421
O28   O     O_R   0.832600 0.423970 0.170050 -0.522179
O29   O     O_R   0.553960 0.081340 0.821780 -0.493975
O30   O     O_R   0.446040 0.081340 0.178220 -0.489580
O31   O     O_R   0.053960 0.581340 0.821780 -0.493976
O32   O     O_R   0.946040 0.581340 0.178220 -0.489582
O33   O     O_R   0.543180 0.283240 0.826740 -0.526329
O34   O     O_R   0.456820 0.283240 0.173260 -0.521126
O35   O     O_R   0.043180 0.783240 0.826740 -0.526325
O36   O     O_R   0.956820 0.783240 0.173260 -0.521125
O37   O     O_R   0.678360 0.375140 0.822710 -0.493590
O38   O     O_R   0.321640 0.375140 0.177290 -0.498856
O39   O     O_R   0.178360 0.875140 0.822710 -0.493593
O40   O     O_R   0.821640 0.875140 0.177290 -0.498856
O41   O     O_R   0.785050 0.289380 0.670560 -0.511136
O42   O     O_R   0.214950 0.289380 0.329440 -0.517619
O43   O     O_R   0.285050 0.789380 0.670560 -0.511136
O44   O     O_R   0.714950 0.789380 0.329440 -0.517619
O45   O     O_R   0.763320 0.039990 0.676930 -0.523238
O46   O     O_R   0.236680 0.039990 0.323070 -0.505996
O47   O     O_R   0.263320 0.539990 0.676930 -0.523237
O48   O     O_R   0.736680 0.539990 0.323070 -0.505996
O49   O     O_R   0.668130 0.922920 0.670000 -0.517919
O50   O     O_R   0.331870 0.922920 0.330000 -0.533055
O51   O     O_R   0.168130 0.422920 0.670000 -0.517920
O52   O     O_R   0.831870 0.422920 0.330000 -0.533054
H45   H     H_    0.652630 0.506049 0.429658 0.122124
H46   H     H_    0.338480 0.532713 0.566519 0.112685
H47   H     H_    0.152632 0.006053 0.429659 0.122125
H48   H     H_    0.838479 0.032715 0.566519 0.112685

loop_
_geom_bond_atom_site_label_1
_geom_bond_atom_site_label_2
_ccdc_geom_bond_type
C58   C62   A    
C87   C88   S    
Cr6   O6    S    
Cr11  O19   S    
C55   C59   A    
C27   H35   S    
C64   C80   S    
C14   C18   A    
Cr1   O1    S    
C35   C36   A    
C28   H36   S    
C84   C87   D    
Cr11  O11   S    
Cr2   O18   S    
C32   C75   S    
C31   C76   S    
C45   O33   A    
C21   C89   A    
C85   C86   S    
C15   C19   A    
C78   O42   A    
Cr1   O21   S    
C50   C54   A    
C46   O30   A    
C37   C41   A    
Cr11  O35   S    
C32   C36   A    
C56   C60   A    
C66   O2    A    
C92   H20   S    
C54   C58   A    
Cr6   O26   S    
C85   H1    S    
Cr12  O20   S    
C19   H31   S    
Cr4   O4    S    
C73   O9    A    
C74   O6    A    
Cr7   O31   S    
C23   C67   S    
C57   C61   A    
C59   H11   S    
C9    C13   A    
C22   C66   S    
C47   O31   A    
C52   C69   S    
C46   C82   S    
C11   C15   A    
C8    H24   S    
C38   H42   S    
C12   C16   A    
C29   C33   A    
C61   C77   S    
C49   C72   S    
Cr7   O7    S    
Cr8   O28   S    
Cr4   O20   S    
C8    C92   A    
C51   C70   S    
Cr5   O5    S    
Cr6   O30   S    
C18   C22   A    
C51   C55   A    
C81   C86   D    
C2    O26   A    
C16   C20   A    
C71   O47   A    
C88   H4    S    
C70   O46   A    
C44   C52   A    
C83   C88   D    
Cr1   O17   S    
Cr10  O18   S    
C91   H19   S    
C69   O49   A    
C80   O44   A    
Cr10  O10   S    
C86   H2    S    
C1    C12   S    
C43   H7    S    
Cr12  O12   S    
Cr9   O37   S    
C2    C11   S    
C24   C92   A    
C41   C49   A    
C67   O39   A    
Cr7   O19   S    
C77   O13   A    
Cr12  O40   S    
C65   O37   A    
Cr5   O25   S    
Cr6   O50   S    
C67   O3    A    
Cr10  O34   S    
Cr5   O49   S    
Cr11  O39   S    
C6    H22   S    
C47   O35   A    
C10   C14   A    
C48   O36   A    
C30   C73   S    
C30   C34   A    
C19   C23   A    
C57   H9    S    
C29   C74   S    
C41   H5    S    
C33   H37   S    
C25   C26   A    
C54   H46   S    
C81   H14   S    
C76   O8    A    
C80   O16   A    
C25   H33   S    
C48   C84   S    
Cr3   O19   S    
C83   H16   S    
C7    C11   A    
C50   C71   S    
Cr2   O42   S    
C37   H41   S    
C5    C9    A    
C68   O4    A    
C72   O52   A    
C34   H38   S    
Cr5   O29   S    
Cr4   O48   S    
C8    C12   A    
C1    O25   A    
C69   O45   A    
C33   C34   A    
C22   C90   A    
C87   H3    S    
Cr10  O38   S    
C20   H32   S    
C74   O10   A    
Cr9   O17   S    
C68   O40   A    
Cr6   O18   S    
C42   C50   A    
C56   H48   S    
Cr8   O52   S    
C3    O27   A    
Cr12  O36   S    
C2    O22   A    
C78   O14   A    
C47   C83   S    
C66   O38   A    
C17   H29   S    
C23   C91   A    
C60   H12   S    
Cr3   O3    S    
Cr8   O8    S    
C73   O5    A    
Cr8   O32   S    
C44   H8    S    
C7    C91   A    
C48   O32   A    
Cr9   O33   S    
Cr10  O14   S    
C14   H26   S    
C75   O11   A    
C25   C30   A    
C76   O12   A    
C40   H44   S    
Cr3   O47   S    
Cr1   O41   S    
C4    O24   A    
C21   C65   S    
C27   C32   A    
Cr2   O46   S    
C59   C63   A    
C62   C78   S    
C28   C31   A    
Cr1   O45   S    
C55   H47   S    
C79   O15   A    
C26   H34   S    
C53   C57   A    
Cr4   O24   S    
C72   O48   A    
C37   C61   A    
C71   O51   A    
C63   C79   S    
Cr3   O43   S    
Cr2   O2    S    
C82   C85   D    
C39   C63   A    
C39   H43   S    
Cr11  O15   S    
C40   C64   A    
C60   C64   A    
C90   H18   S    
Cr8   O20   S    
C77   O41   A    
C46   O34   A    
Cr9   O13   S    
C42   H6    S    
C3    C10   S    
C6    C90   A    
Cr2   O22   S    
C45   O29   A    
C3    O23   A    
Cr12  O16   S    
Cr7   O27   S    
C89   H17   S    
C43   C51   A    
C84   H15   S    
Cr5   O17   S    
C31   C35   A    
C1    O21   A    
C5    H21   S    
C18   H30   S    
C45   C81   S    
C65   O1    A    
Cr4   O44   S    
C16   H28   S    
C53   H45   S    
C49   C53   A    
C6    C10   A    
C24   C68   S    
Cr9   O9    S    
C13   C17   A    
C38   C42   A    
C75   O7    A    
C40   C44   A    
C15   H27   S    
C39   C43   A    
C26   C29   A    
C70   O50   A    
C4    O28   A    
Cr7   O51   S    
C27   C28   A    
C58   H10   S    
C13   H25   S    
C79   O43   A    
C82   H13   S    
C7    H23   S    
C4    C9    S    
C36   H40   S    
Cr3   O23   S    
C20   C24   A    
C5    C89   A    
C52   C56   A    
C35   H39   S    
C38   C62   A    
C17   C21   A    
