data_mof_unit_8304.cif
_audit_creation_date              2012-12-10T19:01:19-0500
_audit_creation_method            fapswitch 2.2
_symmetry_space_group_name_H-M    P1
_symmetry_Int_Tables_number       1
_space_group_crystal_system       triclinic
_cell_length_a                    9.559881
_cell_length_b                    10.901524
_cell_length_c                    15.626623
_cell_angle_alpha                 91.323848
_cell_angle_beta                  73.526828
_cell_angle_gamma                 90.446655
_cell_volume                      1561.29756125

loop_
_atom_site_label
_atom_site_type_symbol
_atom_type_description
_atom_site_fract_x
_atom_site_fract_y
_atom_site_fract_z
_atom_type_partial_charge
C1    C     C_R   0.998377 0.262665 0.502690 0.817642
C2    C     C_R   0.666385 0.554150 0.902979 0.091148
C3    C     C_R   0.765729 0.593402 0.949903 0.008919
C4    C     C_R   0.515278 0.544041 0.948944 -0.100552
C5    C     C_R   0.473319 0.540786 0.043907 -0.115001
C6    C     C_R   0.584959 0.549222 0.087657 0.471238
C7    C     C_R   0.721946 0.595371 0.042530 -0.292478
C8    C     C_R   0.405221 0.535285 0.903671 0.480071
C9    C     C_R   0.263271 0.503136 0.950126 -0.292293
C10   C     C_R   0.221453 0.495709 0.042712 0.067869
C11   C     C_R   0.323764 0.521407 0.090869 0.075294
C12   C     C_R   0.917459 0.507438 0.671569 0.809789
C13   C     C_R   0.076176 0.467663 0.088028 -0.203947
C14   C     C_R   0.030289 0.467526 0.180982 -0.155454
C15   C     C_R   0.271687 0.530080 0.184508 -0.194547
C16   C     C_R   0.114589 0.064572 0.517656 -0.028392
C17   C     C_R   0.992573 0.130548 0.513146 -0.059696
C18   C     C_R   0.861157 0.064807 0.522953 -0.239624
C19   C     C_R   0.860794 0.935791 0.522264 -0.223196
C20   C     C_R   0.991844 0.870912 0.512003 -0.079481
C21   C     C_R   0.113860 0.939026 0.514006 -0.070205
C22   C     C_3   0.273511 0.931822 0.469018 0.271570
C23   C     C_R   0.998557 0.737662 0.502603 0.784541
C24   C     C_3   0.277757 0.072223 0.479976 0.263567
C25   C     C_R   0.609278 0.531865 0.425589 0.223005
C26   C     C_R   0.541006 0.457764 0.570596 -0.090348
C27   C     C_R   0.392408 0.457973 0.570663 -0.050406
C28   C     C_R   0.461788 0.531411 0.425395 0.159948
C29   C     C_3   0.480306 0.652828 0.382583 -0.472470
C30   C     C_3   0.639076 0.652300 0.381724 0.286455
C31   C     C_R   0.082506 0.500126 0.327976 0.804009
C32   C     C_R   0.870221 0.535202 0.767820 -0.181589
C33   C     C_R   0.127980 0.499434 0.229787 -0.081627
C34   C     C_R   0.911924 0.616408 0.904116 -0.288439
C35   C     C_R   0.963433 0.592316 0.812330 0.493493
C36   C     C_R   0.723528 0.516422 0.813633 -0.266626
Cu1   Cu    Cu3+1 0.140670 0.499980 0.500000 0.978731
Cu2   Cu    Cu3+1 0.859330 0.500020 0.500000 0.939041
H1    H     H_    0.801787 0.610622 0.078927 0.169090
H2    H     H_    0.998182 0.445806 0.051399 0.129586
H3    H     H_    0.760062 0.112238 0.527751 0.162250
H4    H     H_    0.759773 0.887753 0.525909 0.149013
H5    H     H_    0.332662 0.886500 0.511330 0.018047
H6    H     H_    0.330329 0.105074 0.531504 0.023853
H7    H     H_    0.568791 0.424379 0.628253 0.170915
H8    H     H_    0.310194 0.425097 0.628375 0.173830
H9    H     H_    0.462780 0.650806 0.315450 0.241335
H10   H     H_    0.339766 0.564837 0.223635 0.195152
H11   H     H_    0.417182 0.720705 0.430513 0.204964
H12   H     H_    0.668820 0.724106 0.425599 0.083968
H13   H     H_    0.918401 0.443593 0.214564 0.178427
H14   H     H_    0.183596 0.489468 0.913387 0.186135
H15   H     H_    0.986812 0.651188 0.939612 0.150340
H16   H     H_    0.656439 0.466664 0.779569 0.213850
N1    N     N_R   0.648210 0.500930 0.499430 -0.225360
N2    N     N_R   0.352300 0.500890 0.499430 -0.189692
O1    O     O_R   0.118810 0.319640 0.500000 -0.551779
O2    O     O_R   0.881230 0.319680 0.499990 -0.597505
O3    O     O_R   0.055580 0.499970 0.629840 -0.548658
O4    O     O_R   0.818000 0.500010 0.629830 -0.595162
O5    O     O_R   0.118770 0.680320 0.500010 -0.568153
O6    O     O_R   0.881190 0.680360 0.500000 -0.597568
O7    O     O_R   0.182000 0.499990 0.370170 -0.570723
O8    O     O_R   0.944420 0.500030 0.370160 -0.563599
O9    O     O_3   0.319134 0.888250 0.378025 -0.588817
C37   C     C_3   0.219735 0.905660 0.327243 -0.220611
H17   H     H_    0.160277 0.994174 0.341823 0.191755
H18   H     H_    0.142011 0.827793 0.336190 0.139577
H19   H     H_    0.282304 0.905488 0.255642 0.157871
O10   O     O_3   0.326189 0.134203 0.398449 -0.574139
C38   C     C_3   0.479019 0.116855 0.362235 0.103412
H20   H     H_    0.523122 0.034571 0.387043 0.139287
H21   H     H_    0.501465 0.101473 0.289400 0.176513
C39   C     C_3   0.562335 0.229529 0.380075 -0.372978
H22   H     H_    0.528171 0.309255 0.348288 0.232564
H23   H     H_    0.535370 0.247780 0.453103 0.218576
C40   C     C_3   0.726947 0.210947 0.343090 -0.938626
H24   H     H_    0.763296 0.134695 0.377243 0.256362
H25   H     H_    0.784590 0.296153 0.353485 0.290694
H26   H     H_    0.757758 0.188097 0.270715 0.235087
O11   O     O_3   0.734895 0.638772 0.294789 -0.537565
C41   C     C_3   0.787643 0.755173 0.263223 -0.303213
H27   H     H_    0.855237 0.796396 0.303919 0.145938
H28   H     H_    0.696692 0.817816 0.262235 0.167829
H29   H     H_    0.858801 0.744248 0.193850 0.177299
O12   O     O_3   0.106496 0.619593 0.767655 -0.559599
C42   C     C_3   0.111776 0.741308 0.738085 -0.303010
H30   H     H_    0.035920 0.755915 0.696728 0.147702
H31   H     H_    0.223521 0.760408 0.695283 0.172843
H32   H     H_    0.087682 0.807670 0.795543 0.141279
O13   O     O_3   0.570963 0.492134 0.167745 -0.615348
C43   C     C_3   0.637964 0.374900 0.150041 0.067350
H33   H     H_    0.677918 0.352679 0.207487 0.171143
H34   H     H_    0.736877 0.372240 0.091235 0.130713
C44   C     C_3   0.528787 0.276018 0.138959 -0.349120
H35   H     H_    0.444630 0.263511 0.203726 0.231715
H36   H     H_    0.472535 0.304413 0.089655 0.228875
C45   C     C_3   0.604996 0.154315 0.105380 -0.953076
H37   H     H_    0.676808 0.163720 0.036159 0.260682
H38   H     H_    0.522136 0.082391 0.105236 0.258416
H39   H     H_    0.672272 0.124899 0.148481 0.246405
O14   O     O_3   0.432120 0.559196 0.813943 -0.585655
C46   C     C_3   0.437260 0.687398 0.803230 -0.271933
H40   H     H_    0.529441 0.729711 0.823620 0.150170
H41   H     H_    0.332534 0.731274 0.841074 0.168584
H42   H     H_    0.455314 0.706267 0.731462 0.182532

loop_
_geom_bond_atom_site_label_1
_geom_bond_atom_site_label_2
_ccdc_geom_bond_type
C37   H18   S    
C42   H30   S    
C16   C21   A    
C44   H35   S    
C4    C8    A    
C26   N1    A    
C14   C33   A    
O11   C41   S    
C28   N2    A    
C44   C45   S    
C24   O10   S    
C29   H11   S    
C40   H24   S    
C25   C28   A    
C26   C27   A    
Cu1   Cu2   S    
C39   H23   S    
C29   H9    S    
C32   C36   A    
C28   C29   S    
C5    C11   A    
C3    C7    A    
C5    C6    A    
C35   O12   S    
C37   H19   S    
C6    O13   S    
C45   H37   S    
C34   C35   A    
C13   H2    S    
C26   H7    S    
Cu2   O2    S    
C12   O3    A    
C11   C15   A    
C23   O6    A    
Cu2   N1    S    
C14   H13   S    
C8    C9    A    
C39   C40   S    
C31   C33   S    
O10   C38   S    
C9    C10   A    
C19   H4    S    
C37   H17   S    
C30   H12   S    
C16   C24   S    
C21   C22   S    
C12   C32   S    
Cu1   N2    S    
C9    H14   S    
C15   H10   S    
Cu1   O7    S    
Cu2   O8    S    
C40   H25   S    
C39   H22   S    
C32   C35   A    
C31   O7    A    
C18   H3    S    
O13   C43   S    
C38   H21   S    
O12   C42   S    
C18   C19   A    
C3    C34   A    
C43   C44   S    
C2    C4    A    
C22   O9    S    
C29   C30   S    
C1    O1    A    
C22   H5    S    
C20   C23   S    
C41   H28   S    
C43   H34   S    
C17   C18   A    
C46   H41   S    
Cu1   O3    S    
Cu2   O4    S    
C27   H8    S    
O9    C37   S    
C45   H38   S    
C42   H31   S    
C24   H6    S    
C22   C24   S    
C41   H29   S    
C40   H26   S    
C2    C36   A    
C25   C30   S    
C27   N2    A    
C31   O8    A    
C25   N1    A    
C4    C5    A    
C10   C13   A    
C38   C39   S    
Cu1   O5    S    
C44   H36   S    
C6    C7    A    
C45   H39   S    
C1    C17   S    
C19   C20   A    
C2    C3    A    
C38   H20   S    
C1    O2    A    
C16   C17   A    
C30   O11   S    
C43   H33   S    
C46   H42   S    
O14   C46   S    
C36   H16   S    
C10   C11   A    
C12   O4    A    
C23   O5    A    
C20   C21   A    
C34   H15   S    
C41   H27   S    
C42   H32   S    
C46   H40   S    
C7    H1    S    
C13   C14   A    
C8    O14   S    
C15   C33   A    
Cu1   O1    S    
Cu2   O6    S    
