data_mof_unit_30557.cif
_audit_creation_date              2012-12-10T21:11:33-0500
_audit_creation_method            fapswitch 2.2
_symmetry_space_group_name_H-M    P1
_symmetry_Int_Tables_number       1
_space_group_crystal_system       triclinic
_cell_length_a                    17.529507
_cell_length_b                    16.723336
_cell_length_c                    10.613924
_cell_angle_alpha                 89.995548
_cell_angle_beta                  89.986499
_cell_angle_gamma                 89.997602
_cell_volume                      3111.4912037

loop_
_atom_site_label
_atom_site_type_symbol
_atom_type_description
_atom_site_fract_x
_atom_site_fract_y
_atom_site_fract_z
_atom_type_partial_charge
C1    C     C_R   0.353025 0.500014 0.501383 0.867021
C2    C     C_R   0.646968 0.500010 0.501675 0.865984
C3    C     C_R   0.885951 0.500382 0.550489 0.159033
C4    C     C_R   0.114057 0.500332 0.550590 0.158929
C5    C     C_1   0.966140 0.500423 0.558730 -0.059709
C6    C     C_1   0.033862 0.500407 0.558767 -0.059865
C7    C     C_R   0.436608 0.831820 0.452432 -0.128842
C8    C     C_R   0.536447 0.168236 0.598090 -0.162834
C9    C     C_R   0.563352 0.831790 0.547858 -0.128487
C10   C     C_R   0.463509 0.168215 0.402049 -0.162835
C11   C     C_R   0.439322 0.747555 0.451868 -0.105450
C12   C     C_R   0.536199 0.252519 0.593783 -0.100494
C13   C     C_R   0.560654 0.747525 0.548256 -0.103796
C14   C     C_R   0.463796 0.252502 0.406253 -0.099801
C15   C     C_R   0.499980 0.875576 0.500165 0.068867
C16   C     C_R   0.499971 0.124463 0.500097 0.084046
C17   C     C_1   0.499984 0.963514 0.500158 0.220589
C18   C     C_1   0.499980 0.036526 0.500136 0.195556
C19   C     C_R   0.511926 0.500076 0.260078 0.905260
C20   C     C_R   0.487807 0.500066 0.739770 0.904335
C21   C     C_R   0.541251 0.647559 0.110409 -0.253389
C22   C     C_R   0.456104 0.353826 0.890876 -0.264099
C23   C     C_R   0.457549 0.647390 0.889117 -0.252962
C24   C     C_R   0.543177 0.353810 0.108746 -0.264618
C25   C     C_R   0.522613 0.720811 0.054127 -0.009341
C26   C     C_R   0.474678 0.280605 0.947388 -0.021806
C27   C     C_R   0.475969 0.720719 0.945296 -0.009059
C28   C     C_R   0.524641 0.280599 0.052168 -0.021927
C29   C     C_R   0.482835 0.573955 0.940333 0.093149
C30   C     C_R   0.516639 0.427101 0.059023 0.096679
C31   C     C_R   0.516126 0.574009 0.059374 0.092902
C32   C     C_R   0.482568 0.427096 0.940722 0.096955
C33   C     C_R   0.475847 0.500399 0.875634 -0.237848
C34   C     C_R   0.523399 0.500437 0.124081 -0.239148
C35   C     C_R   0.847414 0.572936 0.539216 -0.155348
C36   C     C_R   0.152608 0.427631 0.542099 -0.155693
C37   C     C_R   0.152680 0.572917 0.540736 -0.155014
C38   C     C_R   0.847317 0.427676 0.543445 -0.156190
C39   C     C_R   0.769095 0.572910 0.521099 -0.199482
C40   C     C_R   0.230927 0.427392 0.523884 -0.199528
C41   C     C_R   0.230996 0.572922 0.522524 -0.201068
C42   C     C_R   0.768997 0.427407 0.525308 -0.197625
C43   C     C_R   0.729508 0.500081 0.514037 -0.039191
C44   C     C_R   0.270495 0.500094 0.513951 -0.041896
H1    H     H_    0.578116 0.648149 0.192340 0.151523
H2    H     H_    0.418475 0.353665 0.809858 0.152452
H3    H     H_    0.420808 0.647797 0.807019 0.151272
H4    H     H_    0.580895 0.353611 0.189640 0.152792
H5    H     H_    0.877964 0.629233 0.543071 0.139540
H6    H     H_    0.122066 0.371407 0.548161 0.141403
H7    H     H_    0.122195 0.629220 0.545733 0.139789
H8    H     H_    0.877789 0.371463 0.550624 0.141335
H9    H     H_    0.739691 0.629650 0.513035 0.149850
H10   H     H_    0.260360 0.370559 0.518033 0.161291
H11   H     H_    0.260475 0.629682 0.515578 0.151123
H12   H     H_    0.739494 0.370571 0.520667 0.160781
H13   H     H_    0.391962 0.713666 0.414113 0.132887
H14   H     H_    0.564276 0.286543 0.667123 0.134511
H15   H     H_    0.607994 0.713611 0.586035 0.131995
H16   H     H_    0.435730 0.286513 0.332879 0.134885
N1    N     N_R   0.500000 0.707230 0.500000 -0.081218
N2    N     N_R   0.500000 0.292770 0.500000 -0.074437
O1    O     O_R   0.389110 0.566570 0.499990 -0.631111
O2    O     O_R   0.610890 0.433430 0.500010 -0.621156
O3    O     O_R   0.610890 0.566570 0.500010 -0.630921
O4    O     O_R   0.389110 0.433430 0.499990 -0.620970
O5    O     O_R   0.499990 0.566540 0.316770 -0.609851
O6    O     O_R   0.500010 0.433460 0.683230 -0.619271
O7    O     O_R   0.500010 0.566540 0.683230 -0.610332
O8    O     O_R   0.499990 0.433460 0.316770 -0.618405
Zn1   Zn    Zn3+2 0.500000 0.588860 0.500000 0.934259
Zn2   Zn    Zn3+2 0.500000 0.411140 0.500000 0.936490
C45   C     C_2   0.560953 0.207502 0.103826 0.449968
H17   H     H_    0.582435 0.207558 0.199749 0.046208
O9    O     O_2   0.571344 0.148302 0.038828 -0.473986
C46   C     C_2   0.443766 0.794107 0.887563 0.484730
H18   H     H_    0.428853 0.794253 0.788243 0.041253
O10   O     O_2   0.429571 0.853317 0.950568 -0.472450
C47   C     C_2   0.438448 0.207508 0.895613 0.450679
H19   H     H_    0.417026 0.207588 0.799652 0.045846
O11   O     O_2   0.428053 0.148279 0.960556 -0.473877
C48   C     C_2   0.554655 0.794320 0.111695 0.484733
H20   H     H_    0.569572 0.794579 0.211012 0.041446
O12   O     O_2   0.568719 0.853513 0.048556 -0.472074
C49   C     C_2   0.366117 0.869905 0.402825 0.461895
H21   H     H_    0.324655 0.833800 0.352450 0.056588
O13   O     O_2   0.352006 0.940525 0.419756 -0.533171
C50   C     C_2   0.575063 0.130143 0.707392 0.483947
H22   H     H_    0.610731 0.166210 0.768738 0.075421
O14   O     O_2   0.566134 0.059684 0.733264 -0.471467
C51   C     C_2   0.633822 0.869834 0.597615 0.461974
H23   H     H_    0.675378 0.833637 0.647627 0.055726
O15   O     O_2   0.647798 0.940536 0.581253 -0.533445
C52   C     C_2   0.424867 0.130105 0.292789 0.483793
H24   H     H_    0.389421 0.166229 0.231157 0.075946
O16   O     O_2   0.433507 0.059555 0.267293 -0.472145

loop_
_geom_bond_atom_site_label_1
_geom_bond_atom_site_label_2
_ccdc_geom_bond_type
C4    C36   A    
C45   H17   S    
C2    O3    A    
C9    C51   S    
C39   H9    S    
C49   H21   S    
C7    C11   A    
C21   C31   A    
C22   C32   A    
C23   C29   A    
C46   O10   D    
C38   C42   A    
C5    C6    T    
C37   H7    S    
C38   H8    S    
C10   C52   S    
C14   N2    A    
C29   C33   A    
O7    Zn1   S    
C9    C13   A    
C41   H11   S    
C42   H12   S    
O4    Zn2   S    
C3    C38   A    
C35   H5    S    
C19   O5    A    
C23   C27   A    
O6    Zn2   S    
C12   H14   S    
N1    Zn1   S    
C7    C15   A    
C8    C16   A    
C45   O9    D    
C28   C45   S    
C1    O1    A    
C2    O2    A    
C1    O4    A    
C21   H1    S    
C49   O13   D    
C23   H3    S    
C30   C34   A    
C24   H4    S    
C36   C40   A    
C46   H18   S    
C4    C6    S    
C10   C14   A    
C51   H23   S    
C47   O11   D    
C39   C43   A    
C11   N1    A    
O3    Zn1   S    
C8    C50   S    
C35   C39   A    
C51   O15   D    
C12   N2    A    
C1    C44   S    
C3    C35   A    
C2    C43   S    
C8    C12   A    
C17   C18   T    
C31   C34   A    
N2    Zn2   S    
C4    C37   A    
C52   O16   D    
C20   C33   S    
C22   H2    S    
C50   O14   D    
C40   H10   S    
C25   C48   S    
C41   C44   A    
C20   O7    A    
C42   C43   A    
C27   C46   S    
C36   H6    S    
C15   C17   S    
C21   C25   A    
C26   C28   A    
C20   O6    A    
C24   C28   A    
O1    Zn1   S    
C3    C5    S    
C19   C34   S    
C13   H15   S    
C25   C27   A    
C14   H16   S    
C48   O12   D    
C26   C47   S    
C32   C33   A    
C9    C15   A    
C29   C31   A    
C10   C16   A    
C30   C32   A    
C7    C49   S    
O5    Zn1   S    
O2    Zn2   S    
C37   C41   A    
C52   H24   S    
C24   C30   A    
C47   H19   S    
C40   C44   A    
C13   N1    A    
C50   H22   S    
C16   C18   S    
C48   H20   S    
C22   C26   A    
C19   O8    A    
O8    Zn2   S    
C11   H13   S    
