data_mof_unit_57367.cif
_audit_creation_date              2012-12-10T18:11:41-0500
_audit_creation_method            fapswitch 2.2
_symmetry_space_group_name_H-M    P1
_symmetry_Int_Tables_number       1
_space_group_crystal_system       triclinic
_cell_length_a                    10.564136
_cell_length_b                    12.694905
_cell_length_c                    12.991691
_cell_angle_alpha                 81.95443
_cell_angle_beta                  93.240389
_cell_angle_gamma                 101.87584
_cell_volume                      1687.5581985

loop_
_atom_site_label
_atom_site_type_symbol
_atom_type_description
_atom_site_fract_x
_atom_site_fract_y
_atom_site_fract_z
_atom_type_partial_charge
C1    C     C_R   0.481133 0.438545 0.691490 0.940990
C2    C     C_3   0.066050 0.593933 0.529443 0.224196
C3    C     C_3   0.966387 0.505632 0.588709 0.384576
C4    C     C_3   0.876561 0.504290 0.493344 -0.206005
C5    C     C_R   0.726766 0.657748 0.079823 0.530911
C6    C     C_R   0.552447 0.598727 0.200976 -0.278931
C7    C     C_R   0.317409 0.341357 0.818339 0.214288
C8    C     C_R   0.248404 0.369239 0.896017 0.153103
C9    C     C_R   0.311117 0.449711 0.957335 0.372321
C10   C     C_R   0.448968 0.480711 0.956505 0.019824
C11   C     C_R   0.514758 0.450090 0.877928 -0.149686
C12   C     C_R   0.741728 0.501435 0.498054 0.998615
C13   C     C_R   0.524326 0.540862 0.030169 0.010194
C14   C     C_R   0.658331 0.583526 0.014192 -0.216027
C15   C     C_R   0.723390 0.539409 0.944054 0.440150
C16   C     C_R   0.650354 0.466255 0.880883 0.244235
C17   C     C_R   0.475639 0.545213 0.126749 -0.097031
C18   C     C_R   0.673699 0.665214 0.173885 0.403107
C19   C     C_R   0.443816 0.398636 0.799311 -0.173865
C20   C     C_R   0.375456 0.109498 0.310192 0.367340
C21   C     C_R   0.645191 0.796625 0.640990 0.197863
C22   C     C_R   0.679228 0.901021 0.671289 0.384336
C23   C     C_R   0.519502 0.561010 0.308929 0.926492
C24   C     C_R   0.645984 0.988139 0.607064 0.431466
C25   C     C_R   0.561171 0.969747 0.520314 -0.203373
C26   C     C_R   0.527802 0.862528 0.490976 0.040438
C27   C     C_R   0.504066 0.052944 0.462648 -0.042482
C28   C     C_R   0.451245 0.037851 0.362021 -0.113891
C29   C     C_R   0.467587 0.946394 0.320326 0.213603
C30   C     C_R   0.471217 0.853094 0.389076 0.258500
C31   C     C_R   0.492932 0.148581 0.502154 -0.061827
C32   C     C_R   0.368322 0.201820 0.353640 0.384281
C33   C     C_R   0.258106 0.500388 0.497809 0.990367
C34   C     C_3   0.932101 0.413740 0.455316 -0.279861
C35   C     C_3   0.022203 0.416684 0.552360 0.313852
C36   C     C_3   0.123355 0.503363 0.493167 -0.245445
C37   C     C_3   0.033908 0.503349 0.395568 0.301749
C38   C     C_3   0.974897 0.593780 0.431860 -0.230981
H1    H     H_    0.384927 0.494106 0.151607 0.255211
H2    H     H_    0.529820 0.166322 0.578169 0.218763
H3    H     H_    0.875854 0.339690 0.425480 0.207105
H4    H     H_    0.952128 0.666318 0.381989 0.246132
N1    N     N_R   0.432930 0.222190 0.444670 -0.172716
N2    N     N_R   0.566370 0.776980 0.554790 -0.141693
O1    O     O_R   0.467970 0.366730 0.627150 -0.574523
O2    O     O_R   0.510820 0.544830 0.662520 -0.583213
O3    O     O_R   0.664630 0.410960 0.482340 -0.638820
O4    O     O_R   0.707470 0.589060 0.517710 -0.560459
O5    O     O_R   0.489180 0.455170 0.337480 -0.604014
O6    O     O_R   0.532030 0.633270 0.372850 -0.609735
O7    O     O_R   0.292530 0.410940 0.482290 -0.547729
O8    O     O_R   0.335370 0.589040 0.517660 -0.575203
Zn1   Zn    Zn3+2 0.471390 0.381080 0.476380 1.048151
Zn2   Zn    Zn3+2 0.528610 0.618920 0.523620 1.053577
O9    O     O_3   0.046465 0.324759 0.616014 -0.666715
H5    H     H_    0.961364 0.286373 0.643769 0.398277
Br1   Br    Br    0.245272 0.221590 0.743171 -0.240641
O10   O     O_3   0.241153 0.501141 0.014087 -0.696200
H6    H     H_    0.148899 0.486255 0.991745 0.398833
Br2   Br    Br    0.069954 0.299171 0.916432 -0.262506
Br3   Br    Br    0.729258 0.365750 0.820323 -0.335344
Br4   Br    Br    0.256518 0.293399 0.287551 -0.307295
Br5   Br    Br    0.472061 0.941656 0.172365 -0.312139
O11   O     O_3   0.298600 0.087449 0.223359 -0.647662
H7    H     H_    0.260620 0.008675 0.232442 0.387175
Br6   Br    Br    0.743042 0.692807 0.706521 -0.398569
O12   O     O_3   0.710787 0.090101 0.625312 -0.672966
H8    H     H_    0.731357 0.134330 0.556911 0.327059
O13   O     O_3   0.756551 0.922839 0.758197 -0.616857
H9    H     H_    0.743086 0.857349 0.810658 0.353480
Br7   Br    Br    0.326016 0.746843 0.351979 -0.372715
Br8   Br    Br    0.081099 0.508057 0.253003 -0.285071
Br9   Br    Br    0.150734 0.723224 0.589337 -0.338566
O14   O     O_3   0.931570 0.508894 0.689786 -0.682554
H10   H     H_    0.010612 0.503753 0.733543 0.362228
O15   O     O_3   0.748180 0.730258 0.240332 -0.697843
H11   H     H_    0.689669 0.760112 0.279897 0.360700
O16   O     O_3   0.857115 0.558310 0.948194 -0.685447
H12   H     H_    0.888528 0.536963 0.885513 0.396011
O17   O     O_3   0.846176 0.722120 0.055989 -0.607429
H13   H     H_    0.850427 0.738525 0.979243 0.374526

loop_
_geom_bond_atom_site_label_1
_geom_bond_atom_site_label_2
_ccdc_geom_bond_type
O9    H5    S    
C29   Br5   S    
C21   Br6   S    
C34   C37   S    
C35   C36   S    
C12   O4    A    
C30   Br7   S    
C26   N2    A    
C7    C8    A    
C33   O8    A    
O4    Zn2   S    
C11   C19   A    
C29   C30   A    
C31   N1    A    
C36   C37   S    
C38   H4    S    
C34   C35   S    
C1    O2    A    
C23   O5    A    
C15   O16   S    
C15   C16   A    
C33   C36   S    
C31   H2    S    
C9    O10   S    
C17   H1    S    
C3    O14   S    
C24   O12   S    
N1    Zn1   S    
C8    C9    A    
C4    C12   S    
C9    C10   A    
C22   O13   S    
O3    Zn1   S    
O1    Zn1   S    
C21   C22   A    
C34   H3    S    
C12   O3    A    
O8    Zn2   S    
C6    C18   A    
C4    C34   S    
C1    C19   S    
O14   H10   S    
C27   C31   A    
O12   H8    S    
C24   C25   A    
O16   H12   S    
C23   O6    A    
C5    C18   A    
C20   C28   A    
C25   C26   A    
C35   O9    S    
O7    Zn1   S    
C20   O11   S    
C37   C38   S    
C21   N2    A    
C11   C16   A    
C2    C38   S    
C3    C35   S    
O2    Zn2   S    
O6    Zn2   S    
O15   H11   S    
C5    O17   S    
C5    C14   A    
C2    Br9   S    
C4    C38   S    
C26   C30   A    
C7    C19   A    
C22   C24   A    
C25   C27   A    
C16   Br3   S    
C3    C4    S    
C20   C32   A    
C2    C36   S    
C6    C17   A    
C28   C29   A    
C18   O15   S    
O17   H13   S    
C10   C13   A    
C33   O7    A    
C13   C17   A    
O11   H7    S    
C2    C3    S    
O10   H6    S    
C32   Br4   S    
C8    Br2   S    
C1    O1    A    
O5    Zn1   S    
C6    C23   S    
C32   N1    A    
O13   H9    S    
C10   C11   A    
N2    Zn2   S    
C37   Br8   S    
C27   C28   A    
C14   C15   A    
C13   C14   A    
C7    Br1   S    
