data_mof_unit_27182.cif
_audit_creation_date              2012-12-10T16:55:04-0500
_audit_creation_method            fapswitch 2.2
_symmetry_space_group_name_H-M    P1
_symmetry_Int_Tables_number       1
_space_group_crystal_system       triclinic
_cell_length_a                    9.767818
_cell_length_b                    10.903102
_cell_length_c                    15.885165
_cell_angle_alpha                 88.628149
_cell_angle_beta                  72.538934
_cell_angle_gamma                 90.817948
_cell_volume                      1612.9367117

loop_
_atom_site_label
_atom_site_type_symbol
_atom_type_description
_atom_site_fract_x
_atom_site_fract_y
_atom_site_fract_z
_atom_type_partial_charge
C1    C     C_R   0.999522 0.265537 0.499703 0.830592
C2    C     C_R   0.668890 0.539906 0.904565 -0.014276
C3    C     C_R   0.763449 0.601248 0.942709 -0.131557
C4    C     C_R   0.519983 0.533324 0.952542 -0.041163
C5    C     C_R   0.474222 0.555273 0.044610 -0.151741
C6    C     C_R   0.574665 0.608356 0.082421 0.533669
C7    C     C_R   0.715412 0.634481 0.031104 0.537468
C8    C     C_R   0.414857 0.518202 0.909210 -0.198678
C9    C     C_R   0.269192 0.508761 0.955572 0.257332
C10   C     C_R   0.224148 0.518189 0.047248 0.016029
C11   C     C_R   0.326860 0.533618 0.093175 0.090615
C12   C     C_R   0.915360 0.503436 0.671352 0.787367
C13   C     C_R   0.076984 0.514099 0.093675 -0.214785
C14   C     C_R   0.030676 0.511106 0.184845 0.638493
C15   C     C_R   0.278369 0.522499 0.185923 -0.222202
C16   C     C_2   0.904685 0.932993 0.475607 -0.133567
C17   C     C_2   0.011658 0.867090 0.488522 -0.303706
C18   C     C_2   0.912206 0.067315 0.468833 -0.164567
C19   C     C_2   0.998771 0.133116 0.502592 -0.299998
C20   C     C_2   0.402682 0.421511 0.543567 0.328587
C21   C     C_2   0.562516 0.405570 0.519712 0.399879
C22   C     C_R   0.002500 0.734598 0.497045 0.837100
C23   C     C_R   0.084286 0.502401 0.328745 0.837570
C24   C     C_R   0.866317 0.527421 0.766765 -0.082331
C25   C     C_R   0.131328 0.511027 0.231909 -0.229711
C26   C     C_R   0.904003 0.631594 0.891178 -0.078137
C27   C     C_R   0.952640 0.599387 0.803110 -0.280753
C28   C     C_R   0.727577 0.489997 0.819292 0.259202
Cu1   Cu    Cu3+1 0.138640 0.500020 0.499980 0.977619
Cu2   Cu    Cu3+1 0.861360 0.499980 0.500020 1.093444
H1    H     H_    0.996021 0.512125 0.059792 0.221211
H2    H     H_    0.809071 0.887909 0.468450 0.204805
H3    H     H_    0.112366 0.909575 0.489014 0.162323
H4    H     H_    0.839914 0.112940 0.438552 0.189036
H5    H     H_    0.070980 0.090821 0.534202 0.144447
H6    H     H_    0.417150 0.544479 0.447727 0.242879
H7    H     H_    0.354022 0.516578 0.223164 0.245931
H8    H     H_    0.975593 0.683628 0.918111 0.202215
H9    H     H_    0.058501 0.630666 0.763247 0.167794
H10   H     H_    0.443310 0.520672 0.838366 0.143255
N1    N     N_2   0.346430 0.498660 0.500980 -0.287380
N2    N     N_2   0.652550 0.498630 0.501000 0.077355
O1    O     O_R   0.117050 0.321960 0.499980 -0.613713
O2    O     O_R   0.882890 0.321920 0.500020 -0.554233
O3    O     O_R   0.052910 0.500040 0.629810 -0.587703
O4    O     O_R   0.818750 0.499990 0.629840 -0.573123
O5    O     O_R   0.117110 0.678080 0.499980 -0.570848
O6    O     O_R   0.882950 0.678040 0.500020 -0.516885
O7    O     O_R   0.181250 0.500010 0.370160 -0.592901
O8    O     O_R   0.947090 0.499960 0.370190 -0.502435
F1    F     F_    0.804945 0.694054 0.068265 -0.614496
N3    N     N_2   0.314627 0.347710 0.614461 -0.435857
H11   H     H_    0.218931 0.313951 0.610017 0.295289
C29   C     C_3   0.306983 0.388840 0.701205 -0.719716
H12   H     H_    0.194927 0.413606 0.734993 0.246995
H13   H     H_    0.378535 0.469951 0.699064 0.232140
H14   H     H_    0.338457 0.313354 0.738973 0.226866
N4    N     N_2   0.614304 0.283664 0.512671 -0.428257
H15   H     H_    0.574196 0.231743 0.471634 0.232993
C30   C     C_3   0.601860 0.218641 0.595363 -0.654824
H16   H     H_    0.489242 0.190324 0.629539 0.231674
H17   H     H_    0.645949 0.275434 0.638328 0.248131
H18   H     H_    0.663509 0.133221 0.582501 0.229274
F2    F     F_    0.593559 0.609129 0.516553 -0.583014
F3    F     F_    0.887140 0.504799 0.226199 -0.607249
N5    N     N_2   0.167784 0.487480 0.909345 -0.448241
H19   H     H_    0.197920 0.526352 0.846772 0.247825
C31   C     C_3   0.115545 0.361464 0.914473 -0.692265
H20   H     H_    0.035123 0.353636 0.878039 0.235856
H21   H     H_    0.062575 0.330796 0.983859 0.241156
H22   H     H_    0.205550 0.299296 0.885877 0.226531
N6    N     N_2   0.660084 0.389700 0.790092 -0.453632
H23   H     H_    0.595412 0.409026 0.751185 0.251003
C32   C     C_3   0.628073 0.279071 0.845184 -0.679591
H24   H     H_    0.612588 0.201064 0.805087 0.223777
H25   H     H_    0.528184 0.288887 0.900540 0.242581
H26   H     H_    0.718450 0.257867 0.871745 0.239294
F4    F     F_    0.534783 0.651609 0.165440 -0.614068

loop_
_geom_bond_atom_site_label_1
_geom_bond_atom_site_label_2
_ccdc_geom_bond_type
C22   O6    A    
N5    C31   S    
C24   C27   A    
C4    C8    A    
C20   N1    D    
Cu1   O7    S    
C26   C27   A    
C32   H25   S    
Cu1   O5    S    
C30   H18   S    
Cu2   O6    S    
C5    C11   A    
C3    C7    A    
C5    C6    A    
C23   O7    A    
N4    C30   S    
C6    F4    S    
C30   H17   S    
C18   C19   D    
C13   H1    S    
C9    N5    S    
C15   H7    S    
C31   H20   S    
C11   C15   A    
C1    O1    A    
C27   H9    S    
C8    C9    A    
C32   H26   S    
C9    C10   A    
N6    H23   S    
C22   O5    A    
Cu2   O8    S    
C13   C14   A    
Cu1   O1    S    
Cu2   O2    S    
H6    N1    S    
C28   N6    S    
C17   H3    S    
N3    C29   S    
C29   H13   S    
C1    C19   S    
C32   H24   S    
C12   O4    A    
C4    C5    A    
C23   O8    A    
N4    H15   S    
Cu1   O3    S    
C30   H16   S    
C2    C4    A    
Cu1   Cu2   S    
C1    O2    A    
C18   H4    S    
N6    C32   S    
N2    F2    S    
N3    H11   S    
C29   H12   S    
Cu1   N1    S    
Cu2   O4    S    
C3    C26   A    
C26   H8    S    
C24   C28   A    
C12   O3    A    
C10   C13   A    
C6    C7    A    
C16   H2    S    
C12   C24   S    
C17   C22   S    
C2    C3    A    
C7    F1    S    
C21   N4    S    
C20   N3    S    
C19   H5    S    
C16   C17   D    
C31   H22   S    
C14   F3    S    
N5    H19   S    
C23   C25   S    
C14   C25   A    
C15   C25   A    
C10   C11   A    
C21   N2    D    
C20   C21   S    
C16   C18   S    
C31   H21   S    
Cu2   N2    S    
C2    C28   A    
C8    H10   S    
C29   H14   S    
