data_mof_unit_26722.cif
_audit_creation_date              2012-12-11T14:07:45-0500
_audit_creation_method            fapswitch 2.2
_symmetry_space_group_name_H-M    P1
_symmetry_Int_Tables_number       1
_space_group_crystal_system       triclinic
_cell_length_a                    19.992527
_cell_length_b                    16.922349
_cell_length_c                    15.62584
_cell_angle_alpha                 89.993653
_cell_angle_beta                  52.577995
_cell_angle_gamma                 89.954743
_cell_volume                      4198.47124023

loop_
_atom_site_label
_atom_site_type_symbol
_atom_type_description
_atom_site_fract_x
_atom_site_fract_y
_atom_site_fract_z
_atom_type_partial_charge
C1    C     C_R   0.342809 0.177378 0.046487 -0.198565
C2    C     C_R   0.660270 0.818811 0.060899 0.171524
C3    C     C_R   0.158996 0.681387 0.062680 0.109514
C4    C     C_R   0.189373 0.334260 0.017345 0.162858
C5    C     C_R   0.691979 0.863631 0.676895 0.025693
C6    C     C_R   0.601905 0.185609 0.702315 0.020168
C7    C     C_R   0.099562 0.313931 0.703546 0.013137
C8    C     C_R   0.193084 0.634518 0.676571 -0.029622
C9    C     C_3   0.214837 0.133999 0.523672 -0.335945
C10   C     C_3   0.366152 0.782208 0.477218 -0.356953
C11   C     C_3   0.865232 0.716166 0.478084 -0.366026
C12   C     C_R   0.337334 0.829951 0.059017 -0.177524
C13   C     C_3   0.716835 0.364663 0.522180 -0.341979
C14   C     C_3   0.148654 0.177756 0.628423 -0.382089
C15   C     C_3   0.306838 0.737724 0.584131 -0.401292
C16   C     C_3   0.805286 0.760141 0.585179 -0.374332
C17   C     C_3   0.649738 0.321414 0.626551 -0.376986
C18   C     C_3   0.306849 0.254800 0.444924 -0.379832
C19   C     C_3   0.359472 0.673845 0.373696 -0.328602
C20   C     C_3   0.859996 0.825563 0.374557 -0.321534
C21   C     C_3   0.809489 0.243866 0.444632 -0.380548
C22   C     C_3   0.747308 0.719864 0.457006 -0.169710
C23   C     C_R   0.836611 0.669061 0.060253 -0.187326
C24   C     C_3   0.696226 0.262933 0.419551 -0.179715
C25   C     C_3   0.192717 0.234913 0.421622 -0.167367
C26   C     C_3   0.247098 0.779971 0.458353 -0.176225
C27   C     C_3   0.260050 0.192756 0.426712 0.302422
C28   C     C_3   0.342691 0.763715 0.400626 0.297471
C29   C     C_3   0.842753 0.735642 0.400711 0.295469
C30   C     C_3   0.762823 0.305498 0.425627 0.307147
C31   C     C_3   0.750000 0.819029 0.576519 0.351370
C32   C     C_3   0.655800 0.231431 0.603795 0.345973
C33   C     C_3   0.153358 0.267513 0.605108 0.347448
C34   C     C_R   0.841055 0.325016 0.050355 -0.192354
C35   C     C_3   0.250781 0.679557 0.576164 0.368689
C36   C     C_3   0.810181 0.874289 0.479353 -0.474458
C37   C     C_3   0.746986 0.202090 0.550999 -0.415397
C38   C     C_3   0.244523 0.297602 0.550606 -0.403126
C39   C     C_3   0.310137 0.624625 0.478101 -0.464135
C40   C     C_R   0.400641 0.799755 0.208034 0.441112
C41   C     C_R   0.365607 0.185365 0.223068 0.449779
C42   C     C_R   0.868012 0.313336 0.222448 0.441224
C43   C     C_R   0.900407 0.700088 0.208528 0.450429
C44   C     C_3   0.693524 0.772340 0.556978 -0.396285
C45   C     C_R   0.639812 0.897149 0.096034 -0.169113
C46   C     C_3   0.633328 0.217768 0.525599 -0.422805
C47   C     C_3   0.129468 0.279613 0.528164 -0.434616
C48   C     C_3   0.193804 0.727255 0.558199 -0.386012
C49   C     C_2   0.212905 0.731730 0.072021 -0.300189
C50   C     C_2   0.243637 0.282653 0.022000 -0.274036
C51   C     C_2   0.730106 0.223774 0.044242 -0.324505
C52   C     C_2   0.713716 0.768261 0.070933 -0.293030
C53   C     C_2   0.718315 0.302368 0.056722 0.469802
C54   C     C_2   0.707766 0.688838 0.076212 0.569214
C55   C     C_2   0.207909 0.811251 0.075718 0.448781
C56   C     C_R   0.648583 0.098445 0.084179 -0.135562
C57   C     C_2   0.226023 0.205109 0.042500 0.528612
C58   C     C_R   0.328030 0.911532 0.956638 -0.136543
C59   C     C_R   0.333445 0.093921 0.945622 -0.087407
C60   C     C_R   0.831402 0.408196 0.949650 -0.133167
C61   C     C_R   0.828169 0.588825 0.956278 -0.079669
C62   C     C_R   0.366209 0.085730 0.316613 -0.207552
C63   C     C_R   0.407865 0.891933 0.302320 -0.241019
C64   C     C_R   0.908292 0.607877 0.302090 -0.241422
C65   C     C_R   0.867673 0.413143 0.316607 -0.209282
C66   C     C_R   0.293113 0.155084 0.019376 -0.048320
C67   C     C_R   0.156267 0.405707 0.072714 -0.160577
C68   C     C_R   0.284724 0.854272 0.036925 -0.026518
C69   C     C_R   0.784231 0.645146 0.037775 -0.055599
C70   C     C_R   0.789965 0.348798 0.026010 -0.038707
C71   C     C_R   0.391041 0.813197 0.302313 -0.049740
C72   C     C_R   0.323988 0.153213 0.325300 -0.091225
C73   C     C_R   0.826749 0.344921 0.324796 -0.083288
C74   C     C_R   0.891464 0.686571 0.302275 -0.050243
C75   C     C_R   0.639586 0.194073 0.989450 -0.013341
C76   C     C_R   0.628587 0.800762 0.005288 -0.050651
C77   C     C_R   0.127716 0.699520 0.006731 -0.040062
C78   C     C_R   0.138960 0.603007 0.097142 -0.142521
C79   C     C_R   0.149576 0.311940 0.973610 0.003623
C80   C     C_R   0.651308 0.830423 0.778286 -0.167894
C81   C     C_R   0.596119 0.199587 0.793316 -0.172026
C82   C     C_R   0.093396 0.299939 0.794792 -0.134564
C83   C     C_R   0.153059 0.667240 0.778202 -0.076315
C84   C     C_R   0.587603 0.106848 0.700682 -0.136545
C85   C     C_R   0.641312 0.923301 0.685179 -0.130098
C86   C     C_R   0.141415 0.576037 0.685163 -0.132743
C87   C     C_R   0.086907 0.393023 0.701060 -0.142811
C88   C     C_2   0.721579 0.633710 0.483985 0.498428
C89   C     C_R   0.675484 0.173522 0.038771 0.123851
C90   C     C_2   0.652942 0.318167 0.390794 0.498160
C91   C     C_2   0.149798 0.179461 0.392664 0.488806
C92   C     C_2   0.221676 0.866169 0.486099 0.503944
C93   C     C_2   0.642868 0.270689 0.942955 0.579316
C94   C     C_2   0.626432 0.723748 0.962699 0.620430
C95   C     C_2   0.128565 0.777136 0.962503 0.591834
C96   C     C_2   0.159364 0.237975 0.917781 0.573464
H1    H     H_    0.333935 0.229171 0.091357 0.147700
H2    H     H_    0.585926 0.343743 0.659256 0.194241
H3    H     H_    0.084640 0.154765 0.663439 0.184740
H4    H     H_    0.267427 0.782318 0.648341 0.186639
H5    H     H_    0.161825 0.165257 0.686683 0.168170
H6    H     H_    0.344105 0.705327 0.604239 0.149616
H7    H     H_    0.841957 0.791873 0.606666 0.158005
H8    H     H_    0.661065 0.335414 0.686165 0.153723
H9    H     H_    0.355919 0.225852 0.447022 0.174534
H10   H     H_    0.427994 0.660677 0.325353 0.204262
H11   H     H_    0.928506 0.838380 0.327002 0.206438
H12   H     H_    0.323004 0.785941 0.117569 0.128402
H13   H     H_    0.858719 0.272934 0.446227 0.167007
H14   H     H_    0.854428 0.903871 0.489914 0.185672
H15   H     H_    0.764207 0.213492 0.605620 0.169477
H16   H     H_    0.262442 0.287913 0.604821 0.193580
H17   H     H_    0.354747 0.594232 0.487426 0.185676
H18   H     H_    0.733865 0.737612 0.400100 0.073575
H19   H     H_    0.728478 0.217671 0.354768 0.147359
H20   H     H_    0.224359 0.280467 0.357277 0.146831
H21   H     H_    0.232877 0.762783 0.402058 0.076606
H22   H     H_    0.646014 0.736937 0.629763 0.184765
H23   H     H_    0.821157 0.712120 0.120253 0.118175
H24   H     H_    0.566964 0.235877 0.565200 0.197838
H25   H     H_    0.063425 0.260018 0.568712 0.191017
H26   H     H_    0.146962 0.762610 0.631489 0.192597
H27   H     H_    0.657121 0.814241 0.544538 0.137073
H28   H     H_    0.637881 0.154151 0.505181 0.134281
H29   H     H_    0.132089 0.343097 0.508302 0.134920
H30   H     H_    0.156629 0.686001 0.546400 0.137016
H31   H     H_    0.339452 0.298874 0.378529 0.223209
H32   H     H_    0.337584 0.655050 0.326422 0.215905
H33   H     H_    0.838673 0.845232 0.326976 0.215922
H34   H     H_    0.830738 0.274725 0.098275 0.145439
H35   H     H_    0.841802 0.199242 0.378827 0.218605
H36   H     H_    0.775317 0.921561 0.472155 0.160776
H37   H     H_    0.752217 0.137179 0.536169 0.168964
H38   H     H_    0.249200 0.362253 0.534349 0.166812
H39   H     H_    0.274610 0.577996 0.471202 0.160398
H40   H     H_    0.268276 0.701925 0.054116 0.118960
H41   H     H_    0.303853 0.307205 0.994814 0.115578
H42   H     H_    0.788553 0.196272 0.019466 0.120179
H43   H     H_    0.769389 0.797602 0.052626 0.114066
H44   H     H_    0.306941 0.939827 0.915066 0.097046
H45   H     H_    0.185232 0.084541 0.510891 0.207164
H46   H     H_    0.316208 0.068278 0.898289 0.116434
H47   H     H_    0.812760 0.434397 0.904159 0.100026
H48   H     H_    0.807805 0.561846 0.913193 0.125976
H49   H     H_    0.357174 0.049015 0.379259 0.134990
H50   H     H_    0.413675 0.922723 0.357945 0.131329
H51   H     H_    0.914443 0.576876 0.357295 0.132050
H52   H     H_    0.858827 0.449670 0.379302 0.133804
H53   H     H_    0.672132 0.779607 0.795720 0.113015
H54   H     H_    0.594101 0.256719 0.823845 0.147645
H55   H     H_    0.084829 0.242512 0.829053 0.083594
H56   H     H_    0.361556 0.845984 0.496104 0.184582
H57   H     H_    0.177704 0.714528 0.795984 0.095911
H58   H     H_    0.580806 0.076125 0.645822 0.089354
H59   H     H_    0.649787 0.957680 0.621126 0.088780
H60   H     H_    0.149423 0.541927 0.621217 0.094618
H61   H     H_    0.080596 0.423935 0.645864 0.088472
H62   H     H_    0.648864 0.926025 0.150022 0.108221
H63   H     H_    0.659730 0.069802 0.136322 0.109286
H64   H     H_    0.169024 0.433815 0.123536 0.110711
H65   H     H_    0.147735 0.574142 0.151399 0.107927
H66   H     H_    0.260807 0.107457 0.533306 0.161800
H67   H     H_    0.860391 0.652287 0.496505 0.187359
H68   H     H_    0.432487 0.764238 0.438098 0.156307
H69   H     H_    0.931427 0.733879 0.440022 0.160156
H70   H     H_    0.762215 0.391057 0.532944 0.156960
H71   H     H_    0.708763 0.600289 0.436124 0.014712
H72   H     H_    0.675136 0.321212 0.307911 0.024510
H73   H     H_    0.171479 0.177017 0.309968 0.021817
H74   H     H_    0.208362 0.900081 0.439050 0.016085
H75   H     H_    0.435699 0.734221 0.087015 0.301819
H76   H     H_    0.420191 0.273042 0.126195 0.358386
H77   H     H_    0.923903 0.227099 0.122811 0.312548
H78   H     H_    0.687948 0.414178 0.508215 0.207641
H79   H     H_    0.930169 0.766244 0.090464 0.355597
H80   H     H_    0.646311 0.394487 0.105898 0.320405
H81   H     H_    0.642775 0.593171 0.113384 0.317620
H82   H     H_    0.143832 0.907577 0.111912 0.315546
H83   H     H_    0.147657 0.117561 0.098543 0.314980
H84   H     H_    0.703103 0.298768 0.884000 -0.031464
H85   H     H_    0.572494 0.707927 0.966088 -0.005329
H86   H     H_    0.179742 0.818260 0.933261 0.010924
H87   H     H_    0.104033 0.203935 0.944036 -0.004941
H88   H     H_    0.765517 0.715188 0.648512 0.199275
N1    N     N_R   0.408680 0.130160 0.995800 -0.033334
N2    N     N_R   0.403730 0.078230 0.935950 -0.036951
N3    N     N_R   0.903730 0.421770 0.935950 -0.030876
N4    N     N_R   0.903730 0.578230 0.935950 -0.044392
N5    N     N_R   0.426630 0.075970 0.212960 -0.049369
N6    N     N_R   0.426630 0.924030 0.212960 -0.052457
N7    N     N_R   0.926630 0.575970 0.212960 -0.056065
N8    N     N_R   0.926630 0.424030 0.212960 -0.047854
N9    N     N_R   0.591320 0.134600 0.004200 -0.070306
N10   N     N_R   0.591320 0.865400 0.004200 -0.090801
N11   N     N_R   0.091320 0.634600 0.004200 -0.064276
N12   N     N_R   0.408680 0.869840 0.995800 -0.044449
N13   N     N_R   0.091320 0.365400 0.004200 -0.095761
N14   N     N_R   0.578320 0.867660 0.846880 -0.050571
N15   N     N_R   0.578320 0.132340 0.846880 -0.041997
N16   N     N_R   0.078320 0.367660 0.846880 -0.049587
N17   N     N_R   0.078320 0.632340 0.846880 -0.029160
N18   N     N_R   0.573370 0.074390 0.787040 -0.036280
N19   N     N_R   0.573370 0.925610 0.787040 -0.037561
N20   N     N_R   0.073370 0.574390 0.787040 -0.043666
N21   N     N_R   0.073370 0.425610 0.787040 -0.034074
N22   N     N_R   0.596270 0.927870 0.064040 -0.041185
N23   N     N_R   0.908680 0.630160 0.995800 -0.034036
N24   N     N_R   0.596270 0.072130 0.064040 -0.049484
N25   N     N_R   0.096270 0.427870 0.064040 -0.046040
N26   N     N_R   0.096270 0.572130 0.064040 -0.047176
N27   N     N_R   0.908680 0.369840 0.995800 -0.038785
N28   N     N_R   0.421680 0.867580 0.153120 -0.098624
N29   N     N_R   0.421680 0.132420 0.153120 -0.083641
N30   N     N_R   0.921680 0.367580 0.153120 -0.091518
N31   N     N_R   0.921680 0.632420 0.153120 -0.096432
N32   N     N_R   0.403730 0.921770 0.935950 -0.034207
Ni1   Ni    Ni4+2 0.500000 0.131190 0.000000 0.253461
Ni2   Ni    Ni4+2 0.500000 0.868810 0.000000 0.199435
Ni3   Ni    Ni4+2 1.000000 0.631190 0.000000 0.270768
Ni4   Ni    Ni4+2 0.000000 0.368810 0.000000 0.196314
Ni5   Ni    Ni4+2 0.488650 0.000000 0.862740 0.212358
Ni6   Ni    Ni4+2 0.988650 0.500000 0.862740 0.211640
Ni7   Ni    Ni4+2 0.511350 1.000000 0.137260 0.208411
Ni8   Ni    Ni4+2 0.011350 0.500000 0.137260 0.206382
O1    O     O_2   0.716863 0.600552 0.556910 -0.595105
O2    O     O_3   0.632919 0.650877 0.116043 -0.745056
O3    O     O_3   0.133350 0.849953 0.115583 -0.752873
O4    O     O_3   0.146287 0.175391 0.089244 -0.770222
O5    O     O_2   0.577853 0.305767 0.976387 -0.591091
O6    O     O_2   0.688218 0.680785 0.913198 -0.603902
O7    O     O_2   0.074144 0.794933 0.953309 -0.598312
O8    O     O_2   0.229267 0.213248 0.844901 -0.605936
O9    O     O_2   0.595208 0.361137 0.458182 -0.578290
O10   O     O_2   0.092968 0.135655 0.459625 -0.584092
O11   O     O_2   0.217758 0.898826 0.558730 -0.593794
O12   O     O_3   0.412617 0.726350 0.163096 -0.795323
O13   O     O_3   0.369547 0.264761 0.201517 -0.800329
O14   O     O_3   0.874073 0.234017 0.199163 -0.807809
O15   O     O_3   0.909780 0.773672 0.165415 -0.768373
O16   O     O_3   0.640503 0.336545 0.102793 -0.717793

loop_
_geom_bond_atom_site_label_1
_geom_bond_atom_site_label_2
_ccdc_geom_bond_type
C6    C32   S    
N4    N23   A    
N16   N21   A    
C79   N13   A    
C40   C71   A    
C10   C28   S    
C76   N10   A    
C8    C83   A    
C7    C33   S    
C19   H32   S    
C23   N23   A    
N15   Ni1   S    
C26   H21   S    
C57   C66   S    
C40   O12   S    
C43   N31   A    
C14   C33   S    
N11   Ni3   S    
C55   C68   S    
C3    C49   S    
C50   H41   S    
C14   H3    S    
N10   Ni2   S    
C43   O15   S    
C41   O13   S    
C16   C31   S    
N9    Ni1   S    
N27   Ni4   S    
C12   C68   A    
C91   O10   D    
C94   O6    D    
C45   N22   A    
N1    Ni1   S    
C22   C29   S    
C17   H8    S    
C95   O7    D    
C56   H63   S    
C10   C15   S    
C36   H36   S    
C59   C66   A    
C48   H26   S    
N12   N32   A    
C80   H53   S    
C47   H25   S    
C53   C70   S    
C58   H44   S    
C81   H54   S    
N21   Ni6   S    
C52   H43   S    
C65   C73   A    
N19   Ni5   S    
C59   N2    A    
C85   H59   S    
C55   O3    S    
H83   O4    S    
C86   H60   S    
N32   Ni5   S    
C54   O2    S    
C34   H34   S    
N6    N28   A    
C61   H48   S    
N7    N31   A    
H81   O2    S    
C57   O4    S    
C84   H58   S    
C20   H33   S    
C7    C87   A    
C59   H46   S    
C92   H74   S    
C39   H17   S    
C62   H49   S    
N15   N18   A    
C67   N25   A    
C67   H64   S    
C94   H85   S    
C60   C70   A    
N13   Ni4   S    
C17   H2    S    
C15   H4    S    
C63   H50   S    
C82   H55   S    
C83   N17   A    
C20   C29   S    
C20   H11   S    
C10   H56   S    
H76   O13   S    
C43   C74   A    
C38   H38   S    
C6    C81   A    
C12   N12   A    
N18   Ni5   S    
C46   H28   S    
N14   Ni2   S    
C32   C46   S    
C35   C48   S    
C53   O16   S    
C15   C35   S    
N23   Ni3   S    
C93   H84   S    
C52   C54   D    
C47   H29   S    
C62   N5    A    
H75   O12   S    
C2    C45   A    
C42   O14   S    
C13   H78   S    
N10   N22   A    
C22   C44   S    
C25   C91   S    
C6    C84   A    
C31   C44   S    
C91   H73   S    
C46   H24   S    
C87   N21   A    
C13   C30   S    
N26   Ni8   S    
C93   O5    D    
N11   N26   A    
C25   H20   S    
C1    H1    S    
C12   H12   S    
C30   C73   S    
N29   Ni1   S    
H77   O14   S    
C14   H5    S    
C39   H39   S    
C29   C74   S    
C49   C55   D    
C23   C69   A    
C77   C95   S    
C61   N4    A    
C87   H61   S    
C90   O9    D    
C4    C50   S    
N24   Ni7   S    
C8    C35   S    
C35   C39   S    
C9    C14   S    
C19   H10   S    
C82   N16   A    
C42   N30   A    
N31   Ni3   S    
C18   H31   S    
C41   N29   A    
C11   C16   S    
C45   H62   S    
C16   H7    S    
N12   Ni2   S    
C88   O1    D    
C56   N24   A    
C65   N8    A    
C44   H22   S    
N22   Ni7   S    
N5    N29   A    
C88   H71   S    
C80   N14   A    
C7    C82   A    
C11   H67   S    
C1    C66   A    
C62   C72   A    
N8    N30   A    
C32   C37   S    
C5    C80   A    
C19   C28   S    
N17   Ni3   S    
H82   O3    S    
C85   N19   A    
C19   C39   S    
C4    C79   A    
C41   C72   A    
C75   N9    A    
C58   C68   A    
C56   C89   A    
H80   O16   S    
N2    Ni5   S    
C63   C71   A    
C60   N3    A    
C22   C88   S    
C64   H51   S    
C36   H14   S    
N16   Ni4   S    
N17   N20   A    
C37   H37   S    
C28   C71   S    
C96   H87   S    
C38   H16   S    
C3    C77   A    
C86   N20   A    
N14   N19   A    
C64   N7    A    
C2    C76   A    
C76   C94   S    
C9    C27   S    
C11   H69   S    
C61   C69   A    
N25   Ni8   S    
C78   N26   A    
C25   C47   S    
C42   C73   A    
C10   H68   S    
C44   H27   S    
C90   H72   S    
C50   C57   D    
N20   Ni6   S    
C49   H40   S    
C18   C27   S    
N3    N27   A    
C24   C90   S    
C81   N15   A    
C4    C67   A    
C21   H13   S    
C16   H88   S    
C95   H86   S    
C83   H57   S    
N3    Ni6   S    
C26   C48   S    
C25   C27   S    
C63   N6    A    
C21   C30   S    
C40   N28   A    
C92   O11   D    
C26   C28   S    
C33   C38   S    
C2    C52   S    
C13   C17   S    
C24   C46   S    
C1    N1    A    
C18   C38   S    
C18   H9    S    
C5    C85   A    
C79   C96   S    
C60   H47   S    
N30   Ni4   S    
N6    Ni7   S    
C51   C89   S    
C23   H23   S    
N1    N2    A    
C54   C69   S    
C13   H70   S    
C75   C93   S    
H79   O15   S    
N7    Ni8   S    
C33   C47   S    
N8    Ni8   S    
C84   N18   A    
C8    C86   A    
C96   O8    D    
C15   H6    S    
C77   N11   A    
C9    H66   S    
C24   C30   S    
C37   H15   S    
C9    H45   S    
C34   N27   A    
C75   C89   A    
C48   H30   S    
C20   C36   S    
C51   H42   S    
N5    Ni7   S    
C22   H18   S    
C65   H52   S    
C21   C37   S    
C11   C29   S    
C24   H19   S    
N13   N25   A    
C21   H35   S    
N9    N24   A    
C17   C32   S    
C64   C74   A    
C31   C36   S    
C51   C53   D    
C5    C31   S    
C3    C78   A    
C26   C92   S    
C34   C70   A    
C27   C72   S    
C78   H65   S    
N4    Ni6   S    
N28   Ni2   S    
C58   N32   A    
