data_mof_unit_16614.cif
_audit_creation_date              2013-03-05T16:31:21-0500
_audit_creation_method            fapswitch 2.2
_symmetry_space_group_name_H-M    P1
_symmetry_Int_Tables_number       1
_space_group_crystal_system       triclinic
_cell_length_a                    9.615667
_cell_length_b                    10.85436
_cell_length_c                    13.364464
_cell_angle_alpha                 90.551951
_cell_angle_beta                  71.164785
_cell_angle_gamma                 90.022621
_cell_volume                      1320.11383338

loop_
_atom_site_label
_atom_site_type_symbol
_atom_site_description
_atom_site_fract_x
_atom_site_fract_y
_atom_site_fract_z
_atom_type_partial_charge
O1    O     O_R   0.381190 0.680360 0.500000 -0.523702
O2    O     O_R   0.618780 0.680320 0.499990 -0.572568
C1    C     C_R   0.497848 0.737165 0.505575 0.847589
O3    O     O_R   0.323230 0.500000 0.650990 -0.521486
O4    O     O_R   0.560820 0.499960 0.650980 -0.616643
C2    C     C_R   0.420477 0.498505 0.700874 0.790240
Cu1   Cu    Cu3+1 0.359330 0.500020 0.500010 1.084881
Cu2   Cu    Cu3+1 0.640670 0.499980 0.499990 1.017928
O5    O     O_R   0.381220 0.319680 0.500010 -0.565450
O6    O     O_R   0.618810 0.319640 0.500000 -0.555429
O7    O     O_R   0.439180 0.500040 0.349020 -0.563184
O8    O     O_R   0.676770 0.500000 0.349010 -0.586344
C3    C     C_R   0.499572 0.262815 0.501049 0.833520
C4    C     C_R   0.579859 0.500030 0.299479 0.864734
C5    C     C_R   0.750103 0.345431 0.038574 -0.061258
H1    H     H_    0.792920 0.347874 0.185354 0.207058
H2    H     H_    0.832511 0.274891 0.006395 0.224043
C6    C     C_R   0.627181 0.481460 0.184717 -0.140617
C7    C     C_R   0.250353 0.577777 0.870676 -0.085826
C8    C     C_R   0.214848 0.602704 0.978106 -0.124192
C9    C     C_R   0.309587 0.566713 0.032016 -0.105434
C10   C     C_R   0.441855 0.503602 0.979033 0.100322
C11   C     C_R   0.464376 0.460876 0.874470 0.041709
C12   C     C_R   0.548060 0.476145 0.029044 -0.090355
C13   C     C_R   0.656544 0.384682 0.983343 0.075581
C14   C     C_R   0.668671 0.332203 0.884338 0.432054
C15   C     C_R   0.574393 0.372139 0.830230 -0.291881
C16   C     C_R   0.549490 0.536491 0.123579 0.269169
C17   C     C_R   0.730737 0.389403 0.140096 -0.284215
C18   C     C_R   0.373901 0.506541 0.817441 -0.072229
H3    H     H_    0.183952 0.618217 0.828633 0.237545
H4    H     H_    0.276855 0.587738 0.115563 0.158446
H5    H     H_    0.116380 0.654584 0.018932 0.178797
H6    H     H_    0.583850 0.328828 0.755074 0.162256
C19   C     C_R   0.393725 0.935305 0.478559 -0.072949
C20   C     C_R   0.497229 0.870709 0.510629 -0.149477
C21   C     C_R   0.608054 0.938454 0.536356 0.412637
C22   C     C_R   0.611048 0.066506 0.528048 -0.084277
H7    H     H_    0.693351 0.116624 0.551035 0.220320
C23   C     C_R   0.501135 0.129721 0.501002 -0.088447
C24   C     C_R   0.395265 0.061880 0.474085 -0.133249
C25   C     C_3   0.230899 0.072409 0.505996 0.053706
C26   C     C_3   0.227977 0.930819 0.510454 0.601948
H8    H     H_    0.192637 0.111003 0.442678 0.138029
C27   C     C_R   0.968507 0.491020 0.407499 0.156524
N1    N     N_R   0.852320 0.499070 0.499340 -0.204347
C28   C     C_R   0.884065 0.519963 0.589725 -0.031020
H9    H     H_    0.796690 0.534950 0.663340 0.173862
C29   C     C_R   0.030264 0.518410 0.590937 0.478754
N2    N     N_R   0.148230 0.499110 0.499340 -0.231840
C30   C     C_R   0.115422 0.492771 0.407362 0.199957
C31   C     C_3   0.161453 0.393190 0.325669 -0.500987
C32   C     C_3   0.002775 0.388936 0.326648 0.116635
H10   H     H_    0.238257 0.427483 0.249938 0.166800
H11   H     H_    0.200305 0.309155 0.355531 0.225904
H12   H     H_    0.989246 0.416516 0.250406 0.101197
N3    N     N_R   0.165441 0.133910 0.608923 0.188372
O9    O     O_R   0.055038 0.208485 0.622572 -0.273673
O10   O     O_R   0.218027 0.117776 0.686291 -0.295604
N4    N     N_R   0.151272 0.882108 0.616064 0.199006
O11   O     O_R   0.008349 0.883726 0.651047 -0.219517
O12   O     O_R   0.222265 0.843880 0.677971 -0.349430
O13   O     O_3   0.177469 0.874590 0.433215 -0.675331
H13   H     H_    0.234378 0.907915 0.362937 0.336518
N5    N     N_R   0.047944 0.533910 0.691784 0.106009
O14   O     O_R   0.002127 0.636828 0.742315 -0.332321
O15   O     O_R   0.047654 0.435659 0.746912 -0.305873
O16   O     O_3   0.773841 0.242562 0.841505 -0.652073
H14   H     H_    0.767741 0.215598 0.771936 0.365967
N6    N     N_R   0.930749 0.272534 0.367542 0.163117
O17   O     O_R   0.933803 0.229890 0.457440 -0.343481
O18   O     O_R   0.872063 0.206233 0.310271 -0.366450
N7    N     N_R   0.498850 0.662417 0.145326 0.105601
O19   O     O_R   0.444850 0.704925 0.241465 -0.362445
O20   O     O_R   0.523559 0.739647 0.067626 -0.304966
O21   O     O_3   0.709251 0.884844 0.575735 -0.640230
H15   H     H_    0.658527 0.818991 0.624839 0.342064

loop_
_geom_bond_atom_site_label_1
_geom_bond_atom_site_label_2
_geom_bond_distance
_ccdc_geom_bond_type
N7    O19   1.300503 A    
C4    C6    1.464078 S    
C7    C8    1.388242 A    
C7    H3    1.073626 S    
C26   O13   1.409000 S    
Cu1   Cu2   2.705185 S    
C28   C29   1.411224 A    
C27   N1    1.369274 A    
Cu1   O7    1.913386 S    
C14   C15   1.400811 A    
C29   N5    1.420293 S    
C20   C21   1.423255 A    
O4    C2    1.298140 A    
O7    C4    1.299971 A    
N3    O10   1.302542 A    
C27   C30   1.412213 A    
N4    O12   1.301614 A    
C24   C25   1.502281 S    
O5    C3    1.298932 A    
C3    C23   1.444723 S    
C19   C20   1.395578 A    
O16   H14   0.991709 S    
N5    O15   1.301514 A    
N6    O17   1.300789 A    
C11   C15   1.407969 A    
C19   C26   1.511904 S    
C31   H11   1.111043 S    
C27   C32   1.500421 S    
C9    C10   1.413533 A    
N7    O20   1.301841 A    
C25   H8    1.111256 S    
O3    Cu1   1.933811 S    
C16   N7    1.446146 S    
C25   N3    1.468869 S    
C31   H10   1.110286 S    
C5    C17   1.388455 A    
C15   H6    1.081711 S    
C9    H4    1.079859 S    
C30   C31   1.490579 S    
C11   C18   1.420991 A    
C6    C16   1.409390 A    
C12   C13   1.422858 A    
O3    C2    1.312197 A    
H1    C17   1.079615 S    
N4    O11   1.300990 A    
O1    C1    1.302526 A    
C21   C22   1.394959 A    
C28   H9    1.078684 S    
Cu2   O8    1.933811 S    
N2    C30   1.365294 A    
C6    C17   1.396946 A    
O21   H15   0.990747 S    
C26   N4    1.468871 S    
C8    H5    1.082698 S    
C23   C24   1.392395 A    
C2    C18   1.477164 S    
C21   O21   1.378212 S    
O8    C4    1.305695 A    
N5    O14   1.300705 A    
C10   C12   1.422415 A    
C25   C26   1.538482 S    
C31   C32   1.522316 S    
C32   H12   1.111867 S    
C5    H2    1.083144 S    
N1    C28   1.355173 A    
O1    Cu1   1.968643 S    
O2    Cu2   1.968842 S    
C12   C16   1.421522 A    
Cu1   N2    2.032796 S    
C32   N6    1.463869 S    
O6    C3    1.297861 A    
O4    Cu2   1.913386 S    
C14   O16   1.383236 S    
O2    C1    1.296969 A    
C13   C14   1.405239 A    
C22   C23   1.403740 A    
N3    O9    1.299344 A    
C22   H7    1.081694 S    
C1    C20   1.450374 S    
C19   C24   1.375630 A    
Cu2   N1    2.032395 S    
C5    C13   1.403863 A    
O13   H13   0.993464 S    
Cu1   O5    1.968842 S    
C8    C9    1.389628 A    
Cu2   O6    1.968643 S    
C29   N2    1.388440 A    
C10   C11   1.416674 A    
N6    O18   1.300052 A    
C7    C18   1.399914 A    
