data_mof_unit_15211.cif
_audit_creation_date              2012-12-10T17:05:13-0500
_audit_creation_method            fapswitch 2.2
_symmetry_space_group_name_H-M    P1
_symmetry_Int_Tables_number       1
_space_group_crystal_system       triclinic
_cell_length_a                    10.745227
_cell_length_b                    10.963697
_cell_length_c                    9.834113
_cell_angle_alpha                 110.59637
_cell_angle_beta                  98.150924
_cell_angle_gamma                 91.37297
_cell_volume                      1070.11125011

loop_
_atom_site_label
_atom_site_type_symbol
_atom_type_description
_atom_site_fract_x
_atom_site_fract_y
_atom_site_fract_z
_atom_type_partial_charge
C1    C     C_R   0.485169 0.254112 0.441854 0.854061
C2    C     C_3   0.877056 0.498755 0.495816 0.075748
C3    C     C_3   0.944048 0.629913 0.607702 -0.469331
C4    C     C_3   0.904865 0.487022 0.341390 -0.464953
C5    C     C_2   0.473243 0.114262 0.412513 -0.357229
C6    C     C_2   0.436410 0.064944 0.509347 0.177016
C7    C     C_2   0.492444 0.884408 0.589671 -0.363447
C8    C     C_2   0.449803 0.926317 0.480548 -0.158339
C9    C     C_2   0.513147 0.511041 0.083099 -0.190061
C10   C     C_2   0.475731 0.514391 0.930046 0.558611
C11   C     C_R   0.259762 0.501971 0.500312 0.811670
C12   C     C_R   0.504946 0.745889 0.558621 0.847515
C13   C     C_R   0.739738 0.500483 0.498833 0.796507
C14   C     C_3   0.074940 0.385957 0.536678 -0.446735
C15   C     C_3   0.931470 0.384343 0.539599 0.008372
C16   C     C_3   0.087174 0.631855 0.606655 -0.476085
C17   C     C_3   0.050043 0.486598 0.335353 0.961127
C18   C     C_3   0.120348 0.501714 0.494908 0.033543
Cu1   Cu    Cu3+1 0.522160 0.521810 0.644910 0.951613
Cu2   Cu    Cu3+1 0.477840 0.478190 0.355090 0.959670
H1    H     H_    0.125143 0.393915 0.646480 0.185400
H2    H     H_    0.859938 0.567312 0.314931 0.138501
H3    H     H_    0.118735 0.715952 0.578122 0.200782
H4    H     H_    0.906215 0.713399 0.579935 0.172916
H5    H     H_    0.431802 0.859275 0.366725 0.164588
H6    H     H_    0.514625 0.951967 0.702891 0.160077
H7    H     H_    0.501293 0.049696 0.311237 0.118793
H8    H     H_    0.596525 0.570421 0.152278 0.132700
H9    H     H_    0.646196 0.581933 0.918968 0.130336
H10   H     H_    0.100546 0.292365 0.458350 0.202723
H11   H     H_    0.365710 0.389528 0.070141 0.232789
H12   H     H_    0.917307 0.401789 0.654866 0.163466
H13   H     H_    0.136808 0.647866 0.718819 0.186247
H14   H     H_    0.926080 0.643760 0.720731 0.184004
H15   H     H_    0.854806 0.396080 0.257620 0.175396
N1    N     N_2   0.444530 0.445420 0.137360 -0.275386
N2    N     N_2   0.555520 0.554510 0.862630 -0.320211
O1    O     O_R   0.511820 0.332340 0.577400 -0.555121
O2    O     O_R   0.474400 0.295500 0.332650 -0.572320
O3    O     O_R   0.336400 0.518400 0.622370 -0.537867
O4    O     O_R   0.298980 0.481560 0.377620 -0.516605
O5    O     O_R   0.525600 0.704500 0.667350 -0.580172
O6    O     O_R   0.488180 0.667660 0.422600 -0.572982
O7    O     O_R   0.701020 0.518440 0.622380 -0.596992
O8    O     O_R   0.663600 0.481600 0.377630 -0.588188
C19   C     C_3   0.381779 0.145469 0.644072 -0.728714
H16   H     H_    0.332000 0.081425 0.688443 0.203980
H17   H     H_    0.458043 0.206301 0.732082 0.241269
H18   H     H_    0.311313 0.208491 0.615084 0.229459
O9    O     O_3   0.352683 0.474036 0.861378 -0.554313
C20   C     C_3   0.274432 0.570271 0.932864 -0.371034
H19   H     H_    0.296187 0.664037 0.917861 0.170494
H20   H     H_    0.281918 0.588058 0.052294 0.178882
H21   H     H_    0.174653 0.536175 0.884754 0.162269
C21   C     C_3   0.865228 0.248473 0.444906 -0.879332
H22   H     H_    0.762586 0.246521 0.448868 0.225990
H23   H     H_    0.879824 0.219637 0.328646 0.257940
H24   H     H_    0.904257 0.174167 0.488474 0.230815
O10   O     O_3   0.105694 0.590604 0.299942 -0.589264
C22   C     C_3   0.025799 0.650257 0.219053 -0.437021
H25   H     H_    0.978080 0.728511 0.294764 0.179020
H26   H     H_    0.956475 0.580123 0.129852 0.148839
H27   H     H_    0.085152 0.698308 0.165895 0.194431
O11   O     O_3   0.076386 0.361582 0.237988 -0.608984
C23   C     C_3   0.051029 0.346054 0.087800 -0.303928
H28   H     H_    0.116061 0.411835 0.061666 0.201215
H29   H     H_    0.950870 0.358634 0.052829 0.130588
H30   H     H_    0.068544 0.244641 0.021802 0.175252

loop_
_geom_bond_atom_site_label_1
_geom_bond_atom_site_label_2
_ccdc_geom_bond_type
C17   C18   S    
C9    N1    D    
C2    C4    S    
C21   H22   S    
C11   C18   S    
C7    C8    D    
C2    C15   S    
Cu1   O1    S    
C16   H13   S    
C16   H3    S    
C4    H2    S    
C9    C10   S    
C14   C18   S    
Cu2   O8    S    
C23   H29   S    
Cu1   O5    S    
C23   H30   S    
O11   C23   S    
C20   H21   S    
C2    C3    S    
C4    H15   S    
O10   C22   S    
C5    H7    S    
C13   O8    A    
C8    H5    S    
C19   H18   S    
C3    H4    S    
C11   O3    A    
C7    H6    S    
C1    O1    A    
C17   O10   S    
C10   N2    D    
Cu2   O4    S    
C4    C17   S    
C14   H1    S    
C16   C18   S    
C14   H10   S    
C11   O4    A    
C12   O6    A    
C19   H17   S    
C21   H23   S    
C17   O11   S    
C6    C19   S    
C5    C6    D    
C1    C5    S    
C7    C12   S    
C22   H27   S    
Cu1   O3    S    
C1    O2    A    
C12   O5    A    
C20   H19   S    
C10   O9    S    
C15   H12   S    
Cu2   O6    S    
Cu1   O7    S    
C22   H26   S    
C23   H28   S    
C19   H16   S    
C21   H24   S    
H9    N2    S    
C2    C13   S    
Cu2   O2    S    
H11   N1    S    
C6    C8    S    
Cu1   N2    S    
C3    H14   S    
O9    C20   S    
C14   C15   S    
C13   O7    A    
C3    C16   S    
Cu1   Cu2   S    
C9    H8    S    
C15   C21   S    
C22   H25   S    
C20   H20   S    
Cu2   N1    S    
