data_mof_unit_32317.cif
_audit_creation_date              2012-10-26T18:53:13-0400
_audit_creation_method            fapswitch 2.2
_symmetry_space_group_name_H-M    P1
_symmetry_Int_Tables_number       1
_space_group_crystal_system       triclinic
_cell_length_a                    14.677519
_cell_length_b                    14.75245
_cell_length_c                    15.858214
_cell_angle_alpha                 76.966086
_cell_angle_beta                  101.761137
_cell_angle_gamma                 114.821188
_cell_volume                      3013.04783343

loop_
_atom_site_label
_atom_site_type_symbol
_atom_type_description
_atom_site_fract_x
_atom_site_fract_y
_atom_site_fract_z
_atom_type_partial_charge
C1    C     C_R   0.879969 0.312175 0.513415 0.549821
C2    C     C_R   0.187460 0.793893 0.485514 -0.002075
C3    C     C_R   0.785223 0.026311 0.554379 0.245404
C4    C     C_R   0.999358 0.500507 0.659450 0.543952
C5    C     C_R   0.850166 0.128569 0.547399 -0.171305
C6    C     C_R   0.705619 0.176045 0.504429 0.211665
C7    C     C_R   0.639402 0.074081 0.526085 -0.013550
C8    C     C_R   0.679711 0.998638 0.544770 0.011979
C9    C     C_R   0.533608 0.044877 0.524995 0.040235
C10   C     C_R   0.467427 0.942436 0.522427 0.019544
C11   C     C_R   0.509843 0.869131 0.538030 -0.159572
C12   C     C_3   0.094806 0.486565 0.067720 -0.233912
C13   C     C_R   0.613914 0.896728 0.551924 -0.120314
C14   C     C_R   0.492557 0.113976 0.530996 -0.109821
C15   C     C_R   0.388956 0.087813 0.520458 -0.155486
C16   C     C_R   0.119640 0.687384 0.486098 0.540004
C17   C     C_R   0.322682 0.990676 0.506740 0.049054
C18   C     C_R   0.361133 0.916757 0.507796 0.032144
C19   C     C_R   0.218028 0.965854 0.494357 -0.135932
C20   C     C_R   0.150663 0.867630 0.484566 -0.140344
C21   C     C_R   0.291722 0.819806 0.493593 -0.131825
C22   C     C_R   0.712199 0.657840 0.343351 -0.190503
C23   C     C_3   0.000516 0.499606 0.083100 0.041600
C24   C     C_R   0.789572 0.622337 0.366329 -0.013508
C25   C     C_R   0.727148 0.534242 0.501726 0.416294
C26   C     C_R   0.633090 0.545508 0.468616 0.010790
C27   C     C_R   0.632971 0.619153 0.394466 0.006104
C28   C     C_R   0.000898 0.499960 0.340536 0.541243
C29   C     C_R   0.539371 0.486351 0.503081 0.012357
C30   C     C_R   0.459235 0.521429 0.483449 0.018915
C31   C     C_R   0.469922 0.607344 0.418755 -0.145014
C32   C     C_R   0.552992 0.651610 0.371760 -0.130317
C33   C     C_R   0.519209 0.387736 0.547477 -0.159277
C34   C     C_3   0.999040 0.600441 0.028483 -0.218848
C35   C     C_R   0.433854 0.334020 0.590189 -0.151219
C36   C     C_R   0.360488 0.373282 0.582169 0.041591
C37   C     C_R   0.369922 0.465725 0.526213 0.003704
C38   C     C_R   0.275137 0.318238 0.626195 -0.161070
C39   C     C_R   0.197727 0.352821 0.612511 0.040592
C40   C     C_3   0.091679 0.485670 0.969723 -0.264203
C41   C     C_R   0.287936 0.496119 0.514464 0.037862
C42   C     C_3   0.900621 0.410868 0.952239 0.184329
C43   C     C_3   0.904696 0.411457 0.051134 -0.172277
C44   C     C_1   0.002589 0.499689 0.251237 -0.041882
C45   C     C_3   0.997902 0.601018 0.930492 -0.194265
C46   C     C_3   0.995750 0.499327 0.916691 0.093869
C47   C     C_3   0.844332 0.935016 0.499138 -0.032418
C48   C     C_3   0.866407 0.839828 0.519278 -0.345994
C49   C     C_3   0.649745 0.246749 0.372374 0.002341
C50   C     C_3   0.609454 0.327358 0.327008 -0.362573
C51   C     C_3   0.722101 0.485522 0.656100 -0.012203
C52   C     C_3   0.725432 0.380628 0.668836 -0.367861
C53   C     C_3   0.728567 0.327478 0.908432 -0.029025
C54   C     C_3   0.630644 0.344662 0.884475 -0.373369
C55   C     C_1   0.002503 0.499691 0.175622 -0.081556
C56   C     C_1   0.995698 0.500140 0.824205 -0.050485
C57   C     C_1   0.997222 0.500694 0.748755 -0.036156
C58   C     C_R   0.811303 0.204060 0.521919 -0.050584
Cu1   Cu    Cu3+1 0.081750 0.475690 0.522550 0.923297
Cu2   Cu    Cu3+1 0.918250 0.524310 0.477450 0.982929
H1    H     H_    0.097645 0.414635 0.106572 0.118456
H2    H     H_    0.464667 0.789046 0.544180 0.107668
H3    H     H_    0.539702 0.187648 0.547942 0.160531
H4    H     H_    0.188331 0.021915 0.494175 0.105074
H5    H     H_    0.554819 0.711812 0.317497 0.105432
H6    H     H_    0.287612 0.563336 0.470691 0.115163
H7    H     H_    0.130248 0.308738 0.644134 0.124235
H8    H     H_    0.424652 0.260770 0.628845 0.101125
H9    H     H_    0.712330 0.712010 0.284446 0.097519
H10   H     H_    0.848501 0.648909 0.324730 0.132734
H11   H     H_    0.412168 0.637558 0.398842 0.089917
H12   H     H_    0.160879 0.547481 0.945063 0.123916
H13   H     H_    0.570437 0.352352 0.549470 0.124018
H14   H     H_    0.267135 0.247522 0.669103 0.089661
H15   H     H_    0.903521 0.338757 0.944123 0.080265
H16   H     H_    0.836215 0.418789 0.063403 0.140529
H17   H     H_    0.066325 0.664728 0.906454 0.101235
H18   H     H_    0.930878 0.614324 0.892332 0.160840
H19   H     H_    0.911151 0.999695 0.473514 0.127800
H20   H     H_    0.777771 0.922847 0.447690 0.120414
H21   H     H_    0.800279 0.773970 0.544258 0.184621
H22   H     H_    0.881499 0.824861 0.459029 0.100843
H23   H     H_    0.164846 0.549453 0.089794 0.124259
H24   H     H_    0.933658 0.849355 0.569073 0.163265
H25   H     H_    0.592361 0.172011 0.357122 0.126896
H26   H     H_    0.721062 0.263620 0.346165 0.128325
H27   H     H_    0.666240 0.403195 0.339146 0.173015
H28   H     H_    0.593636 0.326267 0.255648 0.085294
H29   H     H_    0.538478 0.312819 0.352208 0.155129
H30   H     H_    0.092330 0.412992 0.961469 0.105016
H31   H     H_    0.646365 0.484435 0.654979 0.121514
H32   H     H_    0.763680 0.518068 0.716175 0.181097
H33   H     H_    0.725066 0.359233 0.606166 0.193613
H34   H     H_    0.931014 0.610755 0.037759 0.123114
H35   H     H_    0.794795 0.379168 0.711610 0.147518
H36   H     H_    0.659158 0.322958 0.700353 0.083740
H37   H     H_    0.726424 0.281000 0.974587 0.110132
H38   H     H_    0.732599 0.284559 0.860963 0.127815
H39   H     H_    0.629676 0.391912 0.819370 0.150208
H40   H     H_    0.565113 0.270916 0.883031 0.092964
H41   H     H_    0.623550 0.383670 0.933567 0.151061
H42   H     H_    0.904419 0.338018 0.089083 0.064776
H43   H     H_    0.066728 0.665260 0.050861 0.112291
H44   H     H_    0.642558 0.837434 0.566063 0.161466
H45   H     H_    0.317056 0.762830 0.488217 0.112664
H46   H     H_    0.070206 0.848926 0.478261 0.124330
H47   H     H_    0.360433 0.143745 0.523276 0.110158
H48   H     H_    0.931094 0.148515 0.559599 0.144147
N1    N     N_R   0.795410 0.560790 0.443550 -0.212694
N2    N     N_R   0.204590 0.439170 0.556520 -0.231177
O1    O     O_R   0.977910 0.338120 0.529720 -0.523200
O2    O     O_3   0.667539 0.248336 0.462998 -0.570516
O3    O     O_3   0.772674 0.552543 0.585977 -0.544095
O4    O     O_3   0.811590 0.422082 0.905444 -0.571591
O5    O     O_R   0.839850 0.379180 0.491640 -0.450133
O6    O     O_R   0.069060 0.479460 0.639610 -0.501085
O7    O     O_R   0.931000 0.520530 0.601530 -0.435150
O8    O     O_R   0.160150 0.620820 0.508360 -0.515265
O9    O     O_R   0.022090 0.661880 0.470280 -0.501636
O10   O     O_R   0.069000 0.479470 0.398470 -0.496136
O11   O     O_R   0.930940 0.520540 0.360390 -0.517111
O12   O     O_3   0.825427 0.953214 0.576311 -0.558890

loop_
_geom_bond_atom_site_label_1
_geom_bond_atom_site_label_2
_ccdc_geom_bond_type
Cu1   O10   S    
C18   C21   A    
C6    C58   A    
C54   H41   S    
C19   C20   A    
C47   H19   S    
C11   H2    S    
C24   H10   S    
C7    C8    A    
C53   C54   S    
C56   C57   T    
C40   C46   S    
C12   C23   S    
C42   H15   S    
C51   O3    S    
C5    C58   A    
C52   H35   S    
C36   C37   A    
C25   O3    S    
C30   C31   A    
C29   C33   A    
Cu1   N2    S    
C23   C43   S    
C48   H21   S    
Cu2   O9    S    
C15   C17   A    
C42   C46   S    
C15   H47   S    
Cu2   N1    S    
C51   H31   S    
C42   O4    S    
C39   N2    A    
C31   C32   A    
Cu1   O6    S    
C4    C57   S    
Cu1   O1    S    
C45   H18   S    
C2    C16   S    
C9    C10   A    
C22   H9    S    
C3    O12   S    
C50   H28   S    
C31   H11   S    
Cu1   Cu2   S    
C54   H40   S    
C6    O2    S    
C47   H20   S    
C20   H46   S    
C2    C20   A    
C51   C52   S    
C49   H25   S    
C52   H33   S    
C3    C8    A    
C28   O10   A    
C16   O9    A    
C28   O11   A    
C17   C19   A    
C47   O12   S    
C53   H37   S    
C25   C26   A    
C45   C46   S    
C28   C44   S    
C48   H24   S    
C30   C37   A    
C35   C36   A    
C12   C40   S    
C9    C14   A    
C29   C30   A    
C16   O8    A    
C51   H32   S    
C50   H29   S    
C47   C48   S    
C19   H4    S    
C23   C34   S    
C2    C21   A    
C17   C18   A    
C26   C27   A    
Cu2   O7    S    
C34   C45   S    
C13   H44   S    
C6    C7    A    
C50   H27   S    
C49   O2    S    
C33   H13   S    
Cu1   O8    S    
C22   C27   A    
C22   C24   A    
C54   H39   S    
C42   C43   S    
C53   O4    S    
C38   H14   S    
C43   H16   S    
C7    C9    A    
C40   H12   S    
C27   C32   A    
C39   H7    S    
C49   H26   S    
C4    O6    A    
C24   N1    A    
C34   H34   S    
C3    C5    A    
C23   C55   S    
C41   H6    S    
C25   N1    A    
C53   H38   S    
C34   H43   S    
C41   N2    A    
C36   C38   A    
C43   H42   S    
C1    C58   S    
C1    O1    A    
C12   H1    S    
C11   C13   A    
C44   C55   T    
C38   C39   A    
C35   H8    S    
C10   C18   A    
C14   H3    S    
C33   C35   A    
C48   H22   S    
C52   H36   S    
C37   C41   A    
Cu2   O11   S    
C4    O7    A    
C10   C11   A    
C8    C13   A    
C12   H23   S    
C26   C29   A    
C49   C50   S    
C46   C56   S    
C14   C15   A    
Cu2   O5    S    
C45   H17   S    
C1    O5    A    
C40   H30   S    
C21   H45   S    
C32   H5    S    
C5    H48   S    
