data_mof_unit_21604.cif
_audit_creation_date              2013-03-05T15:49:16-0500
_audit_creation_method            fapswitch 2.2
_symmetry_space_group_name_H-M    P1
_symmetry_Int_Tables_number       1
_space_group_crystal_system       triclinic
_cell_length_a                    20.664248
_cell_length_b                    22.687047
_cell_length_c                    6.944437
_cell_angle_alpha                 89.998915
_cell_angle_beta                  87.278763
_cell_angle_gamma                 89.999172
_cell_volume                      3251.95560536

loop_
_atom_site_label
_atom_site_type_symbol
_atom_site_description
_atom_site_fract_x
_atom_site_fract_y
_atom_site_fract_z
_atom_type_partial_charge
O1    O     O_R   0.387100 0.552640 0.378490 -0.573376
O2    O     O_R   0.612900 0.052640 0.621510 -0.573492
O3    O     O_R   0.249610 0.559600 0.072250 -0.613658
O4    O     O_R   0.750390 0.059600 0.927750 -0.613660
O5    O     O_R   0.249120 0.447360 0.902040 -0.597000
O6    O     O_R   0.750880 0.947360 0.097960 -0.597008
C1    C     C_R   0.226878 0.573222 0.243679 0.936411
C2    C     C_R   0.773121 0.073223 0.756319 0.936399
O7    O     O_R   0.386610 0.559560 0.048860 -0.576274
O8    O     O_R   0.613390 0.059560 0.951140 -0.576295
O9    O     O_R   0.387100 0.447320 0.878470 -0.585174
O10   O     O_R   0.612900 0.947320 0.121530 -0.585066
C3    C     C_R   0.407910 0.574749 0.214424 0.951169
C4    C     C_R   0.592084 0.074746 0.785576 0.951377
O11   O     O_R   0.249120 0.552680 0.402050 -0.611733
O12   O     O_R   0.750880 0.052680 0.597950 -0.611715
O13   O     O_3   0.318110 0.463180 0.223790 -0.255080
O14   O     O_3   0.681890 0.963180 0.776210 -0.255052
V1    V     V_3+5 0.318110 0.506830 0.948930 1.217687
V2    V     V_3+5 0.681890 0.006830 0.051070 1.217688
O15   O     O_R   0.386610 0.440400 0.548840 -0.574477
O16   O     O_R   0.613390 0.940400 0.451160 -0.574555
C5    C     C_R   0.408046 0.425347 0.714426 1.082917
C6    C     C_R   0.591968 0.925336 0.285573 1.082503
O17   O     O_R   0.249610 0.440440 0.572240 -0.580354
O18   O     O_R   0.750390 0.940440 0.427760 -0.580358
C7    C     C_R   0.228241 0.425557 0.743730 0.987292
C8    C     C_R   0.771759 0.925557 0.256272 0.987320
V3    V     V_3+5 0.318110 0.493170 0.448930 1.244022
V4    V     V_3+5 0.681890 0.993170 0.551070 1.244027
O19   O     O_3   0.318110 0.536820 0.723940 -0.282170
O20   O     O_3   0.681890 0.036820 0.276060 -0.282251
C9    C     C_R   0.174511 0.382775 0.757197 -0.271536
C10   C     C_R   0.825489 0.882775 0.242807 -0.271521
C11   C     C_R   0.168495 0.337602 0.618002 0.351527
C12   C     C_R   0.831496 0.837594 0.381982 0.351519
C13   C     C_R   0.111965 0.303402 0.621022 -0.243618
C14   C     C_R   0.888026 0.803392 0.378970 -0.243584
C15   C     C_R   0.062534 0.311825 0.764206 0.129077
C16   C     C_R   0.937465 0.811822 0.235810 0.129095
C17   C     C_R   0.069665 0.355559 0.903803 -0.093189
C18   C     C_R   0.930341 0.855565 0.096232 -0.093201
C19   C     C_R   0.125180 0.390510 0.901003 -0.159553
C20   C     C_R   0.874826 0.890517 0.099027 -0.159624
C21   C     C_R   0.902069 0.181095 0.901244 0.370551
C22   C     C_R   0.097923 0.681091 0.098749 0.370556
C23   C     C_R   0.845555 0.146823 0.904435 -0.289146
C24   C     C_R   0.154440 0.646820 0.095559 -0.289136
C25   C     C_R   0.869744 0.115440 0.575647 -0.139765
C26   C     C_R   0.130254 0.615436 0.424350 -0.139777
C27   C     C_R   0.925954 0.149434 0.570346 -0.091430
C28   C     C_R   0.074041 0.649427 0.429650 -0.091419
C29   C     C_R   0.942136 0.183294 0.729887 0.007852
C30   C     C_R   0.057857 0.683286 0.270107 0.007836
C31   C     C_2   0.002820 0.275830 0.772011 -0.083086
C32   C     C_2   0.997177 0.775826 0.228009 -0.083109
C33   C     C_2   0.001399 0.219667 0.710791 -0.097618
C34   C     C_2   0.998593 0.719659 0.289203 -0.097585
C35   C     C_R   0.829232 0.113501 0.743153 -0.171297
C36   C     C_R   0.170765 0.613499 0.256843 -0.171295
H1    H     H_    0.815415 0.144626 0.036212 0.180986
H2    H     H_    0.184580 0.644625 0.963782 0.180983
H3    H     H_    0.858964 0.089479 0.450233 0.136996
H4    H     H_    0.141035 0.589475 0.549766 0.136999
H5    H     H_    0.043984 0.199633 0.640766 0.131941
H6    H     H_    0.956006 0.699622 0.359201 0.131953
H7    H     H_    0.032035 0.362765 0.015335 0.133288
H8    H     H_    0.967977 0.862776 0.984722 0.133275
H9    H     H_    0.128621 0.424970 0.008063 0.141928
H10   H     H_    0.871390 0.924984 0.991984 0.141914
H11   H     H_    0.959386 0.295089 0.840331 0.143469
H12   H     H_    0.040614 0.795086 0.159714 0.143447
H13   H     H_    0.106992 0.270242 0.510799 0.170164
H14   H     H_    0.892994 0.770225 0.489178 0.170167
H15   H     H_    0.957036 0.149397 0.440530 0.182318
H16   H     H_    0.042960 0.649389 0.559468 0.182318
C37   C     C_R   0.576893 0.360885 0.647392 -0.269690
C38   C     C_R   0.423198 0.860837 0.353481 -0.269761
H17   H     H_    0.665612 0.276718 0.626111 0.147314
H18   H     H_    0.334474 0.776679 0.374916 0.147308
H19   H     H_    0.625797 0.375488 0.609411 0.173432
H20   H     H_    0.374330 0.875454 0.391887 0.173152
C39   C     C_R   0.463243 0.383554 0.713030 -0.296696
C40   C     C_R   0.536798 0.883516 0.287007 -0.296642
C41   C     C_R   0.475935 0.096129 0.841442 -0.057710
C42   C     C_R   0.524049 0.596112 0.158433 -0.058098
C43   C     C_R   0.422196 0.133967 0.857997 0.265419
C44   C     C_R   0.577796 0.633938 0.141852 0.265471
C45   C     C_R   0.430790 0.194285 0.820326 -0.263243
C46   C     C_R   0.569215 0.694260 0.179494 -0.263155
C47   C     C_R   0.492239 0.218334 0.767755 0.089314
C48   C     C_R   0.507778 0.718311 0.232219 0.089344
C49   C     C_R   0.546291 0.178790 0.750421 0.090537
C50   C     C_R   0.453728 0.678773 0.249703 0.090515
C51   C     C_R   0.501905 0.280421 0.733808 0.117709
C52   C     C_R   0.498128 0.780392 0.266275 0.117605
C53   C     C_R   0.565250 0.300798 0.682192 0.115115
C54   C     C_R   0.434810 0.800760 0.318356 0.115182
C55   C     C_R   0.617154 0.261200 0.665434 -0.174732
C56   C     C_R   0.382910 0.761165 0.335272 -0.174653
C57   C     C_R   0.607980 0.201342 0.699151 -0.188984
C58   C     C_R   0.392061 0.701319 0.301296 -0.189076
C59   C     C_R   0.451322 0.323177 0.748622 -0.237904
C60   C     C_R   0.548702 0.823151 0.251152 -0.237733
C61   C     C_R   0.526884 0.402678 0.662470 0.347101
C62   C     C_R   0.473208 0.902613 0.338157 0.347777
C63   C     C_R   0.537607 0.117522 0.787671 -0.233900
C64   C     C_R   0.462392 0.617512 0.212321 -0.233529
H21   H     H_    0.401801 0.311059 0.784528 0.150770
H22   H     H_    0.598201 0.811049 0.214818 0.150761
H23   H     H_    0.470692 0.049510 0.871027 0.148386
H24   H     H_    0.529272 0.549496 0.128786 0.147839
H25   H     H_    0.388130 0.221500 0.835093 0.145172
H26   H     H_    0.611879 0.721468 0.164691 0.145166
H27   H     H_    0.649911 0.172770 0.684867 0.112747
H28   H     H_    0.350133 0.672749 0.315703 0.112822
N1    N     N_R   0.219696 0.324796 0.476621 0.238458
O21   O     O_R   0.206002 0.306841 0.305272 -0.394018
O22   O     O_R   0.279583 0.322884 0.526536 -0.425298
N2    N     N_R   0.780288 0.824781 0.523334 0.238457
O23   O     O_R   0.793972 0.806811 0.694674 -0.393992
O24   O     O_R   0.720403 0.822881 0.473393 -0.425260
N3    N     N_R   0.541805 0.463918 0.625205 0.217982
O25   O     O_R   0.593217 0.478237 0.520054 -0.431927
O26   O     O_R   0.507948 0.505784 0.709228 -0.435653
N4    N     N_R   0.458363 0.963835 0.375796 0.218162
O27   O     O_R   0.407466 0.978116 0.483281 -0.432076
O28   O     O_R   0.491712 0.005690 0.289897 -0.435958
C65   C     C_3   0.354328 0.112888 0.916853 -0.377756
C66   C     C_3   0.347996 0.047545 0.968656 -0.790595
H29   H     H_    0.362074 0.019597 0.842328 0.281917
H30   H     H_    0.378408 0.036720 0.091411 0.290495
H31   H     H_    0.296778 0.037584 0.012406 0.252131
H32   H     H_    0.336333 0.138854 0.044217 0.212675
H33   H     H_    0.321989 0.122297 0.797175 0.212773
C67   C     C_3   0.645654 0.612839 0.082979 -0.377717
C68   C     C_3   0.652006 0.547438 0.031984 -0.790321
H34   H     H_    0.637915 0.519632 0.158651 0.281552
H35   H     H_    0.621609 0.536464 0.909331 0.290527
H36   H     H_    0.703229 0.537442 0.988395 0.252272
H37   H     H_    0.663583 0.638679 0.955262 0.212765
H38   H     H_    0.678038 0.622394 0.202428 0.212753
N5    N     N_R   0.919645 0.210038 0.075573 0.213733
O29   O     O_R   0.874847 0.229607 0.197261 -0.420152
O30   O     O_R   0.979558 0.210140 0.125489 -0.434845
N6    N     N_R   0.080347 0.710035 0.924420 0.213738
O31   O     O_R   0.125143 0.729602 0.802729 -0.420179
O32   O     O_R   0.020432 0.710140 0.874514 -0.434819

loop_
_geom_bond_atom_site_label_1
_geom_bond_atom_site_label_2
_geom_bond_distance
_ccdc_geom_bond_type
V4    O20   2.151255 S    
N4    O27   1.301428 A    
C25   H3    1.083274 S    
O6    C8    1.297879 A    
C26   H4    1.083270 S    
C42   H24   1.081855 S    
O4    C2    1.296270 A    
V1    O19   1.704131 S    
N3    O25   1.301440 A    
C15   C17   1.399846 A    
C7    C9    1.474349 S    
C68   H35   1.110332 S    
O9    V1    2.007076 S    
C5    C39   1.482912 S    
H17   C55   1.084104 S    
C11   C13   1.401686 A    
C27   H15   1.081779 S    
C65   C66   1.529612 S    
O3    C1    1.296269 A    
N1    O22   1.301628 A    
C2    C35   1.475733 S    
V2    O20   1.704156 S    
C42   C44   1.403949 A    
N3    O26   1.301289 A    
O12   V4    2.001333 S    
N5    O29   1.301489 A    
C48   C52   1.440456 A    
O13   V3    1.705111 S    
C61   N3    1.443866 S    
O7    V1    2.002415 S    
C21   C23   1.402299 A    
O7    C3    1.297104 A    
C67   H38   1.111580 S    
C9    C11   1.418301 A    
C65   H33   1.111579 S    
C24   H2    1.083378 S    
C34   H6    1.084803 S    
C15   C31   1.478531 S    
C51   C59   1.426125 A    
C16   C32   1.478519 S    
C52   C54   1.418223 A    
C38   C54   1.403275 A    
C26   C28   1.393293 A    
O3    V1    2.013753 S    
O14   V4    1.705086 S    
C45   C47   1.413990 A    
N6    O32   1.301423 A    
C24   C36   1.405549 A    
C16   C18   1.399841 A    
C8    C10   1.474328 S    
C2    O12   1.298457 A    
O5    C7    1.297890 A    
H18   C56   1.084103 S    
C18   H8    1.083551 S    
C17   C19   1.393927 A    
O10   V2    2.007090 S    
C18   C20   1.393920 A    
C3    C64   1.485731 S    
C12   N2    1.438463 S    
O1    V3    2.006451 S    
C53   C55   1.399679 A    
C28   C30   1.401642 A    
O11   V3    2.001298 S    
C22   C24   1.402293 A    
C40   C62   1.412892 A    
C41   C43   1.403975 A    
O15   C5    1.297477 A    
O17   V3    2.013191 S    
C68   H36   1.110409 S    
C45   H25   1.077142 S    
C23   C35   1.405556 A    
C9    C19   1.403766 A    
C10   C20   1.403762 A    
C44   C67   1.519257 S    
C17   H7    1.083551 S    
O8    C4    1.297116 A    
C49   C57   1.403738 A    
C29   C33   1.477459 S    
C1    O11   1.298449 A    
C14   H14   1.081627 S    
C25   C27   1.393294 A    
O15   V3    2.002866 S    
C39   C61   1.413211 A    
C27   C29   1.401650 A    
C66   H30   1.110318 S    
C67   H37   1.111906 S    
C47   C49   1.433200 A    
C38   H20   1.084094 S    
C46   C48   1.414009 A    
C37   H19   1.084092 S    
C50   C64   1.423614 A    
C22   C30   1.417914 A    
C56   C58   1.389464 A    
C37   C53   1.403238 A    
C39   C59   1.411484 A    
C4    C63   1.485805 S    
C55   C57   1.389479 A    
C44   C46   1.402924 A    
O18   V4    2.013186 S    
C54   C56   1.399639 A    
C31   C33   1.344002 D    
C28   H16   1.081781 S    
C57   H27   1.082894 S    
O16   C6    1.297460 A    
C60   H22   1.077382 S    
C11   N1    1.438461 S    
C66   H31   1.110398 S    
O1    C3    1.299262 A    
C12   C14   1.401683 A    
C1    C36   1.475721 S    
N2    O23   1.301487 A    
N2    O24   1.301632 A    
N6    O31   1.301474 A    
C30   C34   1.477442 S    
N5    O30   1.301423 A    
C13   H13   1.081630 S    
N4    O28   1.301304 A    
O16   V4    2.002905 S    
C32   H12   1.086791 S    
C42   C64   1.397783 A    
O10   C6    1.298763 A    
C33   H5    1.084808 S    
C67   C68   1.529634 S    
C41   H23   1.081867 S    
C23   H1    1.083379 S    
C51   C53   1.418130 A    
O5    V1    2.000734 S    
O17   C7    1.295110 A    
O6    V2    2.000698 S    
C68   H34   1.110028 S    
C62   N4    1.443607 S    
O18   C8    1.295106 A    
C37   C61   1.402707 A    
C25   C35   1.401208 A    
O2    V4    2.006437 S    
C59   H21   1.077366 S    
C26   C36   1.401209 A    
C43   C65   1.519270 S    
C52   C60   1.426160 A    
C66   H29   1.109974 S    
C6    C40   1.482878 S    
V3    O19   2.151288 S    
C41   C63   1.397831 A    
N1    O21   1.301498 A    
C49   C63   1.423663 A    
C14   C16   1.404341 A    
C48   C50   1.433153 A    
C22   N6    1.438904 S    
O8    V2    2.002377 S    
C40   C60   1.411459 A    
O9    C5    1.298769 A    
O13   V1    2.150330 S    
C10   C12   1.418292 A    
C32   C34   1.343996 D    
C38   C62   1.402536 A    
O14   V2    2.150364 S    
C20   H10   1.083537 S    
C46   H26   1.077148 S    
O2    C4    1.299290 A    
C58   H28   1.082860 S    
C21   C29   1.417915 A    
C65   H32   1.111925 S    
O4    V2    2.013758 S    
C50   C58   1.403746 A    
C47   C51   1.440510 A    
C13   C15   1.404340 A    
C21   N5    1.438900 S    
C43   C45   1.402912 A    
C19   H9    1.083539 S    
C31   H11   1.086794 S    
