data_mof_unit_58278.cif
_audit_creation_date              2012-12-11T16:21:49-0500
_audit_creation_method            fapswitch 2.2
_symmetry_space_group_name_H-M    P1
_symmetry_Int_Tables_number       1
_space_group_crystal_system       triclinic
_cell_length_a                    13.472183
_cell_length_b                    14.01632
_cell_length_c                    30.053439
_cell_angle_alpha                 97.971272
_cell_angle_beta                  90.721078
_cell_angle_gamma                 118.581792
_cell_volume                      4914.89966703

loop_
_atom_site_label
_atom_site_type_symbol
_atom_type_description
_atom_site_fract_x
_atom_site_fract_y
_atom_site_fract_z
_atom_type_partial_charge
C1    C     C_R   0.723898 0.100362 0.568548 0.555367
C2    C     C_1   0.342327 0.650211 0.760717 0.165805
C3    C     C_3   0.149489 0.880151 0.005989 -0.346997
C4    C     C_3   0.070063 0.652162 0.655112 0.037774
C5    C     C_3   0.971159 0.621878 0.684144 -0.341906
C6    C     C_3   0.089142 0.910194 0.388699 -0.007436
C7    C     C_3   0.032068 0.806389 0.409906 -0.330030
C8    C     C_3   0.597359 0.366229 0.398529 0.034235
C9    C     C_3   0.687957 0.446376 0.435832 -0.360906
C10   C     C_3   0.897093 0.974373 0.094241 0.031416
C11   C     C_3   0.896617 0.891962 0.055462 -0.303846
C12   C     C_3   0.953111 0.036785 0.293653 -0.038013
C13   C     C_1   0.343618 0.655257 0.721240 0.170921
C14   C     C_3   0.961380 0.961601 0.253972 -0.349345
C15   C     C_3   0.549041 0.663467 0.559682 0.011248
C16   C     C_3   0.660962 0.701822 0.538498 -0.343855
C17   C     C_3   0.524026 0.586475 0.672920 0.027168
C18   C     C_3   0.640774 0.594854 0.671331 -0.332058
C19   C     C_R   0.384092 0.787832 0.550773 0.566465
C20   C     C_R   0.296069 0.593905 0.895474 -0.057477
C21   C     C_3   0.218801 0.143435 0.721592 -0.214528
C22   C     C_3   0.217930 0.061755 0.752126 -0.152794
C23   C     C_1   0.290663 0.197313 0.876155 0.034939
C24   C     C_1   0.365829 0.134634 0.614258 0.039555
C25   C     C_3   0.298872 0.242476 0.758287 -0.132719
C26   C     C_3   0.298501 0.160719 0.787798 -0.032675
C27   C     C_R   0.344103 0.664522 0.674400 0.027205
C28   C     C_3   0.402870 0.243654 0.737011 0.281216
C29   C     C_3   0.323842 0.146141 0.700667 0.018726
C30   C     C_3   0.402370 0.163125 0.766966 0.344521
C31   C     C_R   0.398074 0.118488 0.569841 0.549283
C32   C     C_3   0.323131 0.065154 0.730666 0.280778
C33   C     C_1   0.292747 0.176046 0.836316 0.017774
C34   C     C_1   0.343770 0.141206 0.652859 0.051571
C35   C     C_3   0.937186 0.278411 0.733381 0.166485
C36   C     C_3   0.842670 0.268082 0.764124 0.302669
C37   C     C_1   0.900010 0.205285 0.877061 -0.001193
C38   C     C_R   0.250201 0.662267 0.652228 0.280741
C39   C     C_1   0.784472 0.138860 0.612308 0.047449
C40   C     C_3   0.957655 0.198102 0.757964 -0.144909
C41   C     C_3   0.861627 0.187690 0.788363 -0.035790
C42   C     C_3   0.866212 0.099800 0.724512 0.223450
C43   C     C_R   0.720161 0.095140 0.442878 0.548533
C44   C     C_3   0.847500 0.179198 0.699878 0.030256
C45   C     C_3   0.770903 0.087575 0.755077 -0.096506
C46   C     C_3   0.753026 0.169158 0.730683 0.240724
C47   C     C_1   0.876468 0.195485 0.837317 0.001437
C48   C     C_1   0.822206 0.162632 0.651102 0.075203
C49   C     C_R   0.262090 0.693140 0.608947 -0.182249
C50   C     C_3   0.255138 0.587693 0.257636 -0.155461
C51   C     C_3   0.252119 0.668504 0.227808 -0.051849
C52   C     C_1   0.311293 0.608393 0.111207 0.028032
C53   C     C_1   0.365124 0.735371 0.378228 0.040578
C54   C     C_3   0.345740 0.576105 0.229389 -0.120358
C55   C     C_R   0.381728 0.783944 0.424459 0.547738
C56   C     C_3   0.343318 0.658105 0.200397 -0.041313
C57   C     C_3   0.440219 0.675745 0.261088 0.268361
C58   C     C_3   0.350908 0.686050 0.289110 0.062712
C59   C     C_3   0.439750 0.757430 0.231569 -0.087851
C60   C     C_R   0.248289 0.653002 0.829457 0.235768
C61   C     C_3   0.348365 0.766160 0.259663 0.247009
C62   C     C_1   0.331007 0.636626 0.151303 -0.013744
C63   C     C_1   0.356780 0.707446 0.338175 0.045396
C64   C     C_R   0.351216 0.132318 0.400959 0.036503
C65   C     C_R   0.409201 0.235621 0.386110 0.212660
C66   C     C_R   0.383143 0.244517 0.342041 -0.107731
C67   C     C_R   0.395049 0.114185 0.442807 0.582752
C68   C     C_R   0.304855 0.151705 0.312480 -0.052762
C69   C     C_R   0.241239 0.052359 0.327740 -0.087008
C70   C     C_R   0.260915 0.042144 0.372211 0.233533
C71   C     C_R   0.224822 0.623567 0.872476 0.262268
C72   C     C_R   0.244234 0.085366 0.145223 0.213206
C73   C     C_R   0.246268 0.103361 0.100393 0.252312
C74   C     C_R   0.397099 0.291822 0.124142 -0.143081
C75   C     C_R   0.397796 0.272893 0.168312 0.197853
C76   C     C_R   0.317266 0.171670 0.179322 0.016017
C77   C     C_1   0.306685 0.159902 0.225833 0.120484
C78   C     C_1   0.302131 0.154996 0.265287 0.055831
C79   C     C_R   0.364919 0.727280 0.589149 -0.059854
C80   C     C_R   0.316823 0.210150 0.090499 -0.064912
C81   C     C_R   0.780755 0.132612 0.403030 -0.059861
C82   C     C_R   0.389005 0.594279 0.874534 -0.149036
C83   C     C_R   0.800025 0.059667 0.372081 -0.106593
C84   C     C_R   0.831448 0.084103 0.329282 0.232025
C85   C     C_R   0.840027 0.180858 0.316955 0.046494
C86   C     C_R   0.831446 0.258780 0.349027 0.204420
C87   C     C_R   0.802930 0.234784 0.392056 -0.126722
C88   C     C_R   0.887798 0.305818 0.168757 0.272354
C89   C     C_R   0.907503 0.312874 0.123257 0.199102
C90   C     C_R   0.857931 0.118042 0.109231 0.216643
C91   C     C_R   0.453365 0.717005 0.610026 0.272381
C92   C     C_R   0.833757 0.112124 0.154309 -0.166120
C93   C     C_R   0.407128 0.616005 0.830639 0.189015
C94   C     C_R   0.855255 0.206332 0.184199 -0.042818
C95   C     C_1   0.849338 0.200367 0.231229 0.077496
C96   C     C_1   0.846264 0.193600 0.270517 0.107406
C97   C     C_R   0.900175 0.220342 0.093639 -0.004904
C98   C     C_R   0.283040 0.232342 0.922023 0.544736
C99   C     C_R   0.264724 0.545620 0.937357 0.554438
C100  C     C_R   0.945575 0.222163 0.922521 0.542081
C101  C     C_R   0.293519 0.243307 0.048886 0.552914
C102  C     C_R   0.275919 0.559149 0.065091 0.550594
C103  C     C_R   0.443064 0.687006 0.652883 0.242256
C104  C     C_R   0.334819 0.642491 0.807673 0.019716
C105  C     C_R   0.954228 0.233672 0.050304 0.586490
C106  C     C_3   0.033216 0.523978 0.873925 0.042227
C107  C     C_3   0.934751 0.512871 0.901046 -0.331000
C108  C     C_3   0.829429 0.426073 0.762247 0.004101
C109  C     C_3   0.788433 0.500648 0.787452 -0.302354
C110  C     C_3   0.888695 0.948928 0.730264 0.011093
C111  C     C_3   0.917758 0.865551 0.704541 -0.365495
C112  C     C_3   0.614046 0.686574 0.249909 0.008715
C113  C     C_3   0.706219 0.668588 0.270538 -0.304441
C114  C     C_3   0.231323 0.974602 0.041972 0.011637
Cl1   Cl    Cl    0.336629 0.945842 0.712091 -0.494708
Cl2   Cl    Cl    0.943578 0.440115 0.105581 -0.485358
Cl3   Cl    Cl    0.908062 0.422989 0.207077 -0.465949
Cl4   Cl    Cl    0.847310 0.383216 0.335253 -0.597832
Cl5   Cl    Cl    0.518527 0.604813 0.804706 -0.603564
Cl6   Cl    Cl    0.519673 0.177840 0.801234 -0.449604
Cl7   Cl    Cl    0.524844 0.363997 0.726731 -0.613749
Cl8   Cl    Cl    0.050803 0.398321 0.717541 -0.620203
Cl9   Cl    Cl    0.620683 0.148925 0.707555 -0.480113
Cl10  Cl    Cl    0.166509 0.700252 0.802508 -0.552756
Cl11  Cl    Cl    0.349943 0.892308 0.279981 -0.567252
Cl12  Cl    Cl    0.146665 0.955441 0.158197 -0.605690
Cl13  Cl    Cl    0.495497 0.380817 0.209807 -0.627607
Cr1   Cr    Cr6+3 0.583430 0.162610 0.509470 1.034330
Cr2   Cr    Cr6+3 0.584210 0.916680 0.495400 1.042995
Cr3   Cr    Cr6+3 0.332380 0.920740 0.495100 1.046367
Cr4   Cr    Cr6+3 0.086810 0.177030 0.983130 1.048836
Cr5   Cr    Cr6+3 0.337180 0.419300 0.994610 1.038841
Cr6   Cr    Cr6+3 0.084840 0.422330 0.995830 1.078699
H1    H     H_    0.143354 0.135458 0.702536 0.172326
H2    H     H_    0.453854 0.373433 0.117032 0.186115
H3    H     H_    0.428500 0.322458 0.330020 0.154788
H4    H     H_    0.790998 0.293067 0.415877 0.144709
H5    H     H_    0.783851 0.980540 0.379841 0.158103
H6    H     H_    0.194427 0.697205 0.591186 0.123615
H7    H     H_    0.801403 0.034457 0.166602 0.127199
H8    H     H_    0.444069 0.571045 0.891174 0.187545
H9    H     H_    0.142891 0.986763 0.759541 0.150578
H10   H     H_    0.044255 0.450523 0.875369 0.137983
H11   H     H_    0.010613 0.523663 0.838281 0.200030
H12   H     H_    0.289227 0.315938 0.770298 0.172828
H13   H     H_    0.920317 0.584134 0.899784 0.156602
H14   H     H_    0.856438 0.435786 0.886794 0.153000
H15   H     H_    0.953638 0.509967 0.936750 0.176125
H16   H     H_    0.774853 0.383794 0.729947 0.201965
H17   H     H_    0.918291 0.479209 0.755325 0.190822
H18   H     H_    0.849294 0.554190 0.816957 0.144324
H19   H     H_    0.781687 0.553828 0.764745 0.136029
H20   H     H_    0.704106 0.450495 0.799480 0.257338
H21   H     H_    0.806179 0.903135 0.744571 0.170288
H22   H     H_    0.956640 0.999704 0.758195 0.118834
H23   H     H_    0.702919 0.010204 0.764334 0.171632
H24   H     H_    0.001008 0.908597 0.690570 0.157234
H25   H     H_    0.922092 0.811842 0.727530 0.102501
H26   H     H_    0.851888 0.813908 0.676239 0.172965
H27   H     H_    0.654845 0.770354 0.240547 0.148147
H28   H     H_    0.572662 0.623769 0.218955 0.172581
H29   H     H_    0.667939 0.586253 0.281058 0.218227
H30   H     H_    0.767268 0.673055 0.245350 0.142035
H31   H     H_    0.752431 0.732929 0.300481 0.155254
H32   H     H_    0.271006 0.941855 0.063954 0.170311
H33   H     H_    0.298362 0.037689 0.024720 0.128206
H34   H     H_    0.041261 0.208633 0.769795 0.129192
H35   H     H_    0.108073 0.910112 0.983591 0.154824
H36   H     H_    0.196331 0.845760 0.985342 0.142773
H37   H     H_    0.083391 0.813884 0.022064 0.170384
H38   H     H_    0.035244 0.599482 0.621447 0.113016
H39   H     H_    0.106760 0.741001 0.652463 0.155837
H40   H     H_    0.001777 0.666574 0.719230 0.208335
H41   H     H_    0.909726 0.643961 0.670049 0.064893
H42   H     H_    0.927027 0.531776 0.684127 0.168913
H43   H     H_    0.043904 0.892570 0.354849 0.123302
H44   H     H_    0.080775 0.976643 0.410561 0.108271
H45   H     H_    0.174744 0.666667 0.213475 0.207014
H46   H     H_    0.074399 0.821461 0.444072 0.154786
H47   H     H_    0.941270 0.782210 0.412859 0.087465
H48   H     H_    0.037594 0.737968 0.388612 0.193987
H49   H     H_    0.603512 0.410934 0.369998 0.161128
H50   H     H_    0.615671 0.297443 0.387263 0.170692
H51   H     H_    0.685114 0.404491 0.464947 0.160329
H52   H     H_    0.773216 0.477472 0.423141 0.136942
H53   H     H_    0.673671 0.517322 0.447087 0.144201
H54   H     H_    0.856858 0.928656 0.122129 0.129509
H55   H     H_    0.987138 0.036742 0.105618 0.181076
H56   H     H_    0.179809 0.518891 0.268739 0.168800
H57   H     H_    0.939610 0.934909 0.027312 0.183344
H58   H     H_    0.942045 0.850306 0.067160 0.164482
H59   H     H_    0.807970 0.828807 0.043138 0.148705
H60   H     H_    0.991763 0.028571 0.324868 0.117971
H61   H     H_    0.002861 0.123077 0.287173 0.129083
H62   H     H_    0.918930 0.964926 0.222740 0.165846
H63   H     H_    0.051768 0.988618 0.248854 0.149756
H64   H     H_    0.920368 0.875588 0.260595 0.157702
H65   H     H_    0.480336 0.637636 0.532329 0.118812
H66   H     H_    0.532890 0.590957 0.575581 0.115513
H67   H     H_    0.514398 0.826945 0.220497 0.133676
H68   H     H_    0.731248 0.727287 0.564927 0.152547
H69   H     H_    0.656704 0.633669 0.513410 0.081900
H70   H     H_    0.678305 0.772709 0.521259 0.169843
H71   H     H_    0.469407 0.527498 0.642612 0.096020
H72   H     H_    0.485847 0.551702 0.703328 0.219038
H73   H     H_    0.693223 0.641642 0.703612 0.177093
H74   H     H_    0.632749 0.511490 0.665672 0.162513
H75   H     H_    0.683765 0.637367 0.643105 0.140526
H76   H     H_    0.346150 0.498277 0.216251 0.164132
H77   H     H_    0.181436 0.980352 0.304330 0.167538
O1    O     O_R   0.493980 0.188910 0.559650 -0.497900
O2    O     O_R   0.170560 0.527890 0.952050 -0.478469
O3    O     O_R   0.987620 0.318470 0.945550 -0.513219
O4    O     O_R   0.678640 0.153520 0.554450 -0.493235
O5    O     O_R   0.976400 0.159270 0.031530 -0.472860
O6    O     O_R   0.194000 0.188570 0.028560 -0.461941
O7    O     O_R   0.365260 0.335720 0.039020 -0.515274
O8    O     O_R   0.330440 0.515580 0.044910 -0.504261
O9    O     O_R   0.177310 0.536200 0.050190 -0.455946
O10   O     O_R   0.993870 0.326170 0.036530 -0.450932
O11   O     O_3   0.169610 0.339550 0.991190 -0.271672
O12   O     O_R   0.480180 0.824400 0.444640 -0.505081
O13   O     O_R   0.698130 0.004030 0.549500 -0.485534
O14   O     O_R   0.481060 0.827210 0.535360 -0.454975
O15   O     O_R   0.309260 0.811560 0.537660 -0.525775
O16   O     O_R   0.341620 0.023400 0.546290 -0.502594
O17   O     O_R   0.493030 0.185890 0.461780 -0.485837
O18   O     O_R   0.677760 0.150720 0.463730 -0.510041
O19   O     O_R   0.697180 0.001010 0.451640 -0.520349
O20   O     O_3   0.132081 0.623457 0.891863 -0.516662
O21   O     O_3   0.825229 0.350551 0.789540 -0.537095
O22   O     O_3   0.880555 0.014259 0.700280 -0.530333
O23   O     O_R   0.308310 0.808540 0.439800 -0.482458
O24   O     O_3   0.535735 0.677687 0.281915 -0.539039
O25   O     O_3   0.171144 0.019000 0.067363 -0.537935
O26   O     O_3   0.152232 0.632033 0.675173 -0.471536
O27   O     O_3   0.204245 0.939325 0.385032 -0.502123
O28   O     O_3   0.489333 0.327665 0.415184 -0.552366
O29   O     O_3   0.834972 0.023488 0.079360 -0.533583
O30   O     O_3   0.837700 0.005691 0.297805 -0.562465
O31   O     O_3   0.556697 0.750557 0.592057 -0.484511
O32   O     O_3   0.536510 0.693254 0.675592 -0.519231
O33   O     O_R   0.340740 0.020600 0.455570 -0.457074
O34   O     O_3   0.500010 0.000010 0.499990 -0.252992
O35   O     O_R   0.969650 0.150960 0.933380 -0.500947
O36   O     O_R   0.187740 0.180870 0.937580 -0.505519
O37   O     O_R   0.358510 0.327410 0.940870 -0.495389
O38   O     O_R   0.324180 0.507870 0.953930 -0.510235

loop_
_geom_bond_atom_site_label_1
_geom_bond_atom_site_label_2
_ccdc_geom_bond_type
C66   C68   A    
C14   H62   S    
C15   O31   S    
C42   O22   S    
C105  O5    A    
C4    H38   S    
C20   C82   A    
C4    O26   S    
C5    H41   S    
C95   C96   T    
C51   C61   S    
C72   C76   A    
C57   O24   S    
Cr1   O17   S    
C106  H10   S    
C88   Cl3   S    
C38   C49   A    
C77   C78   T    
C25   C28   S    
C112  H28   S    
C52   C102  S    
Cr6   O9    S    
C22   C32   S    
C90   O29   S    
C3    H36   S    
C28   C29   S    
C109  H18   S    
C111  H25   S    
C87   H4    S    
C98   O36   A    
C29   C32   S    
C9    H52   S    
C69   C70   A    
Cr2   O14   S    
Cr1   O1    S    
C38   O26   S    
C85   C96   S    
C112  O24   S    
C57   C59   S    
C106  C107  S    
C27   C38   A    
C15   C16   S    
C108  O21   S    
Cr2   O19   S    
C103  O32   S    
C15   H66   S    
C108  C109  S    
C18   H75   S    
Cr5   O7    S    
C12   H60   S    
C102  O8    A    
C27   C103  A    
C2    C13   T    
C50   H56   S    
C111  H26   S    
C110  C111  S    
C40   H34   S    
C21   C25   S    
C110  H22   S    
Cr4   O35   S    
C113  H29   S    
Cr3   O34   S    
C73   C80   A    
C54   H76   S    
C91   O31   S    
Cr3   O15   S    
C68   C69   A    
C23   C33   T    
C10   H54   S    
C10   H55   S    
Cr6   O11   S    
C20   C71   A    
C36   C46   S    
C100  O35   A    
C70   O27   S    
C64   C70   A    
C37   C47   T    
C51   H45   S    
C109  H20   S    
C90   C97   A    
C79   C91   A    
Cr2   O13   S    
C97   C105  S    
C88   C89   A    
C58   C61   S    
C40   C42   S    
C89   Cl2   S    
C10   O29   S    
C82   C93   A    
C74   C80   A    
C21   C22   S    
C74   H2    S    
C5    H42   S    
C36   C41   S    
C84   O30   S    
C5    H40   S    
C55   O23   A    
C82   H8    S    
C16   H69   S    
C93   C104  A    
C112  C113  S    
C81   C83   A    
C44   C46   S    
C3    H35   S    
C114  H33   S    
C6    C7    S    
C54   C56   S    
C99   O2    A    
C53   C55   S    
C68   C78   S    
C6    O27   S    
C88   C94   A    
C100  O3    A    
C59   C61   S    
Cr6   O10   S    
C74   C75   A    
C7    H48   S    
Cr4   O5    S    
Cr5   O11   S    
C50   C58   S    
C64   C67   S    
C109  H19   S    
C84   C85   A    
Cr4   O11   S    
C9    H53   S    
C107  H13   S    
C67   O33   A    
C86   C87   A    
C8    C9    S    
C12   O30   S    
C60   C71   A    
C50   C51   S    
C25   C26   S    
C45   C46   S    
C21   C29   S    
C29   C34   S    
C24   C34   T    
C106  O20   S    
C72   Cl12  S    
C18   H74   S    
C35   C36   S    
C17   H71   S    
C75   C76   A    
C110  H21   S    
Cr4   O36   S    
C101  O7    A    
C113  H30   S    
C107  H14   S    
Cr3   O33   S    
C26   C33   S    
C90   C92   A    
C83   C84   A    
C67   O17   A    
C59   H67   S    
Cr1   O18   S    
C105  O10   A    
C11   H59   S    
C22   H9    S    
C92   C94   A    
C17   C18   S    
C41   C47   S    
C7    H46   S    
C94   C95   S    
C86   Cl4   S    
C45   H23   S    
C50   C54   S    
C76   C77   S    
C19   C79   S    
C35   C44   S    
C85   C86   A    
C81   C87   A    
C110  O22   S    
C102  O9    A    
C55   O12   A    
C108  H17   S    
C8    H50   S    
C40   C41   S    
C12   C14   S    
C2    C104  S    
C26   C30   S    
C49   H6    S    
C6    H44   S    
C3    H37   S    
Cr1   O34   S    
C56   C62   S    
C46   Cl9   S    
C60   Cl10  S    
C16   H68   S    
C16   H70   S    
C21   H1    S    
C43   O18   A    
C114  H32   S    
C8    H49   S    
C58   C63   S    
C15   H65   S    
C14   H63   S    
Cr2   O12   S    
C4    H39   S    
Cr5   O8    S    
Cr4   O6    S    
C28   Cl7   S    
C12   H61   S    
C35   Cl8   S    
Cr5   O38   S    
C19   O14   A    
C51   C56   S    
C91   C103  A    
C72   C73   A    
C3    C114  S    
C17   O32   S    
C61   Cl11  S    
C43   O19   A    
Cr5   O37   S    
C106  H11   S    
C114  O25   S    
Cr2   O34   S    
C8    O28   S    
C93   Cl5   S    
Cr3   O23   S    
C56   C59   S    
C1    O13   A    
C80   C101  S    
C18   H73   S    
C11   H57   S    
Cr6   O3    S    
C64   C65   A    
C17   H72   S    
C35   C40   S    
C19   O15   A    
C24   C31   S    
C98   O37   A    
C9    H51   S    
C52   C62   T    
C54   C57   S    
C113  H31   S    
C30   C32   S    
C107  H15   S    
C53   C63   T    
C42   C44   S    
C57   C58   S    
C20   C99   S    
C30   Cl6   S    
C36   O21   S    
C43   C81   S    
C28   C30   S    
C6    H43   S    
C71   O20   S    
C7    H47   S    
C66   H3    S    
C11   H58   S    
C37   C100  S    
C32   Cl1   S    
C111  H24   S    
C14   H64   S    
C65   O28   S    
C73   O25   S    
C10   C11   S    
C1    C39   S    
C108  H16   S    
C49   C79   A    
C4    C5    S    
C23   C98   S    
C31   O1    A    
C112  H27   S    
Cr3   O16   S    
C65   C66   A    
C22   C26   S    
C31   O16   A    
C89   C97   A    
C1    O4    A    
Cr6   O2    S    
C41   C45   S    
C13   C27   S    
C25   H12   S    
C69   H77   S    
C101  O6    A    
C99   O38   A    
C60   C104  A    
C42   C45   S    
C83   H5    S    
C44   C48   S    
Cr1   O4    S    
C39   C48   T    
C75   Cl13  S    
C92   H7    S    
