data_mof_unit_14044.cif
_audit_creation_date              2012-12-10T19:45:39-0500
_audit_creation_method            fapswitch 2.2
_symmetry_space_group_name_H-M    P1
_symmetry_Int_Tables_number       1
_space_group_crystal_system       triclinic
_cell_length_a                    10.812543
_cell_length_b                    14.665839
_cell_length_c                    14.685117
_cell_angle_alpha                 65.210873
_cell_angle_beta                  103.559648
_cell_angle_gamma                 102.910977
_cell_volume                      2034.42890897

loop_
_atom_site_label
_atom_site_type_symbol
_atom_type_description
_atom_site_fract_x
_atom_site_fract_y
_atom_site_fract_z
_atom_type_partial_charge
C1    C     C_R   0.476848 0.119635 0.312124 0.792377
C2    C     C_R   0.521038 0.880300 0.687879 0.793026
C3    C     C_R   0.870581 0.002205 0.494603 -0.080129
C4    C     C_R   0.129406 0.999394 0.503811 -0.079368
C5    C     C_R   0.906388 0.956316 0.438922 -0.000620
C6    C     C_R   0.093631 0.046703 0.558212 -0.000730
C7    C     C_R   0.455152 0.187009 0.204485 -0.052808
C8    C     C_R   0.526166 0.812674 0.795431 -0.054284
C9    C     C_R   0.385656 0.215250 0.026994 -0.199118
C10   C     C_R   0.552789 0.784191 0.972922 -0.201566
C11   C     C_R   0.408176 0.148763 0.128189 -0.205743
C12   C     C_R   0.554507 0.850660 0.872050 -0.208980
C13   C     C_R   0.477786 0.291777 0.178797 -0.254944
C14   C     C_R   0.497500 0.707978 0.820690 -0.251088
C15   C     C_R   0.450227 0.360221 0.078106 0.090156
C16   C     C_R   0.490581 0.639548 0.921170 0.088572
C17   C     C_R   0.406929 0.320479 0.001353 0.171512
C18   C     C_R   0.521265 0.679190 0.998077 0.167048
C19   C     C_R   0.468393 0.466912 0.051644 0.064463
C20   C     C_R   0.457331 0.532972 0.947363 0.064783
C21   C     C_R   0.411577 0.490296 0.872991 -0.218932
C22   C     C_R   0.495119 0.509612 0.125891 -0.219352
C23   C     C_R   0.262817 0.999178 0.502344 0.795677
C24   C     C_R   0.737143 0.001189 0.497226 0.795008
C25   C     C_R   0.385756 0.386039 0.899900 -0.230741
C26   C     C_R   0.520402 0.613771 0.099225 -0.226615
C27   C     C_R   0.717017 0.284898 0.669484 0.333720
C28   C     C_R   0.277134 0.713029 0.333720 0.343946
C29   C     C_R   0.678434 0.201463 0.640826 -0.039362
C30   C     C_R   0.313140 0.794712 0.365866 -0.056363
C31   C     C_R   0.521038 0.286354 0.507546 0.010208
C32   C     C_R   0.484976 0.716890 0.487183 0.012363
C33   C     C_R   0.551057 0.372481 0.533728 -0.084451
C34   C     C_R   0.452735 0.629982 0.462428 -0.089287
C35   C     C_R   0.651024 0.369982 0.616600 0.064647
C36   C     C_R   0.348182 0.630358 0.383088 0.068421
C37   C     C_R   0.484405 0.459512 0.482052 0.100635
C38   C     C_R   0.520145 0.543354 0.513463 0.098544
C39   C     C_R   0.620702 0.537060 0.595951 -0.264636
C40   C     C_R   0.382184 0.464993 0.400898 -0.275994
C41   C     C_R   0.684161 0.452563 0.646023 -0.163559
C42   C     C_R   0.315562 0.547848 0.353386 -0.163791
C43   C     C_R   0.354125 0.080915 0.769552 -0.112989
C44   C     C_R   0.640139 0.930262 0.227565 -0.124676
C45   C     C_R   0.265110 0.035206 0.709695 -0.098634
C46   C     C_R   0.732234 0.973179 0.288221 -0.094823
C47   C     C_R   0.187288 0.094148 0.622992 0.117303
C48   C     C_R   0.812533 0.912290 0.371358 0.123935
C49   C     C_R   0.198311 0.198878 0.598250 -0.158602
C50   C     C_R   0.802063 0.808759 0.390733 -0.162048
C51   C     C_R   0.287349 0.244156 0.658412 -0.143179
C52   C     C_R   0.710227 0.766314 0.329536 -0.133861
C53   C     C_R   0.365687 0.185331 0.743658 -0.128960
C54   C     C_R   0.628505 0.826809 0.248699 -0.126108
C55   C     C_R   0.964176 0.047673 0.552464 -0.241934
C56   C     C_R   0.035830 0.954516 0.445417 -0.235853
Cu1   Cu    Cu3+1 0.466270 0.918260 0.475690 0.938204
Cu2   Cu    Cu3+1 0.533730 0.081740 0.524310 0.939427
H1    H     H_    0.434906 0.220594 0.789883 0.131691
H2    H     H_    0.555788 0.793475 0.202727 0.111691
H3    H     H_    0.351689 0.184401 0.968769 0.129297
H4    H     H_    0.576120 0.814946 0.031256 0.129855
H5    H     H_    0.390896 0.535322 0.792941 0.144021
H6    H     H_    0.493721 0.464648 0.205570 0.142795
H7    H     H_    0.760257 0.452408 0.708968 0.187785
H8    H     H_    0.237445 0.546718 0.292095 0.191830
H9    H     H_    0.565409 0.725027 0.543562 0.137417
H10   H     H_    0.446402 0.281177 0.446351 0.136299
H11   H     H_    0.260476 0.858490 0.333491 0.134750
H12   H     H_    0.722623 0.133242 0.682792 0.133299
H13   H     H_    0.652352 0.595950 0.625218 0.136104
H14   H     H_    0.349633 0.405690 0.372248 0.136020
H15   H     H_    0.413984 0.035410 0.836162 0.116794
H16   H     H_    0.577328 0.977080 0.164498 0.118124
H17   H     H_    0.257266 0.954262 0.730396 0.107283
H18   H     H_    0.739647 0.053309 0.271562 0.105329
H19   H     H_    0.138842 0.245445 0.531942 0.130032
H20   H     H_    0.863373 0.760707 0.454197 0.129206
H21   H     H_    0.295996 0.324930 0.638733 0.139239
H22   H     H_    0.701272 0.686245 0.345573 0.137832
H23   H     H_    0.936453 0.081973 0.595971 0.150709
H24   H     H_    0.063701 0.920615 0.401685 0.151134
H25   H     H_    0.350662 0.356574 0.840601 0.135469
H26   H     H_    0.540975 0.643125 0.158559 0.140447
H27   H     H_    0.483358 0.681404 0.760482 0.150903
H28   H     H_    0.520054 0.318444 0.238749 0.151517
H29   H     H_    0.578217 0.931414 0.854126 0.147977
H30   H     H_    0.389170 0.067806 0.146579 0.142747
N1    N     N_R   0.584450 0.204570 0.560790 -0.194952
N2    N     N_R   0.415550 0.795430 0.439210 -0.193445
O1    O     O_R   0.455540 0.022090 0.338120 -0.584379
O2    O     O_R   0.544460 0.977910 0.661880 -0.585575
O3    O     O_R   0.512510 0.160150 0.379180 -0.590450
O4    O     O_R   0.487490 0.839850 0.620820 -0.588203
O5    O     O_R   0.291160 0.930970 0.479480 -0.589207
O6    O     O_R   0.708840 0.069030 0.520520 -0.587521
O7    O     O_R   0.348130 0.069020 0.520540 -0.567773
O8    O     O_R   0.651870 0.930980 0.479460 -0.570764
O9    O     O_3   0.808232 0.280897 0.754998 -0.624970
C57   C     C_3   0.923197 0.250196 0.754126 0.046057
H31   H     H_    0.003836 0.310094 0.761236 0.165534
H32   H     H_    0.927117 0.242155 0.682564 0.118554
C58   C     C_3   0.945532 0.151240 0.845901 -0.340006
H33   H     H_    0.954075 0.163685 0.916902 0.234178
H34   H     H_    0.862457 0.091442 0.843916 0.208366
C59   C     C_3   0.067580 0.114604 0.847318 -0.916821
H35   H     H_    0.057486 0.095690 0.780018 0.265043
H36   H     H_    0.084730 0.045528 0.916884 0.251651
H37   H     H_    0.151563 0.174186 0.846938 0.257102
O10   O     O_3   0.168053 0.705193 0.262610 -0.626934
C60   C     C_3   0.134854 0.799145 0.187376 0.043492
H38   H     H_    0.104840 0.789456 0.113878 0.169120
H39   H     H_    0.216794 0.862201 0.174776 0.111237
C61   C     C_3   0.019655 0.825733 0.210876 -0.327650
H40   H     H_    0.935811 0.766067 0.210249 0.230880
H41   H     H_    0.041588 0.827746 0.287735 0.205706
C62   C     C_3   0.983489 0.928116 0.133075 -0.928809
H42   H     H_    0.065691 0.989222 0.132512 0.255964
H43   H     H_    0.900925 0.945355 0.153055 0.270412
H44   H     H_    0.955175 0.926222 0.056079 0.256718

loop_
_geom_bond_atom_site_label_1
_geom_bond_atom_site_label_2
_ccdc_geom_bond_type
C43   H15   S    
C27   C29   A    
C5    C56   A    
C36   C42   A    
C60   H38   S    
C18   C26   A    
C6    C55   A    
C30   N2    A    
C46   H18   S    
C61   H40   S    
C53   H1    S    
C39   C41   A    
C54   H2    S    
C15   C19   A    
C27   O9    S    
C23   O5    A    
C24   O8    A    
Cu2   O3    S    
C37   C40   A    
C24   O6    A    
C38   C39   A    
C59   H35   S    
Cu2   O6    S    
O10   C60   S    
C3    C55   A    
C43   C53   A    
C32   N2    A    
C60   H39   S    
C19   C20   A    
C44   C46   A    
C49   C51   A    
C13   H28   S    
C50   C52   A    
C31   C33   A    
C14   C16   A    
C55   H23   S    
C40   H14   S    
C16   C20   A    
C40   C42   A    
C1    O1    A    
C1    C7    S    
C4    C56   A    
C3    C24   S    
C10   H4    S    
Cu2   O7    S    
C50   H20   S    
C29   N1    A    
C52   C54   A    
C45   C47   A    
C31   H10   S    
C2    O2    A    
C5    C48   S    
C46   C48   A    
Cu1   N2    S    
C2    O4    A    
C19   C22   A    
C4    C6    A    
C6    C47   S    
C62   H44   S    
C4    C23   S    
C41   H7    S    
C27   C35   A    
C57   C58   S    
C33   C37   A    
C51   C53   A    
C32   C34   A    
C58   C59   S    
C7    C11   A    
C37   C38   A    
C9    C11   A    
O9    C57   S    
C11   H30   S    
C8    C12   A    
C57   H32   S    
C58   H34   S    
C16   C18   A    
C44   H16   S    
C48   C50   A    
C43   C45   A    
C10   C12   A    
C32   H9    S    
C9    C17   A    
C23   O7    A    
Cu1   O4    S    
C13   C15   A    
Cu1   O5    S    
C9    H3    S    
C30   H11   S    
C42   H8    S    
C29   H12   S    
C15   C17   A    
C21   C25   A    
C8    C14   A    
Cu1   O1    S    
C12   H29   S    
C34   C38   A    
C2    C8    S    
C14   H27   S    
C3    C5    A    
C61   H41   S    
C56   H24   S    
C31   N1    A    
C47   C49   A    
C45   H17   S    
C28   O10   S    
C62   H43   S    
C17   C25   A    
C62   H42   S    
C26   H26   S    
Cu1   Cu2   S    
C59   H36   S    
C10   C18   A    
Cu1   O8    S    
C28   C30   A    
C57   H31   S    
C33   C35   A    
C49   H19   S    
C60   C61   S    
C34   C36   A    
C35   C41   A    
Cu2   N1    S    
C51   H21   S    
C21   H5    S    
C61   C62   S    
C22   H6    S    
C44   C54   A    
C7    C13   A    
C20   C21   A    
C28   C36   A    
C1    O3    A    
C22   C26   A    
C58   H33   S    
C25   H25   S    
C39   H13   S    
C52   H22   S    
Cu2   O2    S    
C59   H37   S    
