data_mof_unit_63482.cif
_audit_creation_date              2012-12-10T19:28:27-0500
_audit_creation_method            fapswitch 2.2
_symmetry_space_group_name_H-M    P1
_symmetry_Int_Tables_number       1
_space_group_crystal_system       triclinic
_cell_length_a                    17.726741
_cell_length_b                    16.47786
_cell_length_c                    15.907594
_cell_angle_alpha                 90.004353
_cell_angle_beta                  90.893088
_cell_angle_gamma                 90.000426
_cell_volume                      4646.02394486

loop_
_atom_site_label
_atom_site_type_symbol
_atom_type_description
_atom_site_fract_x
_atom_site_fract_y
_atom_site_fract_z
_atom_type_partial_charge
C1    C     C_R   0.355230 0.500000 0.499998 0.829460
C2    C     C_3   0.582783 0.508953 0.951994 -0.384323
C3    C     C_3   0.584101 0.509108 0.049950 0.475854
C4    C     C_1   0.500446 0.500036 0.824914 -0.061145
C5    C     C_1   0.500521 0.500047 0.175154 0.034269
C6    C     C_1   0.500027 0.500000 0.250532 -0.074227
C7    C     C_R   0.846354 0.573570 0.500128 -0.141772
C8    C     C_R   0.846354 0.426433 0.500145 -0.142094
C9    C     C_R   0.767712 0.573671 0.500172 -0.175906
C10   C     C_R   0.767713 0.426331 0.500189 -0.176966
C11   C     C_R   0.727697 0.500001 0.500165 -0.033350
C12   C     C_R   0.885565 0.500002 0.500097 0.142903
C13   C     C_1   0.966147 0.500002 0.500034 -0.048121
C14   C     C_R   0.499840 0.499998 0.339970 0.878583
C15   C     C_1   0.033796 0.500002 0.499996 -0.046399
C16   C     C_R   0.153593 0.573564 0.500055 -0.147585
C17   C     C_R   0.153590 0.426438 0.500041 -0.147804
C18   C     C_R   0.232231 0.573660 0.500133 -0.162044
C19   C     C_R   0.232229 0.426341 0.500120 -0.161920
C20   C     C_R   0.272262 0.500000 0.500056 -0.045696
C21   C     C_R   0.114379 0.500001 0.499985 0.138264
C22   C     C_R   0.552262 0.825176 0.559620 -0.270802
C23   C     C_R   0.552260 0.174833 0.559623 -0.271500
C24   C     C_R   0.548244 0.739590 0.555067 0.030751
C25   C     C_R   0.548243 0.260420 0.555069 0.030135
C26   C     C_R   0.454516 0.747687 0.448058 0.449706
C27   C     C_R   0.454513 0.252304 0.448062 0.448437
C28   C     C_R   0.457197 0.833275 0.451103 -0.267332
C29   C     C_R   0.457194 0.166717 0.451108 -0.268413
C30   C     C_R   0.506271 0.873273 0.507114 0.095106
C31   C     C_R   0.506269 0.126728 0.507117 0.095410
C32   C     C_R   0.644745 0.500000 0.500114 0.788545
C33   C     C_1   0.508620 0.962752 0.509792 -0.010005
C34   C     C_1   0.508620 0.037249 0.509794 -0.010350
C35   C     C_R   0.500096 0.500003 0.660046 0.820176
C36   C     C_3   0.452320 0.571114 0.048841 -0.407259
C37   C     C_3   0.466474 0.420058 0.049076 -0.408548
C38   C     C_3   0.465759 0.419208 0.951177 -0.038708
C39   C     C_3   0.451482 0.571810 0.950940 -0.040238
C40   C     C_1   0.500258 0.500015 0.749509 -0.183924
C41   C     C_3   0.501579 0.500160 0.083046 0.124720
C42   C     C_3   0.500774 0.500073 0.917206 0.221984
Cu1   Cu    Cu3+1 0.499980 0.580420 0.500000 0.989997
Cu2   Cu    Cu3+1 0.499980 0.419580 0.500000 0.988399
H1    H     H_    0.392208 0.561479 0.929116 0.159104
H2    H     H_    0.405754 0.416638 0.929359 0.159218
H3    H     H_    0.261554 0.631304 0.500340 0.181835
H4    H     H_    0.261550 0.368696 0.500316 0.182059
H5    H     H_    0.591115 0.853429 0.603929 0.149305
H6    H     H_    0.591112 0.146588 0.603934 0.149030
H7    H     H_    0.584302 0.703783 0.596094 0.137296
H8    H     H_    0.584300 0.296232 0.596098 0.136916
H9    H     H_    0.420812 0.868417 0.409600 0.170928
H10   H     H_    0.420807 0.131568 0.409607 0.170911
H11   H     H_    0.393441 0.564215 0.071196 0.168653
H12   H     H_    0.407507 0.414166 0.071447 0.169710
H13   H     H_    0.497469 0.366926 0.075439 0.231307
H14   H     H_    0.472818 0.629830 0.075050 0.232567
H15   H     H_    0.608646 0.565234 0.927131 0.189562
H16   H     H_    0.618549 0.459335 0.927309 0.189656
H17   H     H_    0.876544 0.630754 0.500115 0.138016
H18   H     H_    0.876544 0.369249 0.500145 0.137796
H19   H     H_    0.738351 0.631311 0.500204 0.156093
H20   H     H_    0.738351 0.368691 0.500235 0.155661
H21   H     H_    0.123408 0.630751 0.500097 0.141290
H22   H     H_    0.123404 0.369252 0.500072 0.141228
N1    N     N_R   0.499970 0.701220 0.499980 -0.189187
N2    N     N_R   0.499970 0.298780 0.499980 -0.188740
O1    O     O_R   0.391240 0.567930 0.499990 -0.559585
O2    O     O_R   0.391240 0.432070 0.499990 -0.558987
O3    O     O_R   0.499990 0.567940 0.379430 -0.538797
O4    O     O_R   0.499990 0.432060 0.379430 -0.541522
O5    O     O_R   0.608730 0.567880 0.500000 -0.591078
O6    O     O_R   0.608730 0.432120 0.500000 -0.591609
O7    O     O_R   0.499980 0.567880 0.620560 -0.587664
O8    O     O_R   0.499980 0.432120 0.620560 -0.587756
Br1   Br    Br    0.384876 0.700565 0.368896 -0.513765
Br2   Br    Br    0.384868 0.299415 0.368907 -0.517794
C43   C     C_3   0.503114 0.341314 0.917708 -0.825894
H23   H     H_    0.471718 0.287405 0.940285 0.240684
H24   H     H_    0.501541 0.339791 0.847963 0.237449
H25   H     H_    0.562446 0.335735 0.940049 0.266992
C44   C     C_3   0.473679 0.656151 0.917244 -0.824401
H26   H     H_    0.432918 0.702249 0.939647 0.240821
H27   H     H_    0.530778 0.674332 0.939582 0.267002
H28   H     H_    0.471892 0.657312 0.847495 0.237923
Br3   Br    Br    0.631653 0.609133 0.091000 -0.487242
Br4   Br    Br    0.649264 0.421320 0.091308 -0.491258

loop_
_geom_bond_atom_site_label_1
_geom_bond_atom_site_label_2
_ccdc_geom_bond_type
Cu1   O5    S    
C16   C21   A    
C27   C29   A    
C14   O3    A    
C19   C20   A    
C27   Br2   S    
C18   H3    S    
C35   O7    A    
C17   H22   S    
C26   N1    A    
C38   C42   S    
C36   H14   S    
C32   O6    A    
C5    C6    T    
C2    H16   S    
C38   C43   S    
Cu2   O8    S    
C7    H17   S    
C27   N2    A    
C19   H4    S    
C24   N1    A    
Cu2   O4    S    
C4    C40   T    
Cu2   O2    S    
C39   H1    S    
C24   H7    S    
Cu1   O1    S    
C37   H12   S    
C36   C41   S    
C25   N2    A    
C39   C42   S    
Cu1   O7    S    
C7    C12   A    
C35   O8    A    
C26   Br1   S    
C3    Br3   S    
C32   O5    A    
C43   H24   S    
C2    H15   S    
C23   H6    S    
C17   C21   A    
C23   C31   A    
Cu1   Cu2   S    
Cu1   N1    S    
C37   C38   S    
C6    C14   S    
C44   H26   S    
C8    C12   A    
C33   C34   T    
C31   C34   S    
Cu2   O6    S    
C9    C11   A    
C22   H5    S    
C8    C10   A    
C44   H27   S    
C11   C32   S    
C13   C15   T    
C22   C24   A    
Cu2   N2    S    
C7    C9    A    
C5    C41   S    
C3    C41   S    
C1    C20   S    
Cu1   O3    S    
C22   C30   A    
C30   C33   S    
C3    Br4   S    
C9    H19   S    
C14   O4    A    
C36   C39   S    
C10   H20   S    
C43   H25   S    
C28   H9    S    
C26   C28   A    
C1    O2    A    
C28   C30   A    
C2    C3    S    
C25   H8    S    
C39   C44   S    
C29   C31   A    
C36   H11   S    
C4    C42   S    
C2    C42   S    
C17   C19   A    
C35   C40   S    
C18   C20   A    
C23   C25   A    
C37   C41   S    
C1    O1    A    
C38   H2    S    
C10   C11   A    
C43   H23   S    
C15   C21   S    
C44   H28   S    
C12   C13   S    
C16   C18   A    
C29   H10   S    
C16   H21   S    
C37   H13   S    
C8    H18   S    
