data_mof_unit_59634.cif
_audit_creation_date              2012-12-11T16:51:03-0500
_audit_creation_method            fapswitch 2.2
_symmetry_space_group_name_H-M    P1
_symmetry_Int_Tables_number       1
_space_group_crystal_system       triclinic
_cell_length_a                    24.463631
_cell_length_b                    17.193661
_cell_length_c                    15.530599
_cell_angle_alpha                 89.997723
_cell_angle_beta                  129.451883
_cell_angle_gamma                 90.004144
_cell_volume                      5044.10284744

loop_
_atom_site_label
_atom_site_type_symbol
_atom_type_description
_atom_site_fract_x
_atom_site_fract_y
_atom_site_fract_z
_atom_type_partial_charge
C1    C     C_R   0.846772 0.861368 0.235186 -0.095772
C2    C     C_R   0.153222 0.861351 0.764818 -0.095662
C3    C     C_R   0.346787 0.361347 0.235230 -0.095758
C4    C     C_R   0.653227 0.361366 0.764857 -0.095703
C5    C     C_R   0.911135 0.143472 0.592469 -0.057103
C6    C     C_R   0.088891 0.143431 0.407482 -0.056731
C7    C     C_R   0.411147 0.643487 0.592462 -0.056612
C8    C     C_R   0.588818 0.643525 0.407540 -0.057081
C9    C     C_R   0.861918 0.187769 0.498616 0.095884
C10   C     C_R   0.138080 0.187783 0.501283 0.095705
C11   C     C_R   0.361935 0.687785 0.498605 0.095758
C12   C     C_R   0.638015 0.687822 0.501407 0.095916
C13   C     C_R   0.852146 0.126579 0.134560 0.137918
C14   C     C_R   0.147832 0.126672 0.865394 0.138048
C15   C     C_R   0.352145 0.626564 0.134547 0.137878
C16   C     C_R   0.647824 0.626685 0.865376 0.137898
C17   C     C_R   0.790686 0.810413 0.604773 0.216155
C18   C     C_R   0.209395 0.810699 0.395060 0.215993
C19   C     C_R   0.290221 0.311692 0.605251 0.216239
C20   C     C_R   0.709403 0.310760 0.395021 0.216048
C21   C     C_R   0.766423 0.853236 0.510561 0.011430
C22   C     C_R   0.233604 0.853378 0.489358 0.011434
C23   C     C_R   0.266232 0.353734 0.510576 0.011293
C24   C     C_R   0.733612 0.353423 0.489343 0.011390
C25   C     C_R   0.693211 0.859601 0.423025 -0.222406
C26   C     C_R   0.306772 0.859583 0.577017 -0.222254
C27   C     C_R   0.193087 0.359452 0.422386 -0.222428
C28   C     C_R   0.806777 0.359589 0.577038 -0.222386
C29   C     C_R   0.146232 0.312024 0.422224 0.210041
C30   C     C_R   0.853581 0.312151 0.577130 0.210370
C31   C     C_R   0.646378 0.812239 0.423001 0.210384
C32   C     C_R   0.353583 0.812166 0.577094 0.210340
C33   C     C_R   0.174453 0.257624 0.509762 -0.051571
C34   C     C_R   0.825302 0.257394 0.489982 -0.052202
C35   C     C_R   0.674674 0.757383 0.510046 -0.051992
C36   C     C_R   0.325308 0.757398 0.489966 -0.052073
C37   C     C_R   0.245330 0.264674 0.605104 0.146089
C38   C     C_R   0.754243 0.263805 0.395008 0.146447
C39   C     C_R   0.745823 0.763578 0.604864 0.146136
C40   C     C_R   0.254241 0.763775 0.395025 0.146455
C41   C     C_3   0.801230 0.701324 0.669646 -0.490937
C42   C     C_3   0.198712 0.701632 0.329922 -0.490455
C43   C     C_3   0.301183 0.203104 0.671720 -0.491898
C44   C     C_3   0.698681 0.201668 0.329878 -0.490335
C45   C     C_R   0.113539 0.901739 0.405838 0.147186
C46   C     C_R   0.886448 0.901694 0.594131 0.147221
C47   C     C_R   0.613542 0.401761 0.405835 0.147189
C48   C     C_R   0.386433 0.401884 0.594174 0.146883
C49   C     C_3   0.850531 0.753360 0.669172 -0.444637
C50   C     C_3   0.149440 0.753765 0.330258 -0.444902
C51   C     C_3   0.350552 0.255329 0.671679 -0.443537
C52   C     C_3   0.649416 0.253842 0.330166 -0.444888
C53   C     C_2   0.152009 0.751660 0.872208 0.097933
C54   C     C_2   0.848035 0.751605 0.127948 0.098076
C55   C     C_2   0.652016 0.251701 0.872279 0.097954
C56   C     C_2   0.348031 0.251621 0.127941 0.098037
C57   C     C_2   0.186567 0.696005 0.861952 0.163688
C58   C     C_2   0.813365 0.696021 0.138143 0.163669
C59   C     C_2   0.686559 0.196040 0.862001 0.163741
C60   C     C_2   0.313388 0.195995 0.138170 0.163694
C61   C     C_2   0.804317 0.153351 0.018425 -0.153322
C62   C     C_2   0.195636 0.153553 0.981465 -0.153746
C63   C     C_2   0.304321 0.653330 0.018408 -0.153409
C64   C     C_2   0.695624 0.653574 0.981439 -0.153795
C65   C     C_2   0.734183 0.143741 0.955583 -0.101166
C66   C     C_2   0.265727 0.143712 0.044551 -0.101378
C67   C     C_2   0.234188 0.643711 0.955545 -0.101090
C68   C     C_2   0.765713 0.643733 0.044532 -0.101331
C69   C     C_R   0.188137 0.895665 0.590757 -0.127975
C70   C     C_R   0.811857 0.895644 0.409205 -0.128055
C71   C     C_R   0.688140 0.395678 0.590753 -0.128048
C72   C     C_R   0.311855 0.395693 0.409268 -0.127639
C73   C     C_R   0.060715 0.860165 0.763262 -0.050285
C74   C     C_R   0.939298 0.860154 0.236790 -0.050272
C75   C     C_R   0.560719 0.360207 0.763316 -0.050234
C76   C     C_R   0.439303 0.360148 0.236805 -0.050229
C77   C     C_R   0.878596 0.819805 0.201003 0.087669
C78   C     C_R   0.121415 0.819814 0.799059 0.087786
C79   C     C_R   0.378611 0.319789 0.201044 0.087735
C80   C     C_R   0.621422 0.319851 0.799127 0.087818
C81   C     C_R   0.181257 0.881847 0.496702 0.033269
C82   C     C_R   0.818743 0.881789 0.503232 0.033182
C83   C     C_R   0.681263 0.381878 0.496695 0.033202
C84   C     C_R   0.318712 0.381941 0.503321 0.033541
C85   C     C_R   0.840111 0.144483 0.406913 -0.130652
C86   C     C_R   0.159873 0.144518 0.593032 -0.130861
C87   C     C_R   0.340122 0.644489 0.406907 -0.130621
C88   C     C_R   0.659862 0.644505 0.593107 -0.130627
C89   C     C_R   0.922983 0.107406 0.197214 -0.086722
C90   C     C_R   0.076995 0.107480 0.802738 -0.086711
C91   C     C_R   0.422984 0.607398 0.197210 -0.086899
C92   C     C_R   0.576991 0.607487 0.802730 -0.086659
C93   C     C_R   0.167412 0.106916 0.802272 -0.113235
C94   C     C_R   0.832593 0.106903 0.197751 -0.112881
C95   C     C_R   0.667408 0.606923 0.802264 -0.113001
C96   C     C_R   0.332591 0.606892 0.197738 -0.112777
H1    H     H_    0.787830 0.646842 0.621193 0.210846
H2    H     H_    0.211938 0.647102 0.378279 0.210774
H3    H     H_    0.288697 0.148238 0.624431 0.210814
H4    H     H_    0.711879 0.147143 0.378259 0.210700
H5    H     H_    0.865399 0.729383 0.620012 0.209236
H6    H     H_    0.134335 0.729791 0.379084 0.209156
H7    H     H_    0.366464 0.231016 0.624074 0.208595
H8    H     H_    0.634264 0.229889 0.378944 0.209131
H9    H     H_    0.826112 0.188439 0.988451 0.166234
H10   H     H_    0.173886 0.188899 0.011203 0.166250
H11   H     H_    0.326118 0.688423 0.988447 0.166139
H12   H     H_    0.673871 0.688926 0.011165 0.166259
H13   H     H_    0.801935 0.161247 0.320677 0.129081
H14   H     H_    0.197912 0.161364 0.679249 0.129024
H15   H     H_    0.301942 0.661245 0.320669 0.129078
H16   H     H_    0.698086 0.661233 0.679355 0.129067
H17   H     H_    0.952237 0.104722 0.166706 0.133288
H18   H     H_    0.047724 0.104846 0.833216 0.133168
H19   H     H_    0.452244 0.604714 0.166713 0.133175
H20   H     H_    0.547721 0.604856 0.833209 0.133352
H21   H     H_    0.936922 0.156952 0.678375 0.137826
H22   H     H_    0.063093 0.156841 0.321563 0.137989
H23   H     H_    0.436934 0.656978 0.678365 0.137914
H24   H     H_    0.563009 0.657050 0.321636 0.137779
N1    N     N_R   0.888400 0.921830 0.294620 -0.052036
N2    N     N_R   0.111600 0.921830 0.705380 -0.052043
N3    N     N_R   0.388400 0.421830 0.294620 -0.052063
N4    N     N_R   0.611600 0.421830 0.705380 -0.052045
N5    N     N_R   0.079940 0.922160 0.443410 -0.062025
N6    N     N_R   0.920060 0.922160 0.556590 -0.062019
N7    N     N_R   0.579940 0.422160 0.443410 -0.061997
N8    N     N_R   0.420060 0.422160 0.556590 -0.061875
N9    N     N_R   0.125650 0.922400 0.556620 -0.052285
N10   N     N_R   0.874350 0.922400 0.443380 -0.052280
N11   N     N_R   0.625650 0.422400 0.556620 -0.052273
N12   N     N_R   0.374350 0.422400 0.443380 -0.052289
N13   N     N_R   0.054230 0.922730 0.705400 -0.049212
N14   N     N_R   0.945770 0.922730 0.294600 -0.049220
N15   N     N_R   0.554230 0.422730 0.705400 -0.049162
N16   N     N_R   0.445770 0.422730 0.294600 -0.049201
N17   N     N_R   0.873790 0.077030 0.443380 -0.051404
N18   N     N_R   0.126210 0.077030 0.556620 -0.051307
N19   N     N_R   0.373790 0.577030 0.443380 -0.051402
N20   N     N_R   0.626210 0.577030 0.556620 -0.051417
N21   N     N_R   0.945200 0.076700 0.294600 -0.046220
N22   N     N_R   0.054800 0.076700 0.705400 -0.046203
N23   N     N_R   0.445200 0.576700 0.294600 -0.046152
N24   N     N_R   0.554800 0.576700 0.705400 -0.046145
N25   N     N_R   0.111030 0.077600 0.705380 -0.050254
N26   N     N_R   0.888970 0.077600 0.294620 -0.050264
N27   N     N_R   0.611030 0.577600 0.705380 -0.050251
N28   N     N_R   0.388970 0.577600 0.294620 -0.050259
N29   N     N_R   0.919490 0.077280 0.556590 -0.045069
N30   N     N_R   0.080510 0.077280 0.443410 -0.045059
N31   N     N_R   0.419490 0.577280 0.556590 -0.044938
N32   N     N_R   0.580510 0.577280 0.443410 -0.045022
Ni1   Ni    Ni4+2 0.882160 0.999430 0.370180 0.222275
Ni2   Ni    Ni4+2 0.117840 0.999430 0.629820 0.222380
Ni3   Ni    Ni4+2 0.382160 0.499430 0.370180 0.222347
Ni4   Ni    Ni4+2 0.617840 0.499430 0.629820 0.222344
Ni5   Ni    Ni4+2 0.012460 0.999430 0.370180 0.261153
Ni6   Ni    Ni4+2 0.987540 0.999430 0.629820 0.261146
Ni7   Ni    Ni4+2 0.512460 0.499430 0.370180 0.261157
Ni8   Ni    Ni4+2 0.487540 0.499430 0.629820 0.261224
H25   H     H_    0.796654 0.849505 0.215901 0.127708
H26   H     H_    0.203338 0.849471 0.784103 0.127700
H27   H     H_    0.296679 0.349463 0.215982 0.127699
H28   H     H_    0.703343 0.349479 0.784147 0.127726
I1    I     I_    0.036385 0.324319 0.287165 -0.377858
I2    I     I_    0.963464 0.324844 0.711596 -0.377458
I3    I     I_    0.536423 0.825136 0.288830 -0.376976
I4    I     I_    0.463471 0.824903 0.711505 -0.377334
H29   H     H_    0.818090 0.693110 0.754523 0.227039
H30   H     H_    0.181903 0.693416 0.245000 0.227014
H31   H     H_    0.317389 0.195553 0.756252 0.227827
H32   H     H_    0.681867 0.193418 0.244935 0.226974
H33   H     H_    0.895584 0.774403 0.753944 0.236598
H34   H     H_    0.104579 0.774968 0.245507 0.236926
H35   H     H_    0.394927 0.277117 0.756449 0.237466
H36   H     H_    0.604583 0.275057 0.245394 0.236904
H37   H     H_    0.711844 0.108752 0.984526 0.148986
H38   H     H_    0.288041 0.108491 0.015841 0.149206
H39   H     H_    0.211849 0.608717 0.984480 0.148984
H40   H     H_    0.788026 0.608499 0.015834 0.149216
I5    I     I_    0.180153 0.681192 0.719388 -0.365759
I6    I     I_    0.819600 0.681329 0.280585 -0.365911
I7    I     I_    0.680110 0.181208 0.719408 -0.365533
I8    I     I_    0.319689 0.181234 0.280691 -0.364951
I9    I     I_    0.152133 0.754436 0.009771 -0.416868
I10   I     I_    0.848167 0.754145 0.990577 -0.416541
I11   I     I_    0.652170 0.254489 0.009869 -0.417126
I12   I     I_    0.347986 0.254403 0.990317 -0.418183
I13   I     I_    0.083158 0.948251 0.253810 -0.400043
I14   I     I_    0.916802 0.948057 0.746203 -0.399976
I15   I     I_    0.583153 0.448304 0.253815 -0.400497
I16   I     I_    0.416753 0.449120 0.745828 -0.401712
H41   H     H_    0.236859 0.896463 0.676050 0.116200
H42   H     H_    0.763141 0.896427 0.323903 0.116254
H43   H     H_    0.736861 0.396475 0.676047 0.116221
H44   H     H_    0.263140 0.396514 0.323970 0.115979
H45   H     H_    0.024727 0.844082 0.778154 0.149538
H46   H     H_    0.975303 0.844055 0.221943 0.149544
H47   H     H_    0.524727 0.344186 0.778237 0.149466
H48   H     H_    0.475303 0.344054 0.221943 0.149533
H49   H     H_    0.220681 0.103884 0.830503 0.108154
H50   H     H_    0.779339 0.103874 0.169573 0.107938
H51   H     H_    0.720678 0.603887 0.830504 0.108143
H52   H     H_    0.279334 0.603860 0.169552 0.107926
H53   H     H_    0.673027 0.896904 0.352283 0.162626
H54   H     H_    0.326929 0.896790 0.647826 0.162655
H55   H     H_    0.173002 0.396253 0.351254 0.162615
H56   H     H_    0.826933 0.396776 0.647866 0.162666

loop_
_geom_bond_atom_site_label_1
_geom_bond_atom_site_label_2
_ccdc_geom_bond_type
C25   C31   A    
C94   N26   A    
N30   Ni5   S    
C55   C59   D    
C27   C29   A    
C1    C77   A    
C19   C23   A    
C76   C79   A    
C87   N19   A    
C3    C79   A    
C2    H26   S    
C49   H33   S    
C76   N16   A    
C39   C41   S    
N3    Ni3   S    
N18   N30   A    
C26   C32   A    
C66   H38   S    
N8    Ni8   S    
C56   C79   S    
N1    Ni1   S    
C18   C50   S    
C32   C36   A    
N11   Ni4   S    
C86   H14   S    
C24   C83   S    
C43   H3    S    
C4    C80   A    
C85   H13   S    
C42   H2    S    
C49   H5    S    
N9    Ni2   S    
C75   N15   A    
C87   H15   S    
N5    Ni5   S    
N6    N10   A    
C95   H51   S    
C14   C62   S    
C29   C33   A    
C70   N10   A    
N12   Ni3   S    
C5    N29   A    
C4    N4    A    
N13   Ni6   S    
C17   C39   A    
C29   I1    S    
C53   I9    S    
C14   C90   A    
C7    C11   A    
C18   C40   A    
C75   H47   S    
C19   C37   A    
C9    C85   A    
C46   C82   A    
N16   Ni7   S    
C41   C49   S    
C88   N20   A    
C74   H46   S    
C11   C87   A    
C74   C77   A    
C73   H45   S    
N10   Ni1   S    
C73   C78   A    
C4    H28   S    
C72   N12   A    
C94   H50   S    
N28   Ni3   S    
C47   C83   A    
N1    N14   A    
N24   Ni8   S    
C93   H49   S    
N29   Ni6   S    
N20   N32   A    
C14   C93   A    
C91   N23   A    
C70   H42   S    
C63   C67   D    
C54   C77   S    
N18   Ni2   S    
C2    N2    A    
N32   Ni7   S    
C1    H25   S    
C34   C38   A    
N2    Ni2   S    
N22   N25   A    
N17   N29   A    
C26   H54   S    
C57   C67   S    
N24   N27   A    
C25   H53   S    
N8    N12   A    
C57   I5    S    
C3    N3    A    
C38   C44   S    
C96   H52   S    
C71   C83   A    
N6    Ni6   S    
N23   N28   A    
C96   N28   A    
C89   H17   S    
C23   C84   S    
C30   C34   A    
C92   N24   A    
C22   C81   S    
C56   I12   S    
C36   C40   A    
C95   N27   A    
C30   I2    S    
C21   C25   A    
C76   H48   S    
C17   C49   S    
C15   C96   A    
C62   C66   D    
N19   N31   A    
C71   N11   A    
C68   H40   S    
C33   C37   A    
C48   C84   A    
C69   C81   A    
C5    H21   S    
C11   C36   S    
C37   C43   S    
C35   C39   A    
C44   H32   S    
N2    N13   A    
C5    C9    A    
C2    C78   A    
C7    H23   S    
C48   N8    A    
C13   C61   S    
C20   C38   A    
C71   H43   S    
N19   Ni3   S    
C8    C12   A    
C12   C88   A    
C69   H41   S    
N17   Ni1   S    
C90   N22   A    
C12   C35   S    
C51   H35   S    
N27   Ni4   S    
C92   H20   S    
C72   C84   A    
C22   C26   A    
N21   N26   A    
N20   Ni4   S    
C60   C66   S    
C7    N31   A    
N25   Ni2   S    
C45   I13   S    
C42   C50   S    
C50   H6    S    
C23   C27   A    
N4    Ni4   S    
N5    N9    A    
C52   H8    S    
C9    C34   S    
C28   H56   S    
C41   H1    S    
C93   N25   A    
C16   C92   A    
C63   H11   S    
C64   C68   D    
C85   N17   A    
C73   N13   A    
C61   H9    S    
C8    H24   S    
C75   C80   A    
N21   Ni5   S    
C42   H30   S    
C52   H36   S    
C10   C86   A    
C16   C95   A    
C43   H31   S    
N15   Ni8   S    
N4    N15   A    
C13   C89   A    
C18   C22   A    
N7    Ni7   S    
C46   N6    A    
C45   C81   A    
C24   C28   A    
C31   I3    S    
C8    N32   A    
C53   C57   D    
C44   C52   S    
C72   H44   S    
C55   I11   S    
C47   N7    A    
C62   H10   S    
C3    H27   S    
C13   C94   A    
C58   I6    S    
N3    N16   A    
C50   H34   S    
N31   Ni8   S    
C28   C30   A    
C53   C78   S    
C60   I8    S    
C20   C52   S    
C67   H39   S    
C59   C65   S    
C88   H16   S    
C55   C80   S    
C44   H4    S    
C58   C68   S    
C46   I14   S    
N26   Ni1   S    
C65   H37   S    
C43   C51   S    
C19   C51   S    
C89   N21   A    
C74   N14   A    
C31   C35   A    
C40   C42   S    
C91   H19   S    
N22   Ni6   S    
C10   C33   S    
C27   H55   S    
N23   Ni7   S    
C90   H18   S    
C61   C65   D    
C47   I15   S    
C70   C82   A    
N7    N11   A    
C48   I16   S    
C1    N1    A    
C6    C10   A    
C86   N18   A    
C15   C91   A    
C6    N30   A    
C56   C60   D    
N14   Ni5   S    
C54   C58   D    
C21   C82   S    
C69   N9    A    
C54   I10   S    
C45   N5    A    
C32   I4    S    
C15   C63   S    
C59   I7    S    
C16   C64   S    
C41   H29   S    
C51   H7    S    
C20   C24   A    
C64   H12   S    
C6    H22   S    
C17   C21   A    
