data_mof_unit_46733.cif
_audit_creation_date              2012-10-26T19:06:28-0400
_audit_creation_method            fapswitch 2.2
_symmetry_space_group_name_H-M    P1
_symmetry_Int_Tables_number       1
_space_group_crystal_system       triclinic
_cell_length_a                    12.412437
_cell_length_b                    13.125267
_cell_length_c                    14.319002
_cell_angle_alpha                 77.227995
_cell_angle_beta                  100.856976
_cell_angle_gamma                 116.838911
_cell_volume                      2019.4728876

loop_
_atom_site_label
_atom_site_type_symbol
_atom_type_description
_atom_site_fract_x
_atom_site_fract_y
_atom_site_fract_z
_atom_type_partial_charge
C1    C     C_R   0.854904 0.286123 0.509104 0.535437
C2    C     C_R   0.441633 0.974421 0.468904 -0.014675
C3    C     C_R   0.407402 0.050299 0.395238 0.075895
C4    C     C_R   0.000229 0.499706 0.668671 0.527667
C5    C     C_R   0.495745 0.156823 0.357156 0.231157
C6    C     C_R   0.616627 0.190331 0.395601 -0.109916
C7    C     C_R   0.348044 0.871842 0.507772 -0.090418
C8    C     C_R   0.195847 0.910091 0.393425 -0.168886
C9    C     C_R   0.772943 0.161715 0.517253 -0.019165
C10   C     C_R   0.332194 0.310341 0.636966 -0.157457
C11   C     C_R   0.758068 0.637100 0.367555 0.056996
C12   C     C_1   0.999121 0.500231 0.228815 -0.059284
C13   C     C_R   0.652652 0.644313 0.321872 -0.173293
C14   C     C_R   0.545804 0.579966 0.365355 -0.096600
C15   C     C_R   0.544893 0.518499 0.458887 0.039323
C16   C     C_R   0.144965 0.713750 0.487452 0.522977
C17   C     C_R   0.650311 0.500312 0.496046 0.175128
C18   C     C_R   0.439748 0.463367 0.511074 -0.013176
C19   C     C_R   0.434668 0.372299 0.587295 -0.052878
C20   C     C_R   0.534788 0.347008 0.617096 -0.168979
C21   C     C_R   0.642611 0.413719 0.575531 -0.094849
C22   C     C_R   0.345269 0.501191 0.497368 0.363736
C23   C     C_R   0.284398 0.017674 0.359613 -0.102392
C24   C     C_R   0.238027 0.344470 0.618212 0.379592
C25   C     C_R   0.999573 0.500035 0.331336 0.511306
C26   C     C_1   0.000896 0.499687 0.771192 -0.063830
C27   C     C_1   0.000878 0.499670 0.856697 -0.056966
C28   C     C_1   0.000464 0.499791 0.957349 -0.010678
C29   C     C_1   0.999970 0.499978 0.042747 -0.008896
C30   C     C_1   0.999388 0.500187 0.143360 -0.051226
C31   C     C_3   0.325688 0.638164 0.364267 0.040907
C32   C     C_3   0.415076 0.751849 0.311833 -0.386724
C33   C     C_3   0.541240 0.757966 0.673688 -0.008837
C34   C     C_R   0.228246 0.835863 0.466171 -0.022559
C35   C     C_3   0.594795 0.670396 0.692449 -0.357467
C36   C     C_3   0.157411 0.286298 0.762574 -0.009547
C37   C     C_3   0.038285 0.225262 0.808086 -0.367126
C38   C     C_R   0.813568 0.084333 0.577751 -0.184484
C39   C     C_R   0.736007 0.968446 0.596696 -0.126495
C40   C     C_R   0.612089 0.926883 0.562863 0.280669
C41   C     C_R   0.567002 0.005193 0.502419 0.022795
C42   C     C_R   0.652233 0.120167 0.472271 -0.048600
Cu1   Cu    Cu3+1 0.098280 0.475420 0.520190 0.995770
Cu2   Cu    Cu3+1 0.901720 0.524580 0.479810 0.900340
H1    H     H_    0.103272 0.883277 0.360197 0.124245
H2    H     H_    0.906280 0.113318 0.610812 0.177831
H3    H     H_    0.773175 0.910570 0.639317 0.119592
H4    H     H_    0.683410 0.270736 0.362081 0.137993
H5    H     H_    0.245846 0.654591 0.360852 0.178385
H6    H     H_    0.295033 0.564800 0.323966 0.093175
H7    H     H_    0.510547 0.766025 0.333931 0.186193
H8    H     H_    0.395432 0.752426 0.232852 0.088755
H9    H     H_    0.405962 0.825976 0.328866 0.156605
H10   H     H_    0.534484 0.300446 0.266181 0.323820
H11   H     H_    0.445571 0.710670 0.690917 0.142346
H12   H     H_    0.531818 0.278610 0.676549 0.112876
H13   H     H_    0.588766 0.821343 0.725111 0.095951
H14   H     H_    0.536883 0.597972 0.652155 0.175393
H15   H     H_    0.687667 0.710726 0.669711 0.151859
H16   H     H_    0.598634 0.635276 0.770385 0.089379
H17   H     H_    0.202032 0.377893 0.775254 0.139243
H18   H     H_    0.216009 0.242419 0.799111 0.107713
H19   H     H_    0.995304 0.132058 0.801370 0.139707
H20   H     H_    0.055358 0.233915 0.885535 0.102988
H21   H     H_    0.975058 0.263794 0.771569 0.159923
H22   H     H_    0.325816 0.235980 0.690832 0.105628
H23   H     H_    0.840457 0.682858 0.332158 0.127390
H24   H     H_    0.463954 0.570287 0.320936 0.116388
H25   H     H_    0.652155 0.694081 0.250709 0.096321
H26   H     H_    0.716830 0.392466 0.605836 0.174731
H27   H     H_    0.256555 0.073494 0.303051 0.174401
H28   H     H_    0.364515 0.817340 0.570910 0.174218
N1    N     N_R   0.246290 0.438200 0.550780 -0.212286
N2    N     N_R   0.754310 0.561180 0.449760 -0.232246
O1    O     O_R   0.972510 0.318130 0.525390 -0.438273
O2    O     O_3   0.461995 0.227729 0.283091 -0.722409
O3    O     O_3   0.541824 0.808087 0.574881 -0.529625
O4    O     O_3   0.132880 0.279727 0.663104 -0.532215
O5    O     O_R   0.806530 0.359650 0.491290 -0.520949
O6    O     O_R   0.083010 0.479240 0.641000 -0.459920
O7    O     O_R   0.917030 0.520750 0.606900 -0.497287
O8    O     O_R   0.193470 0.640350 0.508710 -0.464169
O9    O     O_R   0.027490 0.681870 0.474610 -0.499275
O10   O     O_R   0.082970 0.479250 0.393100 -0.505432
O11   O     O_R   0.916990 0.520760 0.359000 -0.493010
O12   O     O_3   0.374675 0.617725 0.460959 -0.500250

loop_
_geom_bond_atom_site_label_1
_geom_bond_atom_site_label_2
_ccdc_geom_bond_type
C33   H11   S    
C15   C18   A    
Cu1   N1    S    
C41   C42   A    
C3    C23   A    
C2    C7    A    
C20   H12   S    
Cu2   O9    S    
C9    C42   A    
C6    H4    S    
C35   H14   S    
C36   C37   S    
C4    O6    A    
C5    C6    A    
C24   N1    A    
C2    C41   A    
C8    C23   A    
C35   H15   S    
C18   C19   A    
C8    H1    S    
C32   H8    S    
C16   C34   S    
C4    O7    A    
C19   C20   A    
C37   H21   S    
C25   O10   A    
C31   O12   S    
C13   C14   A    
Cu1   O10   S    
C31   H5    S    
C36   H18   S    
C25   O11   A    
C37   H19   S    
C11   H23   S    
C10   H22   S    
Cu1   O1    S    
C1    O1    A    
C23   H27   S    
C1    C9    S    
Cu2   O7    S    
C7    H28   S    
C10   C24   A    
Cu1   O6    S    
C16   O9    A    
C17   C21   A    
C35   H16   S    
Cu1   Cu2   S    
C32   H7    S    
C29   C30   S    
C31   C32   S    
C10   C19   A    
C16   O8    A    
C26   C27   T    
C8    C34   A    
Cu2   N2    S    
H10   O2    S    
C24   O4    S    
C40   C41   A    
C17   N2    A    
C1    O5    A    
C7    C34   A    
C31   H6    S    
Cu2   O11   S    
C32   H9    S    
C39   C40   A    
C37   H20   S    
C39   H3    S    
C15   C17   A    
C28   C29   T    
C33   H13   S    
C12   C30   T    
C18   C22   A    
Cu2   O5    S    
C3    C5    A    
C11   N2    A    
C4    C26   S    
C21   H26   S    
C12   C25   S    
C5    O2    S    
C2    C3    A    
C36   O4    S    
C11   C13   A    
C40   O3    S    
C33   O3    S    
C38   C39   A    
C13   H25   S    
C9    C38   A    
C33   C35   S    
C22   O12   S    
C38   H2    S    
C20   C21   A    
C6    C42   A    
C27   C28   S    
Cu1   O8    S    
C14   H24   S    
C14   C15   A    
C22   N1    A    
C36   H17   S    
