data_mof_unit_36432.cif
_audit_creation_date              2012-12-11T15:47:12-0500
_audit_creation_method            fapswitch 2.2
_symmetry_space_group_name_H-M    P1
_symmetry_Int_Tables_number       1
_space_group_crystal_system       triclinic
_cell_length_a                    20.158782
_cell_length_b                    7.256229
_cell_length_c                    13.513014
_cell_angle_alpha                 90.014952
_cell_angle_beta                  103.053924
_cell_angle_gamma                 89.989381
_cell_volume                      1925.55905567

loop_
_atom_site_label
_atom_site_type_symbol
_atom_type_description
_atom_site_fract_x
_atom_site_fract_y
_atom_site_fract_z
_atom_type_partial_charge
O1    O     O_R   0.449560 0.506810 0.599700 -0.540681
O2    O     O_R   0.550440 0.006810 0.400300 -0.540700
O3    O     O_R   0.587960 0.180060 0.595760 -0.537141
O4    O     O_R   0.412040 0.680060 0.404240 -0.537066
C1    C     C_R   0.615074 0.344154 0.616754 0.735951
C2    C     C_R   0.384925 0.844154 0.383248 0.735990
O5    O     O_R   0.452380 0.177430 0.611700 -0.530141
O6    O     O_R   0.547620 0.677430 0.388300 -0.529993
O7    O     O_R   0.413900 0.001890 0.416350 -0.543123
O8    O     O_R   0.586100 0.501890 0.583650 -0.543013
C3    C     C_R   0.436897 0.345951 0.638559 0.749990
C4    C     C_R   0.563097 0.845889 0.361432 0.750170
O9    O     O_3   0.487530 0.337490 0.435890 -0.381684
O10   O     O_3   0.512470 0.837490 0.564110 -0.381674
V1    V     V_3+5 0.502310 0.064660 0.511890 1.469634
V2    V     V_3+5 0.497690 0.564660 0.488110 1.469849
C5    C     C_R   0.609961 0.910653 0.107670 -0.146517
C6    C     C_R   0.389952 0.413819 0.892042 -0.146961
H1    H     H_    0.694267 0.941128 0.984336 0.127860
H2    H     H_    0.305606 0.445619 0.015250 0.127601
H3    H     H_    0.585978 0.935661 0.028508 0.163683
H4    H     H_    0.413900 0.440330 0.971064 0.162798
C7    C     C_R   0.601379 0.855741 0.281135 -0.106686
C8    C     C_R   0.398619 0.356090 0.718857 -0.106356
C9    C     C_R   0.930526 0.828822 0.316572 -0.165877
C10   C     C_R   0.069521 0.326861 0.683564 -0.165597
C11   C     C_R   0.894338 0.812311 0.392282 -0.112337
C12   C     C_R   0.105729 0.309599 0.607914 -0.112715
C13   C     C_R   0.823469 0.823576 0.368600 -0.148974
C14   C     C_R   0.176579 0.321619 0.631538 -0.148836
C15   C     C_R   0.786638 0.852702 0.267311 0.076834
C16   C     C_R   0.213368 0.352323 0.732703 0.077002
C17   C     C_R   0.824291 0.871838 0.190273 0.065620
C18   C     C_R   0.175686 0.372405 0.809655 0.065445
C19   C     C_R   0.713890 0.863353 0.239753 0.079379
C20   C     C_R   0.286101 0.363667 0.760217 0.079344
C21   C     C_R   0.681026 0.896835 0.136870 0.112661
C22   C     C_R   0.318912 0.399008 0.862929 0.113039
C23   C     C_R   0.719119 0.916082 0.063101 -0.176374
C24   C     C_R   0.280792 0.419183 0.936609 -0.176170
C25   C     C_R   0.789493 0.902746 0.089082 -0.197510
C26   C     C_R   0.210439 0.405012 0.910699 -0.197392
C27   C     C_R   0.672476 0.842245 0.310588 -0.228945
C28   C     C_R   0.327550 0.341527 0.689496 -0.228808
C29   C     C_R   0.569326 0.890454 0.178539 -0.026068
C30   C     C_R   0.430608 0.392849 0.821252 -0.025569
C31   C     C_R   0.896261 0.858593 0.215883 -0.075055
C32   C     C_R   0.103740 0.358300 0.784118 -0.075165
H5    H     H_    0.693823 0.816821 0.389966 0.104531
H6    H     H_    0.306244 0.314627 0.610253 0.104370
H7    H     H_    0.985558 0.817823 0.336479 0.134297
H8    H     H_    0.014510 0.315114 0.663719 0.134374
H9    H     H_    0.799297 0.809262 0.431548 0.128175
H10   H     H_    0.200771 0.306643 0.568645 0.127526
H11   H     H_    0.921416 0.789644 0.470147 0.132330
H12   H     H_    0.078682 0.285690 0.530149 0.132409
H13   H     H_    0.816477 0.917501 0.028807 0.113264
H14   H     H_    0.183435 0.420526 0.970905 0.113316
C33   C     C_R   0.204185 0.001089 0.265414 -0.002841
C34   C     C_R   0.795939 0.500506 0.734248 -0.002907
C35   C     C_R   0.271611 0.997892 0.323559 -0.197199
C36   C     C_R   0.728505 0.497385 0.676105 -0.197066
H15   H     H_    0.288968 0.106545 0.378397 0.138062
H16   H     H_    0.711233 0.605615 0.620989 0.138165
C37   C     C_R   0.315393 0.850615 0.316700 -0.073123
C38   C     C_R   0.684604 0.350619 0.683314 -0.073084
C39   C     C_R   0.291144 0.705625 0.249441 -0.130321
C40   C     C_R   0.708729 0.206091 0.750933 -0.130214
H17   H     H_    0.323600 0.589387 0.242879 0.135881
H18   H     H_    0.676166 0.090274 0.757774 0.135778
C41   C     C_R   0.225396 0.710704 0.187775 -0.112975
C42   C     C_R   0.774478 0.211155 0.812606 -0.113871
H19   H     H_    0.209530 0.599222 0.134444 0.127673
H20   H     H_    0.790249 0.100102 0.866237 0.127049
C43   C     C_R   0.181139 0.858443 0.193238 -0.106762
C44   C     C_R   0.818857 0.358385 0.806781 -0.106437
O11   O     O_R   0.913920 0.203370 0.916260 -0.539177
O12   O     O_R   0.086080 0.703370 0.083740 -0.539200
O13   O     O_R   0.047620 0.535540 0.888290 -0.533436
O14   O     O_R   0.952380 0.035540 0.111710 -0.533440
C45   C     C_R   0.063565 0.368096 0.861915 0.698173
C46   C     C_R   0.936439 0.868153 0.138091 0.697797
O15   O     O_R   0.912040 0.532780 0.904220 -0.531821
O16   O     O_R   0.087960 0.032780 0.095780 -0.531783
O17   O     O_R   0.949550 0.708160 0.099720 -0.539661
O18   O     O_R   0.050450 0.208160 0.900280 -0.539637
C47   C     C_R   0.886539 0.364743 0.879978 0.708236
C48   C     C_R   0.113460 0.864754 0.120035 0.707819
O19   O     O_3   0.012480 0.375300 0.064060 -0.376422
O20   O     O_3   0.987520 0.875300 0.935940 -0.376416
V3    V     V_3+5 0.997690 0.648180 0.988110 1.467626
V4    V     V_3+5 0.002310 0.148180 0.011890 1.467840
C49   C     C_2   0.494084 0.904687 0.142419 0.755580
O21   O     O_2   0.469693 0.990992 0.064938 -0.553495
O22   O     O_R   0.450819 0.816016 0.194591 -0.679099
H21   H     H_    0.401025 0.833766 0.160535 0.282038
C50   C     C_2   0.505816 0.408470 0.857231 0.755370
O23   O     O_2   0.530036 0.496585 0.934140 -0.554002
O24   O     O_R   0.549249 0.319081 0.805587 -0.679107
H22   H     H_    0.599012 0.337996 0.839464 0.282264
C51   C     C_2   0.158503 0.147979 0.288009 0.740852
O25   O     O_2   0.180180 0.304635 0.306585 -0.572392
O26   O     O_R   0.091550 0.105696 0.292496 -0.668743
H23   H     H_    0.065788 0.216849 0.309637 0.287283
C52   C     C_2   0.841764 0.646661 0.711288 0.740733
O27   O     O_2   0.820147 0.803153 0.691844 -0.572368
O28   O     O_R   0.908788 0.603791 0.707427 -0.668744
H24   H     H_    0.934641 0.714436 0.689933 0.287212

loop_
_geom_bond_atom_site_label_1
_geom_bond_atom_site_label_2
_ccdc_geom_bond_type
O15   C47   A    
O11   V4    S    
O4    V2    S    
C49   O21   D    
C7    C29   A    
C11   C13   A    
C38   C40   A    
O22   H21   S    
O1    C3    A    
C42   C44   A    
C29   C49   S    
C26   H14   S    
C2    O7    A    
C50   O23   D    
O17   V3    S    
C23   C25   A    
O5    C3    A    
C52   O28   S    
C4    C7    S    
C51   O25   D    
C16   C20   A    
C19   C21   A    
C5    C29   A    
H2    C24   S    
C11   H11   S    
C28   H6    S    
C3    C8    S    
C7    C27   A    
C32   C45   S    
C34   C36   A    
C31   C46   S    
C35   H15   S    
C36   H16   S    
C2    C37   S    
C37   C39   A    
C18   C26   A    
O28   H24   S    
C15   C17   A    
C14   C16   A    
C19   C27   A    
C9    C31   A    
O13   V3    S    
C45   O18   A    
C10   C32   A    
C24   C26   A    
O2    C4    A    
C51   O26   S    
C22   C24   A    
C6    C30   A    
C50   O24   S    
C12   H12   S    
C21   C23   A    
C33   C35   A    
C36   C38   A    
C33   C51   S    
C42   H20   S    
O13   C45   A    
C27   H5    S    
O5    V1    S    
C34   C44   A    
C5    H3    S    
C40   C42   A    
C39   H17   S    
C16   C18   A    
O14   V4    S    
C9    H7    S    
C10   H8    S    
C14   H10   S    
O24   H22   S    
O6    C4    A    
O1    V2    S    
C5    C21   A    
O19   V4    S    
O2    V1    S    
C44   C47   S    
H1    C23   S    
O4    C2    A    
C30   C50   S    
C17   C31   A    
C15   C19   A    
C20   C28   A    
C18   C32   A    
C33   C43   A    
O3    V1    S    
C41   H19   S    
O12   C48   A    
C6    H4    S    
O16   C48   A    
C1    C38   S    
O3    C1    A    
O12   V3    S    
C9    C11   A    
C46   O17   A    
O15   V3    S    
C52   O27   D    
C10   C12   A    
C17   C25   A    
C20   C22   A    
C6    C22   A    
C8    C30   A    
C1    O8    A    
C13   C15   A    
O8    V2    S    
C41   C43   A    
O20   V3    S    
C49   O22   S    
C13   H9    S    
C8    C28   A    
C12   C14   A    
O14   C46   A    
C39   C41   A    
O7    V1    S    
C25   H13   S    
C35   C37   A    
C43   C48   S    
O11   C47   A    
O6    V2    S    
O9    V2    S    
O26   H23   S    
C40   H18   S    
O10   V1    S    
O18   V4    S    
O16   V4    S    
C34   C52   S    
