data_mof_unit_63612.cif
_audit_creation_date              2012-12-10T17:08:35-0500
_audit_creation_method            fapswitch 2.2
_symmetry_space_group_name_H-M    P1
_symmetry_Int_Tables_number       1
_space_group_crystal_system       triclinic
_cell_length_a                    18.64223
_cell_length_b                    18.747939
_cell_length_c                    18.654872
_cell_angle_alpha                 109.249905
_cell_angle_beta                  109.266472
_cell_angle_gamma                 109.387569
_cell_volume                      5050.37239705

loop_
_atom_site_label
_atom_site_type_symbol
_atom_type_description
_atom_site_fract_x
_atom_site_fract_y
_atom_site_fract_z
_atom_type_partial_charge
C1    C     C_R   0.376474 0.380229 0.496747 0.989515
C2    C     C_3   0.810065 0.502544 0.809132 -0.191689
C3    C     C_3   0.827561 0.488961 0.731159 -0.455389
C4    C     C_3   0.812732 0.592603 0.846177 0.690353
C5    C     C_R   0.216511 0.238987 0.329444 0.618248
C6    C     C_R   0.149930 0.163375 0.251445 -0.171667
C7    C     C_R   0.098926 0.090858 0.252689 -0.224639
C8    C     C_R   0.111304 0.094924 0.332005 -0.158746
C9    C     C_R   0.176115 0.171970 0.411918 0.045101
C10   C     C_R   0.233711 0.242522 0.411016 -0.035723
C11   C     C_R   0.305379 0.314226 0.492061 -0.103689
C12   C     C_R   0.623936 0.503468 0.620325 0.973881
C13   C     C_R   0.314567 0.319428 0.571200 -0.160169
C14   C     C_R   0.254372 0.253277 0.571700 -0.135174
C15   C     C_R   0.185489 0.180335 0.493065 -0.059652
C16   C     C_R   0.400817 0.506350 0.230375 -0.199224
C17   C     C_R   0.402305 0.492826 0.153038 -0.268766
C18   C     C_R   0.329019 0.471998 0.080351 0.275413
C19   C     C_R   0.255306 0.469069 0.086070 0.588521
C20   C     C_R   0.254439 0.487673 0.165969 -0.149957
C21   C     C_R   0.325506 0.499834 0.236555 0.033865
C22   C     C_R   0.319434 0.505913 0.311748 -0.146481
C23   C     C_R   0.622733 0.619689 0.502273 0.844776
C24   C     C_R   0.248560 0.507955 0.320279 -0.219405
C25   C     C_R   0.182136 0.502840 0.254385 0.607608
C26   C     C_R   0.184716 0.493277 0.177855 -0.236369
C27   C     C_R   0.777368 0.607039 0.510093 -0.242776
C28   C     C_R   0.846022 0.596741 0.503466 0.696399
C29   C     C_R   0.902123 0.653219 0.488822 -0.179353
C30   C     C_R   0.891630 0.721968 0.483820 -0.266841
C31   C     C_R   0.824363 0.735472 0.493795 0.078200
C32   C     C_R   0.763887 0.674766 0.502444 0.038159
C33   C     C_R   0.692402 0.684651 0.504399 -0.041027
C34   C     C_R   0.382309 0.502920 0.379138 0.948493
C35   C     C_R   0.683731 0.755257 0.502890 -0.203127
C36   C     C_R   0.744843 0.816491 0.498220 -0.142283
C37   C     C_R   0.814872 0.807379 0.494340 -0.065152
C38   C     C_R   0.001004 0.380098 0.880661 0.930120
C39   C     C_R   0.876660 0.500743 0.876904 0.958565
C40   C     C_R   0.993707 0.619344 0.114737 0.953131
C41   C     C_R   0.118023 0.497305 0.115466 1.000859
C42   C     C_R   0.997843 0.118515 0.619434 1.017668
C43   C     C_R   0.119986 0.117681 0.497509 0.861736
C44   C     C_R   0.006724 0.886413 0.379904 0.871519
C45   C     C_3   0.646824 0.438141 0.712783 0.405997
C46   C     C_R   0.880201 0.877186 0.497252 0.931074
C47   C     C_R   0.001904 0.230944 0.898621 -0.101376
C48   C     C_R   0.985436 0.152867 0.898518 -0.244799
C49   C     C_R   0.963829 0.080861 0.824710 -0.166290
C50   C     C_R   0.963188 0.087660 0.752286 0.628929
C51   C     C_R   0.985389 0.168399 0.753255 -0.082662
C52   C     C_R   0.997772 0.238366 0.824445 0.053867
C53   C     C_R   0.006498 0.314190 0.819621 -0.073705
C54   C     C_R   0.014600 0.325400 0.752010 -0.181756
C55   C     C_R   0.011162 0.260841 0.686276 0.247273
C56   C     C_3   0.716117 0.428034 0.775106 0.111509
C57   C     C_R   0.995242 0.181979 0.685761 -0.180817
C58   C     C_R   0.842867 0.655631 0.086658 0.341775
C59   C     C_R   0.794186 0.694784 0.062181 -0.037100
C60   C     C_R   0.828634 0.783842 0.110217 -0.203701
C61   C     C_R   0.905467 0.831863 0.190041 -0.103655
C62   C     C_R   0.949399 0.790824 0.221399 0.001905
C63   C     C_R   0.927392 0.707632 0.162018 -0.013842
C64   C     C_R   0.991948 0.682813 0.181895 -0.159438
C65   C     C_R   0.064335 0.728749 0.265513 -0.254819
C66   C     C_R   0.071521 0.797436 0.331077 0.647454
C67   C     C_3   0.750853 0.477580 0.655205 -0.322340
C68   C     C_R   0.012330 0.827646 0.310190 -0.261305
C69   C     C_3   0.750526 0.596818 0.770150 -0.039731
C70   C     C_3   0.692068 0.504249 0.687996 -0.193848
H1    H     H_    0.776558 0.517014 0.627249 0.222380
H2    H     H_    0.888886 0.546220 0.751147 0.248084
H3    H     H_    0.369503 0.374391 0.632959 0.171088
H4    H     H_    0.137762 0.161078 0.189605 0.174065
H5    H     H_    0.048472 0.031773 0.191995 0.179621
H6    H     H_    0.070439 0.036973 0.330014 0.144553
H7    H     H_    0.261066 0.259362 0.633726 0.176097
H8    H     H_    0.244236 0.512694 0.378068 0.196453
H9    H     H_    0.614011 0.463058 0.746625 0.085519
H10   H     H_    0.459621 0.522984 0.285244 0.172413
H11   H     H_    0.460176 0.497058 0.149264 0.201281
H12   H     H_    0.628715 0.762389 0.504184 0.165460
H13   H     H_    0.736057 0.562209 0.522325 0.171553
H14   H     H_    0.954351 0.644169 0.481876 0.192989
H15   H     H_    0.936003 0.763370 0.471078 0.184418
H16   H     H_    0.704263 0.433289 0.830815 0.185064
H17   H     H_    0.738209 0.872000 0.498948 0.174583
H18   H     H_    0.022990 0.384606 0.749896 0.188719
H19   H     H_    0.019266 0.285443 0.957817 0.176842
H20   H     H_    0.987930 0.147808 0.955353 0.180517
H21   H     H_    0.947731 0.019333 0.823646 0.189173
H22   H     H_    0.113625 0.709280 0.280464 0.189294
H23   H     H_    0.729135 0.656053 0.005939 0.199246
H24   H     H_    0.793126 0.814743 0.088398 0.164014
H25   H     H_    0.929783 0.900844 0.226249 0.159630
H26   H     H_    0.712092 0.408425 0.602458 0.261898
H27   H     H_    0.836592 0.431349 0.709177 0.223954
H28   H     H_    0.708732 0.618374 0.791666 0.190568
O1    O     O_R   0.408680 0.356690 0.448550 -0.559494
O2    O     O_R   0.049530 0.460050 0.906180 -0.577860
O3    O     O_R   0.853500 0.448330 0.905250 -0.578345
O4    O     O_R   0.956960 0.551700 0.905190 -0.610850
O5    O     O_R   0.945120 0.539960 0.088480 -0.569875
O6    O     O_R   0.048580 0.643330 0.088420 -0.610988
O7    O     O_R   0.037690 0.448310 0.089470 -0.596221
O8    O     O_R   0.141150 0.551680 0.089410 -0.593883
O9    O     O_R   0.051440 0.091580 0.643120 -0.582893
O10   O     O_R   0.947460 0.091580 0.539110 -0.588812
O11   O     O_R   0.143620 0.091630 0.552020 -0.615710
O12   O     O_R   0.408070 0.460080 0.551430 -0.632579
O13   O     O_R   0.039640 0.091620 0.448010 -0.611800
O14   O     O_R   0.052540 0.908440 0.460910 -0.559496
O15   O     O_R   0.948560 0.908430 0.356900 -0.656173
O16   O     O_R   0.960360 0.908390 0.552000 -0.574260
O17   O     O_R   0.856380 0.908390 0.447990 -0.631922
O18   O     O_R   0.592400 0.448290 0.540670 -0.592618
O19   O     O_R   0.591790 0.551690 0.643550 -0.635103
O20   O     O_R   0.591930 0.539920 0.448570 -0.654841
O21   O     O_R   0.591320 0.643310 0.551450 -0.602167
O22   O     O_R   0.408210 0.448310 0.356450 -0.574286
O23   O     O_R   0.407600 0.551710 0.459330 -0.632475
O24   O     O_R   0.946070 0.356680 0.906240 -0.640624
Zn1   Zn    Zn3+2 0.500410 0.430960 0.431310 1.061069
Zn2   Zn    Zn3+2 0.499590 0.569040 0.568690 1.023251
Zn3   Zn    Zn3+2 0.928250 0.430980 0.997370 1.097743
Zn4   Zn    Zn3+2 0.066400 0.569030 0.997290 1.082845
Zn5   Zn    Zn3+2 0.069430 0.000010 0.569460 1.090313
Zn6   Zn    Zn3+2 0.930570 0.000010 0.430560 1.014507
F1    F     F_    0.582226 0.358682 0.638893 -0.604486
Br1   Br    Br    0.929822 0.696452 0.917411 -0.378745
F2    F     F_    0.259625 0.309274 0.323893 -0.679493
Br2   Br    Br    0.329994 0.447476 0.972759 -0.403351
F3    F     F_    0.183941 0.443336 0.012028 -0.672025
F4    F     F_    0.115686 0.508827 0.265982 -0.641036
F5    F     F_    0.857587 0.531143 0.510438 -0.645549
F6    F     F_    0.936580 0.013802 0.680703 -0.682355
Br3   Br    Br    0.032031 0.285708 0.600534 -0.437298
Br4   Br    Br    0.778197 0.531144 0.030923 -0.437133
Br5   Br    Br    0.702112 0.311289 0.720174 -0.370970
F7    F     F_    0.137147 0.835108 0.413938 -0.626813
Br6   Br    Br    0.807139 0.683379 0.740585 -0.464187
F8    F     F_    0.779591 0.595255 0.902310 -0.725918

loop_
_geom_bond_atom_site_label_1
_geom_bond_atom_site_label_2
_ccdc_geom_bond_type
C65   H22   S    
C66   C68   A    
C45   F1    S    
C16   C21   A    
O18   Zn1   S    
C28   F5    S    
C18   Br2   S    
C35   C36   A    
C1    C11   S    
C1    O1    A    
C23   O20   A    
C7    C8    A    
O15   Zn6   S    
C53   C54   A    
C62   C63   A    
C41   O7    A    
C46   O17   A    
O2    Zn4   S    
C36   C37   A    
O19   Zn2   S    
C4    F8    S    
C5    C6    A    
C69   Br6   S    
C8    H6    S    
C18   C19   A    
C14   H7    S    
O14   Zn5   S    
O12   Zn2   S    
C2    C39   S    
O11   Zn5   S    
C31   C32   A    
C45   C56   S    
C8    C9    A    
O23   Zn2   S    
O3    Zn3   S    
C39   O3    A    
C51   C57   A    
C6    H4    S    
C9    C10   A    
C17   H11   S    
O22   Zn1   S    
C69   H28   S    
C58   Br4   S    
C45   C70   S    
C59   C60   A    
C48   H20   S    
C21   C22   A    
C47   H19   S    
C69   C70   S    
C43   O13   A    
C49   H21   S    
C42   C57   S    
C4    C69   S    
C35   H12   S    
C50   C51   A    
C36   H17   S    
C34   O22   A    
C22   C34   S    
C41   O8    A    
C46   O16   A    
C51   C52   A    
C24   C25   A    
C29   H14   S    
C38   O2    A    
C56   Br5   S    
C16   C17   A    
C7    H5    S    
C23   C33   S    
C25   C26   A    
O21   Zn2   S    
O17   Zn6   S    
C31   C37   A    
C60   C61   A    
C16   H10   S    
C47   C52   A    
C2    C4    S    
C29   C30   A    
C1    O12   A    
C40   O6    A    
C3    H27   S    
C56   H16   S    
C47   C48   A    
C17   C18   A    
C66   F7    S    
C45   H9    S    
O10   Zn6   S    
C30   H15   S    
C25   F4    S    
C38   O24   A    
C44   O14   A    
C24   H8    S    
C48   C49   A    
C13   H3    S    
C44   O15   A    
C49   C50   A    
C34   O23   A    
C55   C57   A    
C67   H26   S    
C22   C24   A    
C44   C68   S    
O13   Zn6   S    
C52   C53   A    
C39   O4    A    
O1    Zn1   S    
C42   O9    A    
C58   C63   A    
C12   C70   S    
C54   C55   A    
C28   C29   A    
C27   C32   A    
C3    C67   S    
O4    Zn4   S    
C40   C64   S    
C4    Br1   S    
C61   H25   S    
C6    C7    A    
C62   C68   A    
C19   F3    S    
C59   H23   S    
O8    Zn4   S    
C55   Br3   S    
O7    Zn3   S    
C67   C70   S    
C32   C33   A    
C19   C20   A    
C27   H13   S    
C3    H2    S    
C58   C59   A    
C15   C43   S    
C5    C10   A    
C50   F6    S    
C64   C65   A    
C40   O5    A    
C54   H18   S    
O16   Zn5   S    
C11   C13   A    
C30   C31   A    
C38   C53   S    
C20   C26   A    
O24   Zn3   S    
C33   C35   A    
C2    C3    S    
C67   H1    S    
O20   Zn1   S    
C9    C15   A    
C61   C62   A    
O5    Zn3   S    
C10   C11   A    
O9    Zn5   S    
C63   C64   A    
C5    F2    S    
O6    Zn4   S    
C20   C21   A    
C65   C66   A    
C27   C28   A    
C14   C15   A    
C23   O21   A    
C2    C56   S    
C12   O19   A    
C43   O11   A    
C37   C46   S    
C13   C14   A    
C42   O10   A    
C26   C41   S    
C12   O18   A    
C60   H24   S    
