data_mof_unit_12019.cif
_audit_creation_date              2012-12-11T14:08:02-0500
_audit_creation_method            fapswitch 2.2
_symmetry_space_group_name_H-M    P1
_symmetry_Int_Tables_number       1
_space_group_crystal_system       triclinic
_cell_length_a                    10.959776
_cell_length_b                    10.962456
_cell_length_c                    18.70885
_cell_angle_alpha                 89.942716
_cell_angle_beta                  89.620716
_cell_angle_gamma                 59.948647
_cell_volume                      1945.58957679

loop_
_atom_site_label
_atom_site_type_symbol
_atom_type_description
_atom_site_fract_x
_atom_site_fract_y
_atom_site_fract_z
_atom_type_partial_charge
C1    C     C_R   0.238063 0.644596 0.609203 0.541701
C2    C     C_2   0.753393 0.203349 0.714433 -0.182623
C3    C     C_2   0.190545 0.656949 0.683106 -0.125937
C4    C     C_R   0.656121 0.624427 0.600116 0.534541
C5    C     C_2   0.194075 0.670648 0.839400 -0.106906
C6    C     C_2   0.230644 0.551700 0.804160 -0.191847
C7    C     C_2   0.252610 0.543001 0.726209 -0.176049
C8    C     C_2   0.666705 0.683775 0.330776 -0.114293
C9    C     C_2   0.674055 0.684355 0.174039 -0.111362
C10   C     C_2   0.787542 0.634228 0.217017 -0.154056
C11   C     C_2   0.782669 0.607259 0.292299 -0.173533
C12   C     C_3   0.635338 0.620939 0.803231 -0.099345
C13   C     C_2   0.635311 0.193653 0.320557 -0.113932
C14   C     C_2   0.628918 0.212712 0.161748 0.019207
C15   C     C_2   0.520955 0.233578 0.205956 -0.010381
C16   C     C_R   0.598086 0.280868 0.610233 0.548688
C17   C     C_2   0.524731 0.275255 0.278800 -0.130310
C18   C     C_2   0.190061 0.660995 0.325971 -0.098571
C19   C     C_2   0.183930 0.643022 0.172714 -0.112341
C20   C     C_2   0.242318 0.708086 0.205625 -0.170045
C21   C     C_2   0.270870 0.687207 0.281165 -0.153397
C22   C     C_R   0.701059 0.106499 0.899642 0.534795
C23   C     C_3   0.733342 0.687972 0.807242 0.058229
C24   C     C_R   0.757941 0.710580 0.882883 0.558310
C25   C     C_R   0.120271 0.706483 0.907917 0.544016
C26   C     C_R   0.672414 0.112849 0.102327 0.563201
C27   C     C_R   0.699146 0.692809 0.098726 0.545602
C28   C     C_R   0.225619 0.648154 0.400162 0.546004
C29   C     C_R   0.099615 0.705059 0.110454 0.553807
C30   C     C_R   0.644671 0.627201 0.396048 0.548990
C31   C     C_R   0.616991 0.229538 0.394901 0.550860
C32   C     C_3   0.664812 0.832751 0.766374 -0.240382
C33   C     C_3   0.625641 0.815267 0.688632 -0.107894
C34   C     C_3   0.682200 0.656038 0.673428 0.053694
C35   C     C_3   0.876838 0.590181 0.766271 -0.101786
C36   C     C_3   0.995648 0.448607 0.798907 -0.265886
C37   C     C_3   0.960980 0.333300 0.817322 -0.430471
C38   C     C_3   0.410902 0.191001 0.188353 -0.249192
C39   C     C_3   0.295547 0.229577 0.245087 -0.456693
C40   C     C_3   0.722826 0.276070 0.177035 -0.289180
C41   C     C_3   0.726048 0.363131 0.114210 -0.424030
C42   C     C_3   0.656490 0.898899 0.631371 -0.274253
C43   C     C_3   0.810971 0.854189 0.617357 -0.417695
C44   C     C_R   0.507210 0.690619 0.853236 0.039405
C45   C     C_3   0.843189 0.565509 0.690047 -0.202050
C46   C     C_R   0.514160 0.626284 0.919708 -0.068076
C47   C     C_R   0.424501 0.704397 0.975970 -0.075289
C48   C     C_R   0.326141 0.846745 0.966496 -0.038644
C49   C     C_R   0.309359 0.908180 0.899170 -0.087551
C50   C     C_R   0.397399 0.829981 0.842368 -0.092822
C51   C     C_3   0.600459 0.609260 0.724798 -0.246299
C52   C     C_2   0.633308 0.229124 0.682982 -0.128420
C53   C     C_2   0.678212 0.189999 0.835997 -0.122395
C54   C     C_2   0.782822 0.153289 0.788458 -0.185757
Cr1   Cr    Cr6+3 0.393010 0.398050 0.501480 1.002467
Cr2   Cr    Cr6+3 0.398820 0.707980 0.501630 1.004205
Cr3   Cr    Cr6+3 0.708140 0.393940 0.496850 1.009448
Cr4   Cr    Cr6+3 0.937950 0.938450 0.008940 0.982951
Cr5   Cr    Cr6+3 0.626180 0.937030 0.994750 0.998330
Cr6   Cr    Cr6+3 0.937790 0.625760 0.001410 0.980087
H1    H     H_    0.738316 0.874826 0.766455 0.112558
H2    H     H_    0.199741 0.755448 0.812595 0.118761
H3    H     H_    0.569979 0.915330 0.794492 0.134488
H4    H     H_    0.119965 0.761645 0.704035 0.088471
H5    H     H_    0.892364 0.598455 0.195250 0.157895
H6    H     H_    0.873539 0.515151 0.314504 0.150411
H7    H     H_    0.567870 0.721227 0.193828 0.077951
H8    H     H_    0.579260 0.780311 0.309707 0.102388
H9    H     H_    0.429890 0.365023 0.300373 0.161341
H10   H     H_    0.731777 0.104034 0.300377 0.092183
H11   H     H_    0.253975 0.790377 0.179551 0.141751
H12   H     H_    0.629805 0.498298 0.713283 0.115066
H13   H     H_    0.508506 0.867355 0.687780 0.120915
H14   H     H_    0.353117 0.705826 0.301187 0.151184
H15   H     H_    0.182186 0.553880 0.196839 0.094771
H16   H     H_    0.106760 0.642227 0.308194 0.081996
H17   H     H_    0.930307 0.653488 0.761024 0.116416
H18   H     H_    0.908202 0.584955 0.651310 0.117739
H19   H     H_    0.697478 0.511293 0.821886 0.132312
H20   H     H_    0.484967 0.672943 0.715303 0.129036
H21   H     H_    0.903174 0.354822 0.868819 0.175292
H22   H     H_    0.900289 0.319845 0.774532 0.143442
H23   H     H_    0.877324 0.452446 0.682706 0.148382
H24   H     H_    0.060720 0.231602 0.823456 0.116095
H25   H     H_    0.084109 0.402064 0.759560 0.129159
H26   H     H_    0.040264 0.468902 0.846981 0.192968
H27   H     H_    0.342165 0.173701 0.295969 0.171714
H28   H     H_    0.236098 0.344835 0.254856 0.140344
H29   H     H_    0.220211 0.197007 0.226194 0.132522
H30   H     H_    0.357602 0.243110 0.137751 0.163619
H31   H     H_    0.464350 0.074699 0.181788 0.175752
H32   H     H_    0.755488 0.303143 0.063271 0.163474
H33   H     H_    0.621438 0.459621 0.108084 0.137370
H34   H     H_    0.891143 0.077595 0.802238 0.145921
H35   H     H_    0.806818 0.392837 0.125258 0.170194
H36   H     H_    0.687539 0.347308 0.224183 0.157532
H37   H     H_    0.831746 0.189639 0.188126 0.154218
H38   H     H_    0.872287 0.828926 0.667333 0.140255
H39   H     H_    0.859597 0.763188 0.580089 0.142911
H40   H     H_    0.816468 0.941988 0.590815 0.164746
H41   H     H_    0.608254 0.896094 0.579794 0.160740
H42   H     H_    0.600333 0.010457 0.648350 0.164513
H43   H     H_    0.596316 0.518941 0.930016 0.094877
H44   H     H_    0.434435 0.655827 0.027619 0.086355
H45   H     H_    0.834771 0.210404 0.684444 0.147728
H46   H     H_    0.259097 0.908079 0.010620 0.105402
H47   H     H_    0.229121 0.017041 0.891245 0.084868
H48   H     H_    0.383609 0.881102 0.791354 0.080019
H49   H     H_    0.570021 0.267235 0.823033 0.102942
H50   H     H_    0.556542 0.212185 0.711552 0.092859
H51   H     H_    0.243202 0.459898 0.832432 0.124313
H52   H     H_    0.321891 0.439119 0.703940 0.143851
O1    O     O_R   0.507110 0.256280 0.580300 -0.530209
O2    O     O_R   0.837080 0.593860 0.915300 -0.535813
O3    O     O_R   0.064770 0.636080 0.932550 -0.524125
O4    O     O_R   0.280830 0.527190 0.577940 -0.508714
O5    O     O_R   0.068250 0.829200 0.092940 -0.519545
O6    O     O_R   0.799650 0.057040 0.080330 -0.498670
O7    O     O_R   0.586130 0.079760 0.077080 -0.539185
O8    O     O_R   0.627700 0.809630 0.066580 -0.492001
O9    O     O_R   0.816140 0.597180 0.075920 -0.527451
O10   O     O_R   0.045360 0.639170 0.081440 -0.509243
O11   O     O_3   0.833980 0.833750 0.001700 -0.254289
O12   O     O_R   0.524640 0.695370 0.425100 -0.507981
O13   O     O_R   0.261360 0.738990 0.584270 -0.515106
O14   O     O_R   0.532590 0.694780 0.574370 -0.512150
O15   O     O_R   0.744470 0.503750 0.577000 -0.539929
O16   O     O_R   0.698520 0.277230 0.571620 -0.496574
O17   O     O_R   0.498530 0.256920 0.419280 -0.513594
O18   O     O_R   0.272880 0.527780 0.428680 -0.503587
O19   O     O_R   0.252780 0.739630 0.423250 -0.509384
O20   O     O_R   0.735890 0.504390 0.415980 -0.511156
O21   O     O_R   0.690560 0.277820 0.422350 -0.489133
O22   O     O_3   0.499990 0.499990 0.499980 -0.259455
O23   O     O_R   0.089190 0.825870 0.932320 -0.523282
O24   O     O_R   0.819070 0.053960 0.931440 -0.504383
O25   O     O_R   0.607070 0.076440 0.916460 -0.530150
O26   O     O_R   0.647110 0.806550 0.917690 -0.485745

loop_
_geom_bond_atom_site_label_1
_geom_bond_atom_site_label_2
_ccdc_geom_bond_type
C17   H9    S    
Cr5   O8    S    
C18   C21   D    
C6    H51   S    
Cr3   O20   S    
Cr6   O2    S    
C35   C36   S    
C43   H38   S    
C39   H27   S    
C31   O21   A    
Cr3   O21   S    
C16   O1    A    
Cr3   O16   S    
C27   O9    A    
C49   H47   S    
C41   H35   S    
C53   C54   D    
C24   O2    A    
C22   O25   A    
C34   C51   S    
C33   C42   S    
Cr2   O12   S    
C36   C37   S    
C1    O13   A    
C32   H1    S    
C3    C7    D    
C25   O3    A    
C38   C39   S    
Cr1   O4    S    
Cr5   O25   S    
C53   H49   S    
C12   H19   S    
Cr4   O6    S    
C7    H52   S    
C51   H20   S    
C48   H46   S    
C19   C20   D    
Cr1   O17   S    
C18   H16   S    
C23   C24   S    
C20   H11   S    
C45   H18   S    
C1    O4    A    
Cr2   O14   S    
C9    C10   D    
C11   H6    S    
C50   H48   S    
C37   H21   S    
C45   H23   S    
C39   H28   S    
C40   H36   S    
C25   O23   A    
C42   H42   S    
C44   C46   A    
C22   C53   S    
Cr5   O11   S    
C4    C34   S    
C16   C52   S    
C18   C28   S    
C43   H40   S    
C2    C54   S    
C40   H37   S    
Cr1   O1    S    
Cr5   O26   S    
C36   H26   S    
C27   O8    A    
C29   O5    A    
C21   H14   S    
C35   H17   S    
Cr4   O5    S    
C14   C26   S    
C22   O24   A    
C1    C3    S    
Cr6   O11   S    
C9    H7    S    
C15   C38   S    
Cr4   O24   S    
C47   C48   A    
C12   C23   S    
C52   H50   S    
Cr1   O18   S    
C29   O10   A    
C33   C34   S    
Cr4   O11   S    
C37   H24   S    
C34   C45   S    
Cr2   O13   S    
C26   O7    A    
Cr6   O10   S    
C16   O16   A    
C2    C52   D    
C5    C25   S    
C33   H13   S    
C48   C49   A    
C30   O12   A    
C8    H8    S    
C23   C35   S    
C36   H25   S    
Cr3   O22   S    
C42   C43   S    
C35   C45   S    
C42   H41   S    
C12   C51   S    
C9    C27   S    
C10   H5    S    
C44   C50   A    
C15   C17   S    
C46   C47   A    
C40   C41   S    
Cr5   O7    S    
C47   H44   S    
C4    O15   A    
C13   C31   S    
C26   O6    A    
C32   H3    S    
C43   H39   S    
Cr3   O15   S    
Cr2   O22   S    
C6    C7    S    
C4    O14   A    
Cr4   O23   S    
Cr1   O22   S    
C46   H43   S    
C38   H30   S    
C2    H45   S    
C51   H12   S    
C13   C17   D    
C28   O19   A    
C24   O26   A    
C23   C32   S    
C41   H33   S    
C8    C30   S    
C12   C44   S    
C32   C33   S    
C5    C6    D    
C8    C11   D    
C30   O20   A    
C38   H31   S    
C19   H15   S    
C5    H2    S    
C28   O18   A    
C3    H4    S    
Cr6   O9    S    
C37   H22   S    
C54   H34   S    
Cr2   O19   S    
C10   C11   S    
C14   C40   S    
C41   H32   S    
C20   C21   S    
C31   O17   A    
C49   C50   A    
C13   H10   S    
C14   C15   D    
Cr6   O3    S    
C39   H29   S    
C19   C29   S    
