data_mof_unit_33078.cif
_audit_creation_date              2012-12-11T14:44:37-0500
_audit_creation_method            fapswitch 2.2
_symmetry_space_group_name_H-M    P1
_symmetry_Int_Tables_number       1
_space_group_crystal_system       triclinic
_cell_length_a                    19.906032
_cell_length_b                    7.231199
_cell_length_c                    19.646952
_cell_angle_alpha                 90.000336
_cell_angle_beta                  98.477202
_cell_angle_gamma                 90.000253
_cell_volume                      2797.17246022

loop_
_atom_site_label
_atom_site_type_symbol
_atom_type_description
_atom_site_fract_x
_atom_site_fract_y
_atom_site_fract_z
_atom_type_partial_charge
O1    O     O_R   0.673210 0.377390 0.686390 -0.541794
O2    O     O_R   0.326790 0.622610 0.313610 -0.541795
O3    O     O_R   0.826790 0.877390 0.813610 -0.541791
O4    O     O_R   0.173210 0.122610 0.186390 -0.541795
O5    O     O_R   0.810750 0.706450 0.681250 -0.544763
O6    O     O_R   0.189250 0.293550 0.318750 -0.544767
O7    O     O_R   0.689250 0.206450 0.818750 -0.544767
O8    O     O_R   0.310750 0.793550 0.181250 -0.544769
C1    C     C_R   0.830854 0.538603 0.665128 0.704565
C2    C     C_R   0.169146 0.461397 0.334871 0.704552
C3    C     C_R   0.669147 0.038603 0.834873 0.704531
C4    C     C_R   0.330855 0.961397 0.165130 0.704563
O9    O     O_R   0.672750 0.707060 0.678240 -0.516398
O10   O     O_R   0.327250 0.292940 0.321760 -0.516393
O11   O     O_R   0.827250 0.207060 0.821760 -0.516386
O12   O     O_R   0.172750 0.792940 0.178240 -0.516394
O13   O     O_R   0.687800 0.877990 0.810580 -0.532875
O14   O     O_R   0.312200 0.122010 0.189420 -0.532841
O15   O     O_R   0.812200 0.377990 0.689420 -0.532849
O16   O     O_R   0.187800 0.622010 0.310580 -0.532854
C5    C     C_R   0.648264 0.539184 0.661475 0.732753
C6    C     C_R   0.351738 0.460815 0.338521 0.732821
C7    C     C_R   0.851738 0.039186 0.838522 0.732805
C8    C     C_R   0.148262 0.960814 0.161478 0.732790
O17   O     O_3   0.755100 0.544060 0.793420 -0.378898
O18   O     O_3   0.244900 0.455940 0.206580 -0.378900
O19   O     O_3   0.744900 0.044060 0.706580 -0.378897
O20   O     O_3   0.255100 0.955940 0.293420 -0.378901
V1    V     V_3+5 0.749050 0.818670 0.741950 1.449531
V2    V     V_3+5 0.250950 0.181330 0.258050 1.449583
V3    V     V_3+5 0.750950 0.318670 0.758050 1.449549
V4    V     V_3+5 0.249050 0.681330 0.241950 1.449572
C9    C     C_R   0.086078 0.964072 0.109173 -0.136147
C10   C     C_R   0.913922 0.035929 0.890827 -0.136140
C11   C     C_R   0.413924 0.464078 0.390822 -0.136083
C12   C     C_R   0.586083 0.535920 0.609167 -0.136246
C13   C     C_R   0.026204 0.159623 0.934990 -0.258438
C14   C     C_R   0.973795 0.840380 0.065010 -0.258430
C15   C     C_R   0.473792 0.659574 0.565015 -0.258310
C16   C     C_R   0.526216 0.340428 0.434971 -0.258468
C17   C     C_R   0.970407 0.146608 0.881858 0.419454
C18   C     C_R   0.029592 0.853399 0.118143 0.419451
C19   C     C_R   0.529591 0.646563 0.618140 0.419421
C20   C     C_R   0.470415 0.353436 0.381841 0.419451
C21   C     C_R   0.916006 0.930781 0.951329 -0.280195
C22   C     C_R   0.083994 0.069216 0.048671 -0.280197
C23   C     C_R   0.584005 0.430808 0.548657 -0.280163
C24   C     C_R   0.416005 0.569197 0.451330 -0.280210
C25   C     C_R   0.972334 0.941842 0.003995 0.104252
C26   C     C_R   0.027667 0.058156 0.996005 0.104259
C27   C     C_R   0.527676 0.441867 0.495992 0.104290
C28   C     C_R   0.472336 0.558145 0.503992 0.104191
H1    H     H_    0.127129 0.155122 0.041776 0.128596
H2    H     H_    0.872872 0.844874 0.958223 0.128598
H3    H     H_    0.372866 0.655075 0.458232 0.128588
H4    H     H_    0.627145 0.344926 0.541757 0.128588
H5    H     H_    0.068269 0.249855 0.928594 0.119153
H6    H     H_    0.931729 0.750154 0.071409 0.119163
H7    H     H_    0.431719 0.749756 0.571433 0.119258
H8    H     H_    0.568286 0.250217 0.428571 0.119115
C29   C     C_R   0.576173 0.177770 0.891857 -0.146809
C30   C     C_R   0.423832 0.822230 0.108149 -0.146886
C31   C     C_R   0.923827 0.677773 0.608143 -0.146875
C32   C     C_R   0.076171 0.322227 0.391854 -0.146856
C33   C     C_R   0.620515 0.029583 0.885293 -0.094891
C34   C     C_R   0.379494 0.970424 0.114717 -0.094950
C35   C     C_R   0.879489 0.529578 0.614712 -0.094950
C36   C     C_R   0.120510 0.470422 0.385287 -0.094944
C37   C     C_R   0.617144 0.870717 0.925978 -0.219306
C38   C     C_R   0.382880 0.129312 0.074047 -0.219171
C39   C     C_R   0.882871 0.370694 0.574037 -0.219206
C40   C     C_R   0.117127 0.629305 0.425961 -0.219196
C41   C     C_R   0.569916 0.857916 0.972536 0.001532
C42   C     C_R   0.430106 0.142108 0.027487 0.001494
C43   C     C_R   0.930097 0.357898 0.527477 0.001501
C44   C     C_R   0.069900 0.642102 0.472520 0.001509
C45   C     C_R   0.524431 0.005955 0.977361 -0.012454
C46   C     C_R   0.475587 0.994062 0.022658 -0.012462
C47   C     C_R   0.975577 0.505946 0.522648 -0.012455
C48   C     C_R   0.024420 0.494055 0.477350 -0.012473
C49   C     C_R   0.527736 0.166038 0.936903 0.071966
C50   C     C_R   0.472278 0.833973 0.063112 0.071971
C51   C     C_R   0.972269 0.666035 0.563102 0.071985
C52   C     C_R   0.027729 0.333966 0.436895 0.071968
C53   C     C_R   0.567001 0.699828 0.014263 0.409083
C54   C     C_R   0.433021 0.300197 0.985761 0.409097
C55   C     C_R   0.933012 0.199808 0.485750 0.409077
C56   C     C_R   0.066985 0.800192 0.514246 0.409036
C57   C     C_R   0.517712 0.688169 0.058239 -0.203414
C58   C     C_R   0.482305 0.311848 0.941781 -0.203431
C59   C     C_R   0.982297 0.188156 0.441771 -0.203401
C60   C     C_R   0.017701 0.811844 0.558227 -0.203409
H9    H     H_    0.578116 0.300604 0.860540 0.123998
H10   H     H_    0.421882 0.699384 0.139458 0.124028
H11   H     H_    0.921879 0.800617 0.639455 0.124021
H12   H     H_    0.078119 0.199384 0.360543 0.124022
H13   H     H_    0.651551 0.756977 0.921203 0.153320
H14   H     H_    0.348478 0.243063 0.078827 0.153338
H15   H     H_    0.848469 0.256943 0.578818 0.153337
H16   H     H_    0.151530 0.743055 0.421182 0.153344
H17   H     H_    0.514867 0.563842 0.088472 0.145571
H18   H     H_    0.485151 0.436174 0.911547 0.145553
H19   H     H_    0.985143 0.063829 0.411537 0.145565
H20   H     H_    0.014856 0.936171 0.588461 0.145555
O21   O     O_3   0.030765 0.752964 0.178360 -0.549804
C61   C     C_3   0.978933 0.817172 0.214491 0.065499
H21   H     H_    0.929089 0.758076 0.191707 0.123049
H22   H     H_    0.975491 0.971319 0.214434 0.106830
C62   C     C_3   0.994291 0.754454 0.288969 -0.692361
H23   H     H_    0.042731 0.817328 0.313536 0.222272
H24   H     H_    0.952976 0.798854 0.317548 0.172217
H25   H     H_    0.998457 0.601414 0.291438 0.228012
O22   O     O_3   0.969229 0.247063 0.821644 -0.549801
C63   C     C_3   0.021075 0.182927 0.785518 0.065494
H26   H     H_    0.024542 0.028785 0.785574 0.106829
H27   H     H_    0.070907 0.242081 0.808307 0.123051
C64   C     C_3   0.005712 0.245647 0.711041 -0.692358
H28   H     H_    0.001521 0.398682 0.708574 0.228012
H29   H     H_    0.047038 0.201311 0.682465 0.172219
H30   H     H_    0.957285 0.182717 0.686468 0.222268
O23   O     O_3   0.469232 0.253000 0.321620 -0.549808
C65   C     C_3   0.521118 0.317011 0.285523 0.065510
H31   H     H_    0.570919 0.257670 0.308311 0.123053
H32   H     H_    0.524656 0.471139 0.285613 0.106846
C66   C     C_3   0.505747 0.254421 0.211030 -0.692383
H33   H     H_    0.457346 0.317497 0.186458 0.222247
H34   H     H_    0.547097 0.298687 0.182474 0.172229
H35   H     H_    0.501502 0.101401 0.208530 0.228025
O24   O     O_3   0.530741 0.746951 0.678362 -0.549802
C67   C     C_3   0.479060 0.682174 0.714579 0.065471
H36   H     H_    0.475882 0.527984 0.714597 0.106802
H37   H     H_    0.429100 0.740605 0.691811 0.123038
C68   C     C_3   0.494385 0.745198 0.789021 -0.692328
H38   H     H_    0.498347 0.898285 0.791421 0.228018
H39   H     H_    0.453158 0.700449 0.817657 0.172182
H40   H     H_    0.542921 0.682836 0.813579 0.222312
O25   O     O_3   0.608748 0.549327 0.008663 -0.560358
C69   C     C_3   0.670729 0.571690 0.053450 0.094031
H41   H     H_    0.685684 0.719057 0.063840 0.097104
H42   H     H_    0.711568 0.508481 0.028259 0.139841
C70   C     C_3   0.668328 0.470195 0.121058 -0.764228
H43   H     H_    0.651753 0.324885 0.110761 0.233689
H44   H     H_    0.719600 0.470167 0.152255 0.182571
H45   H     H_    0.632593 0.540320 0.150946 0.204154
O26   O     O_3   0.391281 0.450709 0.991368 -0.560373
C71   C     C_3   0.329296 0.428370 0.946586 0.093998
H46   H     H_    0.288467 0.491646 0.971772 0.139857
H47   H     H_    0.314323 0.281008 0.936214 0.097111
C72   C     C_3   0.331705 0.529801 0.878965 -0.764227
H48   H     H_    0.367405 0.459559 0.849068 0.204115
H49   H     H_    0.280426 0.529929 0.847785 0.182584
H50   H     H_    0.348329 0.675080 0.889245 0.233725
O27   O     O_3   0.891269 0.049300 0.491354 -0.560364
C73   C     C_3   0.829285 0.071647 0.446568 0.094018
H51   H     H_    0.814325 0.219009 0.436180 0.097103
H52   H     H_    0.788450 0.008421 0.471759 0.139845
C74   C     C_3   0.831689 0.970158 0.378958 -0.764228
H53   H     H_    0.848281 0.824861 0.389254 0.233702
H54   H     H_    0.780414 0.970090 0.347768 0.182569
H55   H     H_    0.867412 0.040315 0.349066 0.204143
O28   O     O_3   0.108728 0.950697 0.508639 -0.560362
C75   C     C_3   0.170704 0.928380 0.553441 0.094027
H56   H     H_    0.211554 0.991469 0.528235 0.139829
H57   H     H_    0.185642 0.781027 0.563890 0.097097
C76   C     C_3   0.168303 0.030067 0.621010 -0.764144
H58   H     H_    0.132562 0.960049 0.650920 0.204127
H59   H     H_    0.219573 0.030148 0.652209 0.182575
H60   H     H_    0.151732 0.175357 0.610656 0.233710

loop_
_geom_bond_atom_site_label_1
_geom_bond_atom_site_label_2
_ccdc_geom_bond_type
O17   V3    S    
C24   H3    S    
C39   C43   A    
C3    C33   S    
O1    C5    A    
C74   H53   S    
C16   H8    S    
C55   C59   A    
C62   H23   S    
O19   V1    S    
O13   V1    S    
O3    C7    A    
C40   C44   A    
O15   V3    S    
C64   H29   S    
O28   C75   S    
C72   H48   S    
C5    C12   S    
C34   C38   A    
C45   C46   A    
O7    C3    A    
C6    C11   S    
C76   H58   S    
C50   C57   A    
C9    C18   A    
C32   C36   A    
O9    V1    S    
C14   C18   A    
C62   H24   S    
O16   V4    S    
O4    C8    A    
C29   H9    S    
C61   H21   S    
C56   O28   S    
C71   C72   S    
C31   H11   S    
C20   O23   S    
O1    V3    S    
C12   C23   A    
O2    V4    S    
O3    V1    S    
C32   C52   A    
C14   H6    S    
C70   H43   S    
C1    O15   A    
C58   H18   S    
C56   C60   A    
C2    O16   A    
C38   C42   A    
C68   H40   S    
C55   O27   S    
C37   C41   A    
O14   V2    S    
C52   C59   A    
C45   C49   A    
C44   C56   A    
C16   C20   A    
C71   H47   S    
C48   C52   A    
O11   C7    A    
C15   C28   A    
C30   C50   A    
O25   C69   S    
O12   C8    A    
C64   H30   S    
C13   C17   A    
C9    C22   A    
C10   C17   A    
O10   V2    S    
C11   C24   A    
O26   C71   S    
O5    V1    S    
C31   C35   A    
O7    V3    S    
C30   C34   A    
C27   C28   A    
O8    V4    S    
C19   O24   S    
C32   H12   S    
C73   C74   S    
C54   C58   A    
C62   H25   S    
C59   H19   S    
C14   C25   A    
C53   C57   A    
O18   V4    S    
C15   C19   A    
C4    C34   S    
C31   C51   A    
C36   C40   A    
C70   H44   S    
C74   H54   S    
C67   H37   S    
C1    C35   S    
O5    C1    A    
C51   C60   A    
C66   H35   S    
C75   C76   S    
C46   C50   A    
C63   H27   S    
C21   C25   A    
O8    C4    A    
C7    C10   S    
C15   H7    S    
O23   C65   S    
O9    C5    A    
C10   C21   A    
C42   C54   A    
C11   C20   A    
C41   C53   A    
C73   H51   S    
C71   H46   S    
C69   H42   S    
C49   C58   A    
C43   C55   A    
C76   H60   S    
O6    V2    S    
C21   H2    S    
C74   H55   S    
C30   H10   S    
C66   H33   S    
C72   H50   S    
C67   C68   S    
O12   V4    S    
C65   H32   S    
C54   O26   S    
C53   O25   S    
C66   H34   S    
O22   C63   S    
C40   H16   S    
C3    O13   A    
C57   H17   S    
C73   H52   S    
C44   C48   A    
C17   O22   S    
C69   C70   S    
O6    C2    A    
C23   C27   A    
O11   V3    S    
C70   H45   S    
C2    C36   S    
C75   H56   S    
C16   C27   A    
O21   C61   S    
C22   C26   A    
C8    C9    S    
O10   C6    A    
C65   C66   S    
C72   H49   S    
C67   H36   S    
O24   C67   S    
C75   H57   S    
C29   C49   A    
O2    C6    A    
C47   C51   A    
C13   C26   A    
C68   H38   S    
C61   H22   S    
C33   C37   A    
C22   H1    S    
O20   V2    S    
C35   C39   A    
C63   H26   S    
C39   H15   S    
C18   O21   S    
O4    V2    S    
C63   C64   S    
C69   H41   S    
C60   H20   S    
C47   C48   A    
C29   C33   A    
C24   C28   A    
C76   H59   S    
C25   C26   A    
C42   C46   A    
C4    O14   A    
C68   H39   S    
C41   C45   A    
C12   C19   A    
C65   H31   S    
C64   H28   S    
C43   C47   A    
C13   H5    S    
C38   H14   S    
C23   H4    S    
O27   C73   S    
C61   C62   S    
C37   H13   S    
