data_mof_unit_14653.cif
_audit_creation_date              2012-12-11T15:10:48-0500
_audit_creation_method            fapswitch 2.2
_symmetry_space_group_name_H-M    P1
_symmetry_Int_Tables_number       1
_space_group_crystal_system       triclinic
_cell_length_a                    21.245657
_cell_length_b                    7.220337
_cell_length_c                    18.181528
_cell_angle_alpha                 89.909386
_cell_angle_beta                  93.332446
_cell_angle_gamma                 89.998763
_cell_volume                      2784.3413622

loop_
_atom_site_label
_atom_site_type_symbol
_atom_type_description
_atom_site_fract_x
_atom_site_fract_y
_atom_site_fract_z
_atom_type_partial_charge
O1    O     O_R   0.448880 0.506250 0.415280 -0.527968
O2    O     O_R   0.551120 0.006250 0.584720 -0.527405
O3    O     O_R   0.434830 0.174000 0.557310 -0.527381
O4    O     O_R   0.565170 0.674000 0.442690 -0.527916
C1    C     C_R   0.417156 0.344648 0.579968 0.700117
C2    C     C_R   0.582685 0.844757 0.419843 0.699669
O5    O     O_R   0.441680 0.176440 0.414130 -0.529395
O6    O     O_R   0.558320 0.676440 0.585870 -0.529604
O7    O     O_R   0.558020 0.007570 0.440520 -0.516139
O8    O     O_R   0.441980 0.507570 0.559480 -0.516242
C3    C     C_R   0.428249 0.345954 0.388007 0.710909
C4    C     C_R   0.571647 0.845685 0.612138 0.710577
O9    O     O_3   0.538160 0.339670 0.508820 -0.365468
O10   O     O_3   0.461840 0.839670 0.491180 -0.365596
V1    V     V_3+5 0.492920 0.064260 0.498360 1.436801
V2    V     V_3+5 0.507080 0.564260 0.501640 1.436032
C5    C     C_R   0.880775 0.873337 0.687141 0.393232
C6    C     C_R   0.119456 0.359472 0.311376 0.373545
C7    C     C_R   0.887516 0.932475 0.818946 -0.288816
C8    C     C_R   0.112833 0.431590 0.180593 -0.282321
C9    C     C_R   0.581200 0.897730 0.745743 -0.216979
C10   C     C_R   0.418792 0.410144 0.255379 -0.214382
C11   C     C_R   0.615138 0.950258 0.810145 0.477591
C12   C     C_R   0.384669 0.466439 0.191594 0.479451
C13   C     C_R   0.680805 0.961907 0.811574 -0.232366
C14   C     C_R   0.318931 0.471911 0.189823 -0.230106
C15   C     C_R   0.714851 0.908627 0.750390 0.052862
C16   C     C_R   0.285175 0.408352 0.249796 0.051206
C17   C     C_R   0.679225 0.869925 0.683306 0.012246
C18   C     C_R   0.320781 0.364028 0.316423 0.013499
C19   C     C_R   0.782738 0.903314 0.752706 -0.091032
C20   C     C_R   0.217422 0.398857 0.246864 -0.094729
C21   C     C_R   0.813409 0.881867 0.685038 -0.176709
C22   C     C_R   0.186638 0.366728 0.313720 -0.164821
C23   C     C_R   0.776793 0.861953 0.617258 0.471151
C24   C     C_R   0.222844 0.334727 0.381021 0.480136
C25   C     C_R   0.710568 0.851362 0.618440 -0.275010
C26   C     C_R   0.289206 0.331565 0.380455 -0.288926
C27   C     C_R   0.821455 0.911829 0.820189 0.300792
C28   C     C_R   0.178945 0.412448 0.179345 0.297834
C29   C     C_R   0.916733 0.903821 0.753026 0.241332
C30   C     C_R   0.083500 0.400583 0.246199 0.226695
C31   C     C_R   0.612000 0.861536 0.681456 -0.138830
C32   C     C_R   0.388058 0.363038 0.318703 -0.137532
H1    H     H_    0.530129 0.895579 0.744420 0.164816
H2    H     H_    0.469871 0.413513 0.257171 0.165045
H3    H     H_    0.703666 0.021300 0.860259 0.210762
H4    H     H_    0.295655 0.534812 0.142005 0.209516
H5    H     H_    0.682075 0.832719 0.568202 0.101006
H6    H     H_    0.317455 0.307253 0.430549 0.102584
C33   C     C_1   0.864255 0.939025 0.131750 -0.193143
C34   C     C_1   0.136406 0.440947 0.869068 -0.194886
C35   C     C_1   0.821132 0.925733 0.175164 0.008294
C36   C     C_1   0.179875 0.429547 0.826035 0.003060
C37   C     C_1   0.770272 0.907310 0.226925 0.014807
C38   C     C_1   0.230671 0.411455 0.774123 0.020324
C39   C     C_1   0.727547 0.890723 0.270703 0.019953
C40   C     C_1   0.272987 0.393711 0.729873 0.024200
C41   C     C_1   0.676889 0.871400 0.322647 0.015559
C42   C     C_1   0.323080 0.372451 0.677285 0.014904
C43   C     C_1   0.634237 0.856889 0.366640 -0.201205
C44   C     C_1   0.365484 0.356791 0.633028 -0.202815
O11   O     O_R   0.058070 0.289240 0.940580 -0.535129
O12   O     O_R   0.941930 0.789240 0.059420 -0.532929
O13   O     O_R   0.058330 0.616740 0.085880 -0.543062
O14   O     O_R   0.941670 0.116740 0.914120 -0.544820
C45   C     C_R   0.072516 0.447417 0.111414 0.818424
C46   C     C_R   0.927713 0.947553 0.888325 0.806369
O15   O     O_R   0.065180 0.619040 0.942700 -0.513458
O16   O     O_R   0.934820 0.119040 0.057300 -0.512378
O17   O     O_R   0.948870 0.787780 0.915270 -0.530341
O18   O     O_R   0.051130 0.287780 0.084730 -0.531671
C47   C     C_R   0.083434 0.450575 0.920444 0.711296
C48   C     C_R   0.916742 0.950242 0.079771 0.714567
O19   O     O_3   0.961870 0.453310 0.991210 -0.374376
O20   O     O_3   0.038130 0.953310 0.008790 -0.375890
V3    V     V_3+5 0.007070 0.728770 0.001630 1.405041
V4    V     V_3+5 0.992930 0.228770 0.998370 1.402854
O21   O     O_3   0.980431 0.863943 0.755181 -0.571948
C49   C     C_3   0.016201 0.025649 0.745262 0.123864
H7    H     H_    0.036654 0.069843 0.800129 0.130106
H8    H     H_    0.988554 0.144225 0.720629 0.101712
C50   C     C_3   0.069141 0.977858 0.694867 -0.293030
H9    H     H_    0.087058 0.835852 0.707444 0.209289
H10   H     H_    0.050326 0.980662 0.636551 0.198342
C51   C     C_3   0.124245 0.111551 0.704707 -0.854308
H11   H     H_    0.108029 0.257071 0.698161 0.233271
H12   H     H_    0.158983 0.081834 0.663118 0.226742
H13   H     H_    0.147789 0.092120 0.760279 0.245992
O22   O     O_3   0.019025 0.372854 0.243589 -0.573660
C52   C     C_3   0.987608 0.533674 0.266038 0.131884
H14   H     H_    0.960937 0.591658 0.216840 0.129870
H15   H     H_    0.019332 0.645429 0.289075 0.083985
C53   C     C_3   0.941722 0.477994 0.323997 -0.278847
H16   H     H_    0.919331 0.343049 0.308809 0.210326
H17   H     H_    0.968052 0.460808 0.378194 0.205589
C54   C     C_3   0.889794 0.621057 0.330932 -0.877979
H18   H     H_    0.909776 0.760702 0.342469 0.234231
H19   H     H_    0.860652 0.579627 0.376714 0.235513
H20   H     H_    0.859250 0.625709 0.279353 0.244857
O23   O     O_3   0.807929 0.864533 0.551430 -0.556858
C55   C     C_3   0.776602 0.774431 0.490411 0.073659
H21   H     H_    0.806100 0.795312 0.442772 0.148737
H22   H     H_    0.731758 0.843830 0.473066 0.111165
C56   C     C_3   0.769624 0.563702 0.501982 -0.377557
H23   H     H_    0.816791 0.497499 0.504460 0.186441
H24   H     H_    0.747577 0.532937 0.554476 0.198907
C57   C     C_3   0.729533 0.474643 0.439325 -0.773529
H25   H     H_    0.680202 0.524183 0.439993 0.238674
H26   H     H_    0.729622 0.321835 0.446497 0.232800
H27   H     H_    0.748455 0.508114 0.385228 0.230029
O24   O     O_3   0.190841 0.318168 0.445995 -0.548659
C58   C     C_3   0.222649 0.220715 0.504841 0.092900
H28   H     H_    0.191771 0.226270 0.551949 0.142557
H29   H     H_    0.266241 0.292489 0.525362 0.102942
C59   C     C_3   0.233078 0.014860 0.487106 -0.365953
H30   H     H_    0.186719 0.945621 0.477698 0.200855
H31   H     H_    0.259274 0.998909 0.436465 0.195097
C60   C     C_3   0.270095 0.916825 0.550206 -0.776767
H32   H     H_    0.317459 0.980476 0.559521 0.236842
H33   H     H_    0.276142 0.768447 0.536178 0.232514
H34   H     H_    0.244561 0.925658 0.601639 0.225558
O25   O     O_3   0.913760 0.844710 0.624535 -0.543044
C61   C     C_3   0.913625 0.654626 0.605128 0.173449
H35   H     H_    0.907900 0.649363 0.544091 0.158314
H36   H     H_    0.873997 0.573462 0.626931 0.079977
C62   C     C_3   0.976424 0.562005 0.628472 -0.335660
H37   H     H_    0.016068 0.654809 0.616204 0.211571
H38   H     H_    0.978597 0.533753 0.688647 0.207281
C63   C     C_3   0.984016 0.380530 0.586930 -0.862336
H39   H     H_    0.946065 0.281637 0.599613 0.251964
H40   H     H_    0.030344 0.317882 0.603045 0.243197
H41   H     H_    0.982271 0.406687 0.526636 0.238364
O26   O     O_3   0.087480 0.314611 0.373148 -0.536548
C64   C     C_3   0.076318 0.121545 0.373543 0.149896
H42   H     H_    0.121161 0.042766 0.369994 0.103882
H43   H     H_    0.043352 0.081230 0.326417 0.124283
C65   C     C_3   0.046415 0.069819 0.445217 -0.303816
H44   H     H_    0.076537 0.120726 0.492986 0.219223
H45   H     H_    0.999468 0.137212 0.446364 0.197599
C66   C     C_3   0.038192 0.860926 0.452468 -0.840536
H46   H     H_    0.008996 0.806637 0.404924 0.233629
H47   H     H_    0.014061 0.829964 0.503503 0.250623
H48   H     H_    0.084635 0.790014 0.455208 0.242843
O27   O     O_3   0.796358 0.881409 0.887803 -0.581171
C67   C     C_3   0.803989 0.692816 0.908846 0.090012
H49   H     H_    0.823074 0.689997 0.967051 0.145684
H50   H     H_    0.837964 0.613674 0.876224 0.111490
C68   C     C_3   0.740282 0.593407 0.903955 -0.319179
H51   H     H_    0.706319 0.670131 0.936796 0.253172
H52   H     H_    0.721599 0.589343 0.845653 0.202247
C69   C     C_3   0.746283 0.395099 0.932744 -0.732597
H53   H     H_    0.778606 0.314134 0.899209 0.223820
H54   H     H_    0.699217 0.327832 0.929185 0.279076
H55   H     H_    0.764607 0.394353 0.991225 0.231927
O28   O     O_3   0.204397 0.388849 0.111543 -0.581079
C70   C     C_3   0.197754 0.201764 0.088361 0.086105
H56   H     H_    0.179935 0.202866 0.029680 0.143702
H57   H     H_    0.163188 0.119453 0.119024 0.110324
C71   C     C_3   0.261683 0.103581 0.094144 -0.315522
H58   H     H_    0.296207 0.183443 0.063136 0.252547
H59   H     H_    0.279159 0.095747 0.152828 0.202533
C72   C     C_3   0.256727 0.907289 0.063281 -0.730302
H60   H     H_    0.223660 0.823437 0.094829 0.223011
H61   H     H_    0.303853 0.840497 0.067790 0.284768
H62   H     H_    0.239841 0.910431 0.004310 0.230808
S1    S     S_3+6 0.574926 0.013067 0.888371 0.029572
O29   O     O_2   0.614889 0.969331 0.957163 -0.323160
O30   O     O_2   0.561771 0.217523 0.885323 -0.311440
O31   O     O_3   0.506358 0.896898 0.889272 -0.477330
H63   H     H_    0.486929 0.938761 0.934604 0.402887
S2    S     S_3+6 0.424605 0.542324 0.114863 0.025668
O32   O     O_2   0.385895 0.500006 0.045061 -0.322647
O33   O     O_2   0.434625 0.747926 0.120767 -0.318685
O34   O     O_3   0.494910 0.435767 0.113341 -0.475798
H64   H     H_    0.514424 0.486562 0.069429 0.401966

loop_
_geom_bond_atom_site_label_1
_geom_bond_atom_site_label_2
_ccdc_geom_bond_type
C64   C65   S    
O14   C46   A    
O23   C55   S    
O16   V4    S    
O12   V3    S    
C8    C45   S    
O15   V3    S    
C72   H60   S    
O1    C3    A    
C33   C48   S    
O17   V3    S    
O2    C4    A    
C2    O7    A    
C54   H18   S    
O25   C61   S    
S1    O30   D    
C59   H30   S    
O5    C3    A    
C56   H24   S    
C70   H56   S    
C2    C43   S    
C57   H27   S    
O28   C70   S    
C72   H61   S    
C12   C14   A    
C67   H49   S    
C4    C31   S    
C6    C30   A    
C8    C28   A    
C51   H12   S    
C39   C41   S    
C15   C17   A    
O31   H63   S    
C40   C42   S    
C10   H2    S    
C57   H25   S    
C18   C26   A    
C55   C56   S    
C42   C44   T    
C45   O18   A    
O18   V4    S    
C9    C31   A    
C5    O25   S    
C10   C32   A    
O34   H64   S    
S2    O33   D    
O13   C45   A    
O16   C48   A    
C19   C21   A    
O15   C47   A    
C38   C40   T    
C64   H42   S    
C13   H3    S    
C67   H50   S    
S2    O34   S    
C14   H4    S    
C53   H17   S    
C58   C59   S    
O5    V1    S    
C70   H57   S    
C17   C31   A    
C18   C32   A    
C55   H21   S    
C5    C21   A    
C49   C50   S    
O24   C58   S    
C54   H19   S    
C34   C36   T    
O27   C67   S    
S1    O31   S    
C9    H1    S    
C60   H33   S    
C9    C11   A    
O14   V4    S    
C56   C57   S    
C36   C38   S    
C41   C43   T    
O13   V3    S    
C26   H6    S    
C15   C19   A    
C71   C72   S    
C16   C20   A    
C72   H62   S    
O20   V3    S    
O4    C2    A    
C34   C47   S    
C65   H44   S    
C68   C69   S    
S1    O29   D    
C51   H11   S    
O11   C47   A    
C53   C54   S    
C23   O23   S    
C65   C66   S    
C30   O22   S    
C66   H47   S    
C20   C22   A    
O4    V2    S    
C63   H40   S    
C62   H38   S    
C24   O24   S    
C52   H15   S    
C67   C68   S    
C25   H5    S    
C50   H9    S    
C69   H55   S    
O6    C4    A    
C27   O27   S    
C50   C51   S    
C7    C46   S    
O1    V2    S    
C55   H22   S    
O2    V1    S    
C6    C22   A    
C7    C27   A    
C59   H31   S    
C61   C62   S    
C11   S1    S    
C49   H8    S    
C50   H10   S    
C69   H54   S    
C70   C71   S    
C37   C39   T    
C10   C12   A    
C66   H48   S    
C63   H41   S    
C35   C37   S    
C62   H37   S    
C3    C32   S    
C52   H14   S    
C54   H20   S    
O3    V1    S    
S2    O32   D    
C61   H36   S    
C58   H28   S    
C60   H34   S    
C64   H43   S    
C23   C25   A    
C49   H7    S    
O3    C1    A    
C51   H13   S    
C29   O21   S    
C8    C30   A    
C60   H32   S    
C57   H26   S    
O26   C64   S    
C65   H45   S    
C13   C15   A    
C56   H23   S    
C14   C16   A    
C59   C60   S    
C71   H58   S    
C68   H52   S    
C63   H39   S    
O7    V1    S    
C62   C63   S    
C1    O8    A    
O8    V2    S    
C66   H46   S    
C52   C53   S    
O22   C52   S    
C46   O17   A    
C16   C18   A    
C21   C23   A    
C19   C27   A    
C1    C44   S    
C6    O26   S    
C22   C24   A    
C20   C28   A    
C53   H16   S    
C12   S2    S    
O19   V4    S    
C5    C29   A    
C24   C26   A    
O21   C49   S    
C11   C13   A    
C69   H53   S    
O6    V2    S    
O9    V2    S    
C17   C25   A    
O12   C48   A    
O10   V1    S    
C28   O28   S    
C33   C35   T    
C68   H51   S    
C7    C29   A    
C71   H59   S    
C61   H35   S    
C58   H29   S    
O11   V4    S    
