data_mof_unit_25727.cif
_audit_creation_date              2012-12-10T17:07:39-0500
_audit_creation_method            fapswitch 2.2
_symmetry_space_group_name_H-M    P1
_symmetry_Int_Tables_number       1
_space_group_crystal_system       triclinic
_cell_length_a                    19.3749
_cell_length_b                    11.074803
_cell_length_c                    9.794263
_cell_angle_alpha                 111.252811
_cell_angle_beta                  97.954379
_cell_angle_gamma                 91.084508
_cell_volume                      1934.37085433

loop_
_atom_site_label
_atom_site_type_symbol
_atom_type_description
_atom_site_fract_x
_atom_site_fract_y
_atom_site_fract_z
_atom_type_partial_charge
C1    C     C_R   0.496515 0.254430 0.440644 0.889493
C2    C     C_R   0.503327 0.745574 0.559290 0.871525
C3    C     C_2   0.486741 0.116711 0.408785 -0.323145
C4    C     C_2   0.512431 0.883366 0.590754 -0.340342
C5    C     C_2   0.514321 0.063933 0.505365 0.128254
C6    C     C_2   0.485442 0.935111 0.492640 0.148424
C7    C     C_2   0.505678 0.511188 0.081617 -0.006203
C8    C     C_2   0.493951 0.489595 0.918661 -0.010805
C9    C     C_R   0.367602 0.502620 0.502393 0.888750
C10   C     C_R   0.632250 0.497006 0.497658 0.870838
C11   C     C_R   0.266155 0.583301 0.636022 0.024766
C12   C     C_R   0.734489 0.398938 0.376524 0.041538
C13   C     C_R   0.194631 0.572503 0.645161 0.427993
C14   C     C_R   0.807145 0.392238 0.381676 0.431116
C15   C     C_R   0.147405 0.492347 0.519875 -0.139964
C16   C     C_R   0.853253 0.483974 0.500299 -0.149467
C17   C     C_R   0.173602 0.415982 0.392117 -0.317332
C18   C     C_R   0.825884 0.576124 0.616379 -0.295893
C19   C     C_R   0.244823 0.421952 0.383634 0.417228
C20   C     C_R   0.754016 0.581758 0.614058 0.422935
C21   C     C_R   0.291981 0.503556 0.507348 -0.244915
C22   C     C_R   0.707717 0.492920 0.494334 -0.247214
C23   C     C_R   0.929831 0.485154 0.505702 0.448529
C24   C     C_R   0.070701 0.489138 0.516613 0.459475
Cu1   Cu    Cu3+1 0.512140 0.521810 0.644910 1.015513
Cu2   Cu    Cu3+1 0.487860 0.478190 0.355090 1.005262
H1    H     H_    0.138721 0.349493 0.297314 0.194353
H2    H     H_    0.860254 0.645613 0.709733 0.195605
H3    H     H_    0.548618 0.938870 0.689547 0.164104
H4    H     H_    0.449597 0.062419 0.311135 0.178012
H5    H     H_    0.453506 0.417037 0.845371 0.158614
H6    H     H_    0.545730 0.584470 0.155134 0.162429
H7    H     H_    0.568414 0.622962 0.934725 0.209084
H8    H     H_    0.432390 0.375897 0.064679 0.194305
N1    N     N_R   0.042142 0.548316 0.640907 -0.185321
N2    N     N_R   0.958297 0.427192 0.381111 -0.172894
N3    N     N_R   0.973173 0.546231 0.635700 -0.247594
N4    N     N_R   0.027224 0.428912 0.386531 -0.252447
N5    N     N_2   0.469620 0.445420 0.137370 -0.274227
N6    N     N_2   0.530380 0.554580 0.862630 -0.266568
O1    O     O_R   0.506480 0.332340 0.577400 -0.558031
O2    O     O_R   0.493520 0.667660 0.422600 -0.561770
O3    O     O_R   0.485980 0.295500 0.332650 -0.558053
O4    O     O_R   0.514020 0.704500 0.667350 -0.571121
O5    O     O_R   0.410390 0.518410 0.622410 -0.574112
O6    O     O_R   0.589610 0.481590 0.377590 -0.573148
O7    O     O_R   0.389900 0.481570 0.377660 -0.545081
O8    O     O_R   0.610100 0.518430 0.622340 -0.520432
I1    I     I_    0.330838 0.733193 0.814556 -0.276551
I2    I     I_    0.668295 0.257522 0.192359 -0.294416
O9    O     O_3   0.170809 0.647047 0.774225 -0.535467
C25   C     C_3   0.176975 0.578473 0.871775 0.080197
H9    H     H_    0.232191 0.557980 0.898923 0.147752
H10   H     H_    0.144138 0.484772 0.822634 0.138333
C26   C     C_3   0.152331 0.660384 0.015648 -0.691619
H11   H     H_    0.096912 0.680867 0.992912 0.258479
H12   H     H_    0.156732 0.607532 0.093167 0.178010
H13   H     H_    0.185044 0.753669 0.068580 0.267398
O10   O     O_3   0.832602 0.297446 0.267741 -0.537174
C27   C     C_3   0.845370 0.189044 0.308823 0.093159
H14   H     H_    0.796279 0.147122 0.326842 0.158194
H15   H     H_    0.884442 0.215775 0.411756 0.137708
C28   C     C_3   0.874239 0.085033 0.184854 -0.719063
H16   H     H_    0.924537 0.122738 0.167618 0.258827
H17   H     H_    0.883283 0.998214 0.214409 0.197085
H18   H     H_    0.836517 0.056345 0.080229 0.251842
O11   O     O_3   0.268817 0.338100 0.259099 -0.552570
C29   C     C_3   0.251814 0.381834 0.140491 0.078482
H19   H     H_    0.283167 0.474097 0.162562 0.169927
H20   H     H_    0.195277 0.397693 0.121288 0.127553
C30   C     C_3   0.268478 0.279679 0.998630 -0.740116
H21   H     H_    0.234052 0.189666 0.968735 0.261798
H22   H     H_    0.259759 0.316527 0.906649 0.180269
H23   H     H_    0.323697 0.256119 0.014098 0.251178
O12   O     O_3   0.729304 0.670230 0.734272 -0.550970
C31   C     C_3   0.723739 0.789343 0.713199 0.046771
H24   H     H_    0.687537 0.777087 0.609387 0.130776
H25   H     H_    0.775937 0.830450 0.708695 0.150422
C32   C     C_3   0.694590 0.885713 0.843105 -0.708560
H26   H     H_    0.729264 0.899483 0.948655 0.248127
H27   H     H_    0.691146 0.980828 0.829703 0.233165
H28   H     H_    0.641613 0.849072 0.848105 0.252324
I3    I     I_    0.394343 0.838974 0.330668 -0.345178
I4    I     I_    0.606576 0.158232 0.664073 -0.358155

loop_
_geom_bond_atom_site_label_1
_geom_bond_atom_site_label_2
_ccdc_geom_bond_type
C26   H11   S    
C28   H17   S    
C9    O5    A    
C31   C32   S    
C7    C8    S    
C10   C22   S    
C14   O10   S    
C27   C28   S    
C19   C21   A    
C31   H25   S    
Cu1   N6    S    
C5    C6    S    
Cu2   N5    S    
C12   C22   A    
O9    C25   S    
C27   H15   S    
C13   O9    S    
C1    O3    A    
C2    O4    A    
C29   H19   S    
C10   O6    A    
C24   N4    A    
C19   O11   S    
C6    I3    S    
C4    H3    S    
C25   C26   S    
C28   H18   S    
O10   C27   S    
Cu1   O4    S    
C25   H10   S    
Cu2   O3    S    
C24   N1    A    
O11   C29   S    
H7    N6    S    
C18   H2    S    
C31   H24   S    
C4    C6    D    
Cu1   O1    S    
C32   H27   S    
C5    I4    S    
Cu1   Cu2   S    
C23   N3    A    
C11   C21   A    
H8    N5    S    
C20   O12   S    
C27   H14   S    
C1    C3    S    
C17   H1    S    
C3    H4    S    
C2    C4    S    
O12   C31   S    
C11   I1    S    
C32   H28   S    
C13   C15   A    
Cu1   O8    S    
Cu2   O7    S    
C1    O1    A    
C15   C24   S    
C12   C14   A    
C9    O7    A    
C16   C23   S    
C26   H12   S    
C10   O8    A    
C14   C16   A    
C32   H26   S    
Cu1   O5    S    
C25   H9    S    
Cu2   O2    S    
C30   H22   S    
C15   C17   A    
C7    H6    S    
N1    N3    A    
C8    H5    S    
C20   C22   A    
C3    C5    D    
C30   H23   S    
C12   I2    S    
N2    N4    A    
C30   H21   S    
C11   C13   A    
C9    C21   S    
C2    O2    A    
C29   C30   S    
C17   C19   A    
C18   C20   A    
Cu2   O6    S    
C28   H16   S    
C16   C18   A    
C23   N2    A    
C26   H13   S    
C29   H20   S    
C7    N5    D    
C8    N6    D    
