data_mof_unit_10413.cif
_audit_creation_date              2013-03-05T15:46:25-0500
_audit_creation_method            fapswitch 2.2
_symmetry_space_group_name_H-M    P1
_symmetry_Int_Tables_number       1
_space_group_crystal_system       triclinic
_cell_length_a                    15.909832
_cell_length_b                    10.793768
_cell_length_c                    10.043024
_cell_angle_alpha                 109.853038
_cell_angle_beta                  99.4012
_cell_angle_gamma                 92.922614
_cell_volume                      1589.80160182

loop_
_atom_site_label
_atom_site_type_symbol
_atom_site_description
_atom_site_fract_x
_atom_site_fract_y
_atom_site_fract_z
_atom_type_partial_charge
O1    O     O_R   0.507820 0.332330 0.577400 -0.599590
O2    O     O_R   0.483070 0.295500 0.332660 -0.560117
C1    C     C_R   0.498516 0.253890 0.443007 0.829338
O3    O     O_R   0.391820 0.518430 0.622420 -0.587708
O4    O     O_R   0.367070 0.481600 0.377680 -0.569551
C2    C     C_R   0.340879 0.499444 0.499240 0.817604
Cu1   Cu    Cu3+1 0.514650 0.521810 0.644910 0.955025
Cu2   Cu    Cu3+1 0.485350 0.478190 0.355090 0.958027
O5    O     O_R   0.516930 0.704500 0.667340 -0.564943
O6    O     O_R   0.492180 0.667670 0.422600 -0.568217
O7    O     O_R   0.632930 0.518400 0.622320 -0.550140
O8    O     O_R   0.608180 0.481570 0.377580 -0.580784
C3    C     C_R   0.509373 0.746786 0.557629 0.858354
C4    C     C_R   0.659144 0.500424 0.500702 0.785212
C5    C     C_3   0.065679 0.472150 0.638908 0.140546
C6    C     C_3   0.030675 0.378781 0.348074 0.257134
C7    C     C_3   0.928186 0.374726 0.356767 0.287861
C8    C     C_1   0.748448 0.501346 0.501812 -0.082790
C9    C     C_3   0.083071 0.497715 0.493744 -0.174980
C10   C     C_3   0.966174 0.496774 0.652028 0.335757
C11   C     C_3   0.916214 0.503563 0.497129 -0.173981
C12   C     C_3   0.951460 0.640874 0.478040 0.182069
C13   C     C_3   0.056070 0.644815 0.497441 0.391268
C14   C     C_1   0.823747 0.502679 0.500411 0.198428
C15   C     C_1   0.176025 0.498168 0.495745 0.194765
C16   C     C_1   0.251574 0.498732 0.497504 -0.072351
C17   C     C_2   0.506601 0.112757 0.419747 -0.024140
C18   C     C_2   0.564681 0.077778 0.513494 0.164279
C19   C     C_2   0.519302 0.889970 0.583456 -0.000340
C20   C     C_2   0.564705 0.938090 0.503807 0.183665
N1    N     N_2   0.463320 0.445430 0.137380 -0.140914
C21   C     C_2   0.517234 0.471825 0.060702 0.220278
N2    N     N_2   0.536720 0.554500 0.862620 -0.146052
C22   C     C_2   0.491702 0.477120 0.910089 0.332542
C23   C     C_3   0.921065 0.388822 0.698062 -0.750195
H1    H     H_    0.951333 0.400367 0.810138 0.262509
H2    H     H_    0.852492 0.401435 0.700355 0.233866
H3    H     H_    0.923738 0.284769 0.635317 0.212668
C24   C     C_3   0.135841 0.553634 0.778123 -0.594886
H4    H     H_    0.140324 0.661175 0.819839 0.297445
H5    H     H_    0.127374 0.525008 0.872044 0.232803
H6    H     H_    0.201886 0.532093 0.763145 0.180106
N3    N     N_R   0.958524 0.620694 0.773312 0.191794
O9    O     O_R   0.008182 0.650759 0.898892 -0.309215
O10   O     O_R   0.883025 0.660298 0.780389 -0.284680
C25   C     C_3   0.906523 0.647961 0.329402 -0.609789
H7    H     H_    0.835934 0.629277 0.314770 0.241339
H8    H     H_    0.914958 0.749301 0.325836 0.269485
H9    H     H_    0.927363 0.585950 0.232982 0.224438
C26   C     C_3   0.620838 0.855690 0.408710 -0.835868
H10   H     H_    0.660997 0.918087 0.369551 0.241456
H11   H     H_    0.664346 0.807921 0.469789 0.246816
H12   H     H_    0.580589 0.779274 0.313044 0.231259
C27   C     C_3   0.634384 0.175632 0.626998 -0.778438
H13   H     H_    0.683266 0.122951 0.671754 0.251165
H14   H     H_    0.667724 0.238051 0.579103 0.209703
H15   H     H_    0.607190 0.238825 0.718492 0.249142
C28   C     C_3   0.474150 0.979624 0.693689 -0.856461
H16   H     H_    0.438899 0.922776 0.745178 0.253289
H17   H     H_    0.521696 0.055768 0.779455 0.241959
H18   H     H_    0.427035 0.029232 0.640945 0.248449
C29   C     C_3   0.446770 0.009017 0.294724 -0.823540
H19   H     H_    0.402836 0.055144 0.232348 0.251001
H20   H     H_    0.484492 0.944565 0.220770 0.238740
H21   H     H_    0.406970 0.947294 0.335074 0.257510
C30   C     C_3   0.421449 0.370050 0.808307 -0.744132
H22   H     H_    0.434920 0.272641 0.816122 0.189325
H23   H     H_    0.357894 0.398170 0.829455 0.182561
H24   H     H_    0.407379 0.349249 0.694724 0.269374
C31   C     C_3   0.612215 0.474357 0.109644 -0.696797
H25   H     H_    0.624433 0.384413 0.136229 0.272095
H26   H     H_    0.648147 0.467329 0.021970 0.213883
H27   H     H_    0.638645 0.567474 0.200525 0.233085
C32   C     C_3   0.588029 0.676322 0.960571 -0.535421
H28   H     H_    0.571950 0.759463 0.923907 0.228993
H29   H     H_    0.575095 0.705000 0.071294 0.151849
H30   H     H_    0.657122 0.665935 0.961448 0.217150
C33   C     C_3   0.085660 0.329802 0.636536 -0.691831
H31   H     H_    0.152817 0.313467 0.624489 0.254020
H32   H     H_    0.079378 0.315884 0.739386 0.221693
H33   H     H_    0.044948 0.245787 0.555723 0.252683
C34   C     C_3   0.373770 0.394356 0.075652 -0.474578
H34   H     H_    0.342699 0.360547 0.148496 0.236088
H35   H     H_    0.337083 0.471109 0.050560 0.179852
H36   H     H_    0.367040 0.297155 0.988219 0.164655
C35   C     C_3   0.053750 0.400813 0.210829 -0.581932
H37   H     H_    0.124193 0.414622 0.219882 0.228086
H38   H     H_    0.035644 0.310858 0.112452 0.273010
H39   H     H_    0.026931 0.481677 0.183017 0.216437
N4    N     N_R   0.060920 0.246042 0.328848 0.131124
O11   O     O_R   0.142133 0.236092 0.363254 -0.368654
O12   O     O_R   0.016498 0.141678 0.228545 -0.275161
C36   C     C_3   0.888093 0.242232 0.366897 -0.624674
H40   H     H_    0.830511 0.255485 0.416870 0.180801
H41   H     H_    0.863986 0.166291 0.258055 0.283691
H42   H     H_    0.930745 0.189023 0.418390 0.211841
N5    N     N_R   0.874609 0.371937 0.218234 0.117560
O13   O     O_R   0.889631 0.292704 0.096308 -0.330387
O14   O     O_R   0.795343 0.396969 0.214758 -0.409688
N6    N     N_R   0.103640 0.746304 0.634960 0.142841
O15   O     O_R   0.068712 0.806808 0.744458 -0.258971
O16   O     O_R   0.185124 0.780033 0.647052 -0.323315
N7    N     N_R   0.084956 0.688202 0.384195 0.120634
O17   O     O_R   0.154156 0.650720 0.336511 -0.360974
O18   O     O_R   0.064478 0.801288 0.376943 -0.251209
N8    N     N_R   0.925017 0.764102 0.577716 0.220075
O19   O     O_R   0.845655 0.766863 0.594649 -0.333881
O20   O     O_R   0.962542 0.877815 0.586754 -0.251223

loop_
_geom_bond_atom_site_label_1
_geom_bond_atom_site_label_2
_geom_bond_distance
_ccdc_geom_bond_type
C30   H23   1.103328 S    
C6    N4    1.494778 S    
C36   H40   1.107450 S    
C4    C8    1.418539 S    
C23   H1    1.111707 S    
C22   C30   1.523944 S    
N5    O13   1.301189 A    
Cu1   Cu2   2.741262 S    
C24   H5    1.112903 S    
C5    C9    1.635659 S    
C25   H9    1.087622 S    
C29   H19   1.110481 S    
N1    C34   1.455091 S    
C32   H29   1.105507 S    
C8    C14   1.199782 T    
C3    C19   1.473169 S    
C23   H2    1.109295 S    
O4    C2    1.309893 A    
O7    C4    1.310392 A    
C33   H32   1.112241 S    
C30   H24   1.067353 S    
N8    O19   1.301757 A    
C28   H17   1.110189 S    
O5    C3    1.319364 A    
C29   H20   1.110419 S    
C25   H7    1.107424 S    
C10   C23   1.573378 S    
C13   N7    1.494871 S    
C6    C7    1.646261 S    
C32   H30   1.109538 S    
C26   H11   1.110754 S    
C31   H25   1.109022 S    
C28   H18   1.110431 S    
C13   N6    1.492185 S    
C20   C26   1.511108 S    
C36   H41   1.111875 S    
C11   C12   1.640491 S    
C6    C35   1.571696 S    
Cu1   N2    2.059362 S    
O3    Cu1   1.927225 S    
N5    O14   1.300539 A    
Cu1   O7    1.932594 S    
C24   H6    1.110670 S    
C25   H8    1.108590 S    
C5    C10   1.637526 S    
C27   H14   1.110707 S    
C26   H12   1.104691 S    
C32   H28   1.106102 S    
C23   H3    1.092349 S    
O3    C2    1.308650 A    
C24   H4    1.086038 S    
C18   C27   1.514800 S    
C33   H31   1.110994 S    
C21   C31   1.506611 S    
C26   H10   1.111136 S    
C28   H16   1.110684 S    
C12   N8    1.496169 S    
C35   H39   1.089276 S    
C7    C11   1.655447 S    
O1    C1    1.306231 A    
C21   C22   1.522050 S    
C9    C13   1.655781 S    
N3    O9    1.300171 A    
C19   C20   1.365332 D    
C17   C29   1.510752 S    
N4    O12   1.303328 A    
N1    C21   1.322817 D    
Cu2   O8    1.927223 S    
C31   H27   1.108376 S    
N6    O16   1.303200 A    
N2    C22   1.326218 D    
N7    O18   1.301754 A    
C10   C11   1.654276 S    
N3    O10   1.300094 A    
C5    C24   1.590343 S    
C12   C25   1.574752 S    
O8    C4    1.308647 A    
C36   H42   1.088387 S    
C34   H35   1.110671 S    
C7    C36   1.577797 S    
N7    O17   1.300459 A    
C10   N3    1.498658 S    
C35   H37   1.107706 S    
Cu1   O5    1.904950 S    
C27   H13   1.111172 S    
C29   H21   1.110500 S    
O1    Cu1   1.914622 S    
Cu2   N1    2.059221 S    
O2    Cu2   1.904947 S    
O6    C3    1.308241 A    
O4    Cu2   1.932596 S    
C34   H36   1.102427 S    
C1    C17   1.476420 S    
O2    C1    1.323109 A    
C15   C16   1.198879 T    
C33   H33   1.081234 S    
N4    O11   1.301510 A    
C2    C16   1.417693 S    
N8    O20   1.305012 A    
C6    C9    1.643172 S    
C18   C20   1.477575 S    
N6    O15   1.301340 A    
C30   H22   1.109548 S    
C35   H38   1.108511 S    
C9    C15   1.475473 S    
C5    C33   1.577910 S    
N2    C32   1.453520 S    
C19   C28   1.510347 S    
Cu2   O6    1.914623 S    
C34   H34   1.092627 S    
C11   C14   1.476495 S    
C17   C18   1.369540 D    
C12   C13   1.640419 S    
C31   H26   1.109663 S    
C7    N5    1.498228 S    
C27   H15   1.109517 S    
