data_mof_unit_63026.cif
_audit_creation_date              2012-12-10T18:13:14-0500
_audit_creation_method            fapswitch 2.2
_symmetry_space_group_name_H-M    P1
_symmetry_Int_Tables_number       1
_space_group_crystal_system       triclinic
_cell_length_a                    36.737964
_cell_length_b                    29.161659
_cell_length_c                    21.621329
_cell_angle_alpha                 89.958768
_cell_angle_beta                  127.51049
_cell_angle_gamma                 90.031201
_cell_volume                      18374.4865057

loop_
_atom_site_label
_atom_site_type_symbol
_atom_type_description
_atom_site_fract_x
_atom_site_fract_y
_atom_site_fract_z
_atom_type_partial_charge
C1    C     C_R   0.913245 0.999986 0.913312 0.944808
C2    C     C_1   0.229430 0.999788 0.228029 0.022797
C3    C     C_3   0.446273 0.481507 0.229993 -0.243219
C4    C     C_1   0.862592 0.999920 0.863218 -0.182263
C5    C     C_1   0.137413 0.999911 0.137041 -0.207018
C6    C     C_1   0.362601 0.499842 0.863931 -0.205345
C7    C     C_1   0.637403 0.499962 0.136643 -0.180709
C8    C     C_3   0.891158 0.970666 0.729316 0.096725
C9    C     C_3   0.860629 0.934069 0.668062 -0.387135
C10   C     C_3   0.828909 0.912179 0.683039 -0.903963
C11   C     C_3   0.038075 0.119987 0.234115 0.068022
C12   C     C_3   0.017987 0.138877 0.153003 -0.324778
C13   C     C_1   0.270582 0.499917 0.773007 0.029847
C14   C     C_3   0.016394 0.191160 0.151909 -0.956886
C15   C     C_3   0.108782 0.969245 0.270649 0.096074
C16   C     C_3   0.138807 0.932488 0.332009 -0.387736
C17   C     C_3   0.170300 0.909862 0.317199 -0.909318
C18   C     C_3   0.962997 0.120349 0.766780 0.068943
C19   C     C_3   0.983552 0.139067 0.848158 -0.325282
C20   C     C_3   0.985686 0.191329 0.849642 -0.958252
C21   C     C_3   0.450234 0.389115 0.776076 0.112496
C22   C     C_3   0.446460 0.356049 0.717280 -0.407645
C23   C     C_3   0.442166 0.306474 0.734680 -0.910856
C24   C     C_1   0.729423 0.499838 0.227717 0.016032
C25   C     C_3   0.537466 0.620200 0.234044 0.067982
C26   C     C_3   0.516857 0.639362 0.152878 -0.324272
C27   C     C_3   0.514852 0.691624 0.152112 -0.951473
C28   C     C_3   0.608785 0.470432 0.270648 0.097385
C29   C     C_3   0.639261 0.433765 0.331839 -0.384039
C30   C     C_3   0.670917 0.411861 0.316776 -0.914546
C31   C     C_3   0.388097 0.557317 0.684352 0.063496
C32   C     C_3   0.380162 0.573607 0.742459 -0.347624
C33   C     C_3   0.345146 0.612424 0.708782 -0.933762
C34   C     C_2   0.053277 0.926970 0.867680 0.946216
C35   C     C_1   0.728358 0.999801 0.730344 0.018030
C36   C     C_2   0.907865 0.001771 0.085406 0.956360
C37   C     C_2   0.946609 0.926916 0.132541 0.946010
C38   C     C_2   0.092302 0.001391 0.914645 0.968132
C39   C     C_2   0.590978 0.486402 0.913389 0.957329
C40   C     C_2   0.407723 0.501501 0.085385 0.966443
C41   C     C_2   0.446602 0.427009 0.132291 0.945174
C42   C     C_2   0.561834 0.565408 0.877188 0.935566
C43   C     C_2   0.070030 0.935506 0.758653 1.004512
C44   C     C_2   0.910286 0.017940 0.213830 0.945372
C45   C     C_2   0.929960 0.935647 0.241285 1.011334
C46   C     C_1   0.271645 0.999797 0.269821 0.018420
C47   C     C_2   0.089791 0.017798 0.785936 0.948222
C48   C     C_2   0.586367 0.470931 0.782652 0.934193
C49   C     C_2   0.410257 0.517866 0.214081 0.947872
C50   C     C_2   0.429848 0.435538 0.241318 1.004945
C51   C     C_2   0.577371 0.555107 0.767049 1.022896
C52   C     C_1   0.228362 0.499956 0.730957 0.017724
C53   C     C_1   0.771640 0.499837 0.269597 0.018736
C54   C     C_1   0.678517 0.999855 0.680707 0.012321
C55   C     C_1   0.321484 0.999852 0.319377 0.012890
C56   C     C_1   0.178516 0.499984 0.681024 0.012513
C57   C     C_R   0.086758 0.999985 0.086872 0.941632
C58   C     C_1   0.821482 0.499878 0.319265 0.012789
C59   C     C_1   0.636283 0.999915 0.638219 -0.191908
C60   C     C_1   0.363717 0.999914 0.361809 -0.191601
C61   C     C_1   0.136281 0.499995 0.638324 -0.191451
C62   C     C_1   0.863716 0.499928 0.361772 -0.191587
C63   C     C_R   0.999997 0.913245 0.499995 0.970274
C64   C     C_R   0.000003 0.086752 0.500004 0.896493
C65   C     C_R   0.499997 0.413246 0.500085 0.931982
C66   C     C_R   0.500004 0.586753 0.499976 0.926702
C67   C     C_R   0.000868 0.996838 0.623173 0.950866
C68   C     C_R   0.413247 0.499962 0.913424 0.962802
C69   C     C_R   0.999134 0.996955 0.376811 0.949441
C70   C     C_R   0.500933 0.502389 0.623325 0.943819
C71   C     C_R   0.499132 0.496749 0.376845 0.952434
C72   C     C_R   0.499997 0.085567 0.499978 0.874199
C73   C     C_R   0.500001 0.914434 0.500021 0.874726
C74   C     C_R   1.000000 0.585567 0.499980 0.874814
C75   C     C_R   0.000000 0.414434 0.500020 0.873969
C76   C     C_R   0.585571 0.999983 0.586254 0.874468
C77   C     C_R   0.414429 0.999982 0.413749 0.874237
C78   C     C_R   0.085570 0.500001 0.586267 0.874178
C79   C     C_R   0.586752 0.500002 0.086539 0.940863
C80   C     C_R   0.914429 0.499984 0.413744 0.874367
C81   C     C_1   0.999991 0.862575 0.499972 -0.151112
C82   C     C_1   0.000009 0.137428 0.500025 -0.216905
C83   C     C_1   0.499980 0.362574 0.500018 -0.182590
C84   C     C_1   0.500017 0.637426 0.500046 -0.191578
C85   C     C_R   0.999437 0.000013 0.876936 0.968868
C86   C     C_R   0.000867 0.999969 0.123363 0.959651
C87   C     C_R   0.498458 0.500032 0.875960 0.986513
C88   C     C_R   0.500584 0.499987 0.123089 0.967232
C89   C     C_1   0.999990 0.820362 0.499955 0.025677
C90   C     C_1   0.820392 0.999844 0.821489 0.006615
C91   C     C_1   0.000010 0.179643 0.500041 0.005014
C92   C     C_1   0.499966 0.320360 0.499975 0.016539
C93   C     C_1   0.500025 0.679641 0.500084 0.013843
C94   C     C_1   0.999991 0.770528 0.499939 0.022371
C95   C     C_1   0.000009 0.229476 0.500056 0.009598
C96   C     C_1   0.499960 0.270527 0.499947 0.016817
C97   C     C_1   0.500026 0.729475 0.500103 0.015167
C98   C     C_1   0.499964 0.228310 0.499933 0.014439
C99   C     C_1   0.500023 0.771691 0.500103 0.013642
C100  C     C_1   0.999992 0.728311 0.499931 0.019024
C101  C     C_1   0.179613 0.999835 0.178776 0.017411
C102  C     C_1   0.000007 0.271693 0.500065 0.009499
C103  C     C_1   0.499974 0.178473 0.499927 0.009941
C104  C     C_1   0.500016 0.821528 0.500090 0.010071
C105  C     C_1   0.999995 0.678474 0.499930 0.012903
C106  C     C_1   0.000004 0.321529 0.500068 0.007416
C107  C     C_1   0.499985 0.136254 0.499936 -0.193051
C108  C     C_1   0.500009 0.863747 0.500067 -0.192559
C109  C     C_1   0.999997 0.636254 0.499941 -0.190844
C110  C     C_1   0.000002 0.363748 0.500058 -0.194456
C111  C     C_3   0.960779 0.969737 0.745002 0.322253
C112  C     C_1   0.320402 0.499857 0.822381 0.025022
C113  C     C_3   0.003480 0.049020 0.221068 0.418239
C114  C     C_3   0.039186 0.969400 0.255058 0.325233
C115  C     C_3   0.996958 0.049116 0.779169 0.417843
C116  C     C_3   0.489609 0.451948 0.772076 0.407710
C117  C     C_3   0.503178 0.549032 0.220927 0.418737
C118  C     C_3   0.539178 0.469586 0.255016 0.322088
C119  C     C_3   0.465121 0.535824 0.749138 0.340694
C120  C     C_3   0.966329 0.963065 0.680689 -0.420205
C121  C     C_3   0.009469 0.045246 0.297725 -0.469884
C122  C     C_3   0.033774 0.963121 0.319624 -0.416978
C123  C     C_1   0.679604 0.499893 0.178392 0.011851
C124  C     C_3   0.990715 0.045237 0.702294 -0.469446
C125  C     C_3   0.484594 0.456174 0.696474 -0.450400
C126  C     C_3   0.509398 0.545117 0.297781 -0.471439
C127  C     C_3   0.533605 0.462908 0.319322 -0.419420
C128  C     C_3   0.470757 0.540538 0.684477 -0.456909
C129  C     C_3   0.050575 0.977378 0.841222 -0.378808
C130  C     C_3   0.949501 0.977487 0.158759 -0.371422
C131  C     C_3   0.552635 0.515770 0.843786 -0.377130
C132  C     C_3   0.449400 0.477401 0.158787 -0.377324
C133  C     C_3   0.002262 0.999327 0.812242 -0.156149
C134  C     C_1   0.770574 0.999795 0.772196 0.013503
C135  C     C_3   0.997963 0.999210 0.187963 -0.159545
C136  C     C_3   0.501752 0.500591 0.811794 -0.160160
C137  C     C_3   0.497760 0.499263 0.187794 -0.155439
C138  C     C_3   0.003660 0.996257 0.693623 -0.107512
C139  C     C_3   0.996394 0.996324 0.306397 -0.110389
C140  C     C_3   0.503772 0.502972 0.693834 -0.104988
C141  C     C_3   0.496343 0.496165 0.306401 -0.107851
C142  C     C_3   0.053703 0.981499 0.770012 -0.242944
C143  C     C_3   0.946350 0.981612 0.229894 -0.234687
C144  C     C_3   0.555235 0.511450 0.772033 -0.229278
H1    H     H_    0.961051 0.934971 0.766595 0.114868
H2    H     H_    0.045916 0.052330 0.347851 0.226176
H3    H     H_    0.067498 0.969566 0.377150 0.210901
H4    H     H_    0.954235 0.052332 0.652324 0.227196
H5    H     H_    0.447632 0.453493 0.645407 0.227841
H6    H     H_    0.545892 0.552140 0.347767 0.227210
H7    H     H_    0.567318 0.468973 0.377051 0.212049
H8    H     H_    0.436531 0.537463 0.626549 0.197655
H9    H     H_    0.974806 0.926814 0.679193 0.205341
H10   H     H_    0.989353 0.072258 0.300878 0.163364
H11   H     H_    0.025544 0.926918 0.322019 0.210995
H12   H     H_    0.971815 0.068686 0.178130 0.160954
H13   H     H_    0.010806 0.072187 0.698878 0.162627
H14   H     H_    0.501357 0.426886 0.690075 0.155970
H15   H     H_    0.489360 0.572097 0.301212 0.161350
H16   H     H_    0.525047 0.426671 0.320785 0.205532
H17   H     H_    0.483036 0.575462 0.685646 0.213932
H18   H     H_    0.868836 0.997171 0.727543 0.171869
H19   H     H_    0.911843 0.955699 0.788953 0.122677
H20   H     H_    0.839552 0.950005 0.609176 0.240548
H21   H     H_    0.882311 0.906951 0.669339 0.220975
H22   H     H_    0.849341 0.895604 0.741370 0.271067
H23   H     H_    0.038450 0.934594 0.233253 0.115657
H24   H     H_    0.807328 0.885691 0.638047 0.269783
H25   H     H_    0.806063 0.938500 0.680157 0.264369
H26   H     H_    0.073099 0.134291 0.276589 0.175275
H27   H     H_    0.017471 0.131816 0.253228 0.122154
H28   H     H_    0.039383 0.127320 0.135536 0.235146
H29   H     H_    0.982610 0.125560 0.109775 0.236795
H30   H     H_    0.994531 0.203463 0.167956 0.272975
H31   H     H_    0.001671 0.203726 0.092431 0.268022
H32   H     H_    0.051517 0.205451 0.193449 0.267473
H33   H     H_    0.131473 0.995324 0.272495 0.172213
H34   H     H_    0.028762 0.068595 0.821877 0.167270
H35   H     H_    0.087966 0.954280 0.211022 0.123077
H36   H     H_    0.160042 0.948432 0.390861 0.240627
H37   H     H_    0.116764 0.905791 0.330717 0.219034
H38   H     H_    0.149696 0.893219 0.258947 0.269016
H39   H     H_    0.191563 0.883318 0.362324 0.269150
H40   H     H_    0.193456 0.935758 0.319987 0.265074
H41   H     H_    0.928065 0.134943 0.724703 0.175385
H42   H     H_    0.983489 0.132008 0.747333 0.121856
H43   H     H_    0.962212 0.127748 0.865887 0.235856
H44   H     H_    0.018817 0.125397 0.891038 0.237124
H45   H     H_    0.518531 0.428259 0.811487 0.156767
H46   H     H_    0.007513 0.203389 0.833356 0.272937
H47   H     H_    0.000724 0.203770 0.909296 0.267926
H48   H     H_    0.950692 0.205972 0.808459 0.268107
H49   H     H_    0.420794 0.382888 0.777165 0.175040
H50   H     H_    0.481709 0.382085 0.836303 0.140200
H51   H     H_    0.415889 0.365060 0.657408 0.242619
H52   H     H_    0.477481 0.358936 0.719842 0.220937
H53   H     H_    0.472623 0.296655 0.794117 0.266829
H54   H     H_    0.439983 0.283377 0.691719 0.270150
H55   H     H_    0.410670 0.302044 0.730413 0.264683
H56   H     H_    0.471434 0.568597 0.178245 0.167487
H57   H     H_    0.572491 0.634581 0.276174 0.176642
H58   H     H_    0.517139 0.631745 0.253844 0.121297
H59   H     H_    0.538107 0.628269 0.134879 0.238777
H60   H     H_    0.481550 0.625808 0.109913 0.236300
H61   H     H_    0.493125 0.703453 0.168707 0.271246
H62   H     H_    0.499761 0.704415 0.092600 0.269846
H63   H     H_    0.549891 0.706156 0.193388 0.268844
H64   H     H_    0.631144 0.496919 0.272424 0.172704
H65   H     H_    0.588055 0.455526 0.210989 0.121837
H66   H     H_    0.660387 0.449639 0.390746 0.240643
H67   H     H_    0.538835 0.434828 0.233398 0.114247
H68   H     H_    0.617540 0.406664 0.330556 0.220121
H69   H     H_    0.650434 0.395340 0.258428 0.268207
H70   H     H_    0.692466 0.385327 0.361733 0.269913
H71   H     H_    0.693794 0.438163 0.319647 0.264740
H72   H     H_    0.355147 0.544215 0.631424 0.177059
H73   H     H_    0.398402 0.586707 0.664987 0.121769
H74   H     H_    0.367314 0.544401 0.757061 0.228857
H75   H     H_    0.413016 0.585672 0.796807 0.225898
H76   H     H_    0.357596 0.642428 0.694791 0.266386
H77   H     H_    0.339969 0.623081 0.752225 0.270720
H78   H     H_    0.471135 0.569769 0.777319 0.122597
H79   H     H_    0.311714 0.600843 0.655086 0.266114
H80   H     H_    0.079723 0.882002 0.956864 0.347135
H81   H     H_    0.838915 0.003525 0.004379 0.349240
H82   H     H_    0.966829 0.860865 0.162038 0.352191
H83   H     H_    0.117791 0.051495 0.995575 0.345447
H84   H     H_    0.659222 0.476459 0.993838 0.348594
H85   H     H_    0.382328 0.551733 0.004598 0.344289
H86   H     H_    0.420105 0.382119 0.043072 0.345978
H87   H     H_    0.550956 0.633632 0.857362 0.352017
H88   H     H_    0.120584 0.888208 0.806376 0.351773
H89   H     H_    0.932624 0.969200 0.622972 0.212109
H90   H     H_    0.885117 0.082379 0.181275 0.352975
H91   H     H_    0.879394 0.888347 0.193585 0.350505
H92   H     H_    0.115140 0.082172 0.818594 0.353862
H93   H     H_    0.603319 0.403848 0.806492 0.352844
H94   H     H_    0.385051 0.582291 0.181478 0.353371
H95   H     H_    0.379202 0.388323 0.193550 0.351874
H96   H     H_    0.633672 0.595435 0.820890 0.350256
O1    O     O_R   0.936850 0.964330 0.936870 -0.594671
O2    O     O_R   0.000010 0.035670 0.092610 -0.578815
O3    O     O_R   0.000010 0.964330 0.092610 -0.648531
O4    O     O_R   0.999990 0.035670 0.907390 -0.573914
O5    O     O_R   0.499990 0.464330 0.907390 -0.587068
O6    O     O_R   0.500010 0.535670 0.092610 -0.571610
O7    O     O_R   0.500010 0.464330 0.092610 -0.653463
O8    O     O_R   0.499990 0.535670 0.907390 -0.648484
O9    O     O_R   0.964320 0.936860 0.464320 -0.593587
O10   O     O_R   0.035680 0.063140 0.535680 -0.597707
O11   O     O_R   0.035680 0.936860 0.535680 -0.594017
O12   O     O_R   0.063150 0.035670 0.063130 -0.599240
O13   O     O_R   0.964320 0.063140 0.464320 -0.597975
O14   O     O_R   0.464320 0.436860 0.464320 -0.585625
O15   O     O_R   0.535680 0.563140 0.535680 -0.582122
O16   O     O_R   0.535680 0.436860 0.535680 -0.605146
O17   O     O_R   0.464320 0.563140 0.464320 -0.607642
O18   O     O_R   0.964330 1.000000 0.556950 -0.632887
O19   O     O_R   0.035670 0.000000 0.443050 -0.632961
O20   O     O_R   0.464330 0.500000 0.556950 -0.635045
O21   O     O_R   0.535670 0.500000 0.443050 -0.633036
O22   O     O_R   0.035630 0.000000 0.628230 -0.598798
O23   O     O_R   0.063150 0.964330 0.063130 -0.592778
O24   O     O_R   0.964370 0.000000 0.371770 -0.598874
O25   O     O_R   0.535630 0.500000 0.628230 -0.595302
O26   O     O_R   0.464370 0.500000 0.371770 -0.599023
O27   O     O_R   0.499940 0.063120 0.447680 -0.589017
O28   O     O_R   0.500060 0.936880 0.552320 -0.589504
O29   O     O_R   0.500060 0.063120 0.552320 -0.591273
O30   O     O_R   0.499940 0.936880 0.447680 -0.590659
O31   O     O_R   0.999940 0.563120 0.447680 -0.589754
O32   O     O_R   0.000060 0.436880 0.552320 -0.590487
O33   O     O_R   0.000060 0.563120 0.552320 -0.589179
O34   O     O_R   0.936850 0.035670 0.936870 -0.593409
O35   O     O_R   0.999940 0.436880 0.447680 -0.590836
O36   O     O_R   0.563110 0.000000 0.510830 -0.591409
O37   O     O_R   0.436890 1.000000 0.489170 -0.592056
O38   O     O_R   0.063110 0.500000 0.510830 -0.591979
O39   O     O_R   0.936890 0.500000 0.489170 -0.591410
O40   O     O_R   0.563120 1.000000 0.615390 -0.588266
O41   O     O_R   0.436880 1.000000 0.384610 -0.587502
O42   O     O_R   0.063120 0.500000 0.615390 -0.587596
O43   O     O_R   0.936880 0.500000 0.384610 -0.588065
O44   O     O_3   0.918346 0.992672 0.712048 -0.590459
O45   O     O_R   0.436850 0.464330 0.936870 -0.581996
O46   O     O_3   0.042204 0.071640 0.234995 -0.587109
O47   O     O_3   0.081790 0.991907 0.287696 -0.590785
O48   O     O_3   0.958477 0.072037 0.765608 -0.587337
O49   O     O_3   0.447493 0.435416 0.753674 -0.590996
O50   O     O_3   0.541708 0.571886 0.234509 -0.586796
O51   O     O_3   0.581662 0.492443 0.288000 -0.590272
O52   O     O_3   0.419994 0.520608 0.716934 -0.587818
O53   O     O_2   0.030771 0.896477 0.820133 -0.653249
O54   O     O_R   0.081246 0.915726 0.947195 -0.751115
O55   O     O_2   0.912468 0.034439 0.055253 -0.653890
O56   O     O_R   0.563150 0.535670 0.063130 -0.582139
O57   O     O_R   0.863633 0.985480 0.052256 -0.719339
O58   O     O_2   0.922277 0.916900 0.063133 -0.574188
O59   O     O_R   0.971824 0.891930 0.187124 -0.838469
O60   O     O_2   0.130971 0.986972 0.943920 -0.540125
O61   O     O_R   0.087330 0.039212 0.948631 -0.831023
O62   O     O_2   0.582488 0.454020 0.938638 -0.641376
O63   O     O_R   0.636854 0.497537 0.948728 -0.721195
O64   O     O_2   0.369027 0.487120 0.056057 -0.540643
O65   O     O_R   0.412765 0.539374 0.051505 -0.831983
O66   O     O_2   0.469022 0.396462 0.179816 -0.654220
O67   O     O_R   0.563150 0.464330 0.063130 -0.602861
O68   O     O_R   0.418647 0.415841 0.052766 -0.752993
O69   O     O_2   0.585938 0.571822 0.947780 -0.582146
O70   O     O_R   0.542349 0.603619 0.827856 -0.834751
O71   O     O_2   0.046291 0.913784 0.697785 -0.654668
O72   O     O_R   0.113280 0.918435 0.819755 -0.729661
O73   O     O_2   0.880757 0.008004 0.221384 -0.573060
O74   O     O_R   0.910411 0.062438 0.189781 -0.847415
O75   O     O_2   0.953624 0.913968 0.302248 -0.654372
O76   O     O_R   0.886726 0.918563 0.180163 -0.724125
O77   O     O_2   0.119200 0.007850 0.778118 -0.571817
O78   O     O_R   0.436850 0.535670 0.936870 -0.611856
O79   O     O_R   0.089849 0.062258 0.810211 -0.849835
O80   O     O_2   0.616614 0.477101 0.775426 -0.573465
O81   O     O_R   0.580854 0.426797 0.801217 -0.846652
O82   O     O_2   0.380813 0.507958 0.221857 -0.572252
O83   O     O_R   0.410304 0.562336 0.189861 -0.850022
O84   O     O_2   0.453531 0.413775 0.302186 -0.649997
O85   O     O_R   0.386571 0.418540 0.180189 -0.729820
O86   O     O_2   0.556524 0.580124 0.709767 -0.640489
O87   O     O_R   0.622556 0.566226 0.829965 -0.725923
O88   O     O_R   0.999990 0.964330 0.907390 -0.649318
Zn1   Zn    Zn3+2 0.000000 0.952370 0.000000 1.006209
Zn2   Zn    Zn3+2 0.500030 1.000000 0.569830 0.982706
Zn3   Zn    Zn3+2 0.999970 0.500000 0.430170 0.983263
Zn4   Zn    Zn3+2 0.000030 0.500000 0.569830 0.984979
Zn5   Zn    Zn3+2 0.000000 0.047630 0.000000 0.981684
Zn6   Zn    Zn3+2 0.500000 0.452370 0.000000 0.999493
Zn7   Zn    Zn3+2 0.500000 0.547630 0.000000 0.990610
Zn8   Zn    Zn3+2 0.952370 1.000000 0.452390 1.031553
Zn9   Zn    Zn3+2 0.047630 1.000000 0.547610 1.031564
Zn10  Zn    Zn3+2 0.452370 0.500000 0.452390 1.027473
Zn11  Zn    Zn3+2 0.547630 0.500000 0.547610 1.034879
Zn12  Zn    Zn3+2 0.499970 1.000000 0.430170 0.984767

loop_
_geom_bond_atom_site_label_1
_geom_bond_atom_site_label_2
_ccdc_geom_bond_type
C69   C139  S    
C70   C140  S    
C117  O50   S    
C111  O44   S    
C19   C20   S    
C66   O17   A    
C29   H66   S    
C12   H28   S    
C11   H27   S    
C122  C139  S    
C13   C112  S    
O21   Zn11  S    
C18   O48   S    
C48   C144  S    
C89   C94   S    
C67   C138  S    
C30   H71   S    
C17   H38   S    
C46   C55   S    
C15   O47   S    
O1    Zn1   S    
C21   H50   S    
C117  C126  S    
C44   O73   D    
C95   C102  T    
C119  C128  S    
C21   C22   S    
C42   O70   S    
O38   Zn3   S    
O3    Zn1   S    
C35   C134  T    
C5    C101  T    
C121  H10   S    
C76   O40   A    
C38   C129  S    
O78   Zn7   S    
H90   O74   S    
O14   Zn10  S    
C125  H14   S    
C73   C108  S    
C129  C142  S    
C28   H65   S    
C50   O84   D    
O37   Zn2   S    
C82   C91   T    
C27   H61   S    
C9    H20   S    
C45   O76   S    
C14   H31   S    
C36   C130  S    
C19   H44   S    
C86   O2    A    
C125  H5    S    
C64   O10   A    
C50   O85   S    
C131  C136  S    
C47   O79   S    
C48   O81   S    
C118  O51   S    
C48   O80   D    
C120  C138  S    
C29   H68   S    
C7    C79   S    
O15   Zn11  S    
C126  C141  S    
C75   O35   A    
C87   C136  S    
C7    C123  T    
C53   C58   S    
C51   O86   D    
O13   Zn8   S    
C119  C136  S    
C68   O78   A    
C26   H59   S    
C8    H18   S    
C30   H69   S    
C17   H40   S    
C39   C131  S    
O34   Zn5   S    
C90   C134  S    
C84   C93   T    
C24   C123  S    
C67   O18   A    
C88   O6    A    
C68   O45   A    
O20   Zn10  S    
C80   O43   A    
C10   H24   S    
C113  C135  S    
C22   C23   S    
C43   C142  S    
C103  C107  T    
O9    Zn8   S    
H91   O76   S    
C32   H74   S    
C37   O59   S    
O31   Zn3   S    
C38   O60   D    
C15   H35   S    
C122  H11   S    
C3    C141  S    
C20   H47   S    
C114  H23   S    
O23   Zn1   S    
O7    Zn6   S    
C126  H15   S    
C10   H25   S    
C62   C80   S    
C25   H57   S    
O12   Zn5   S    
C75   O32   A    
C41   O66   D    
C92   C96   S    
C127  C141  S    
C127  H7    S    
C34   O54   S    
O8    Zn7   S    
C139  C143  S    
C128  H8    S    
O45   Zn6   S    
C96   C98   T    
C47   O77   D    
C80   O39   A    
O42   Zn4   S    
C42   C131  S    
C9    C10   S    
C71   C141  S    
C3    C50   S    
C87   O5    A    
C54   C59   T    
C125  C140  S    
C43   O72   S    
O5    Zn6   S    
C16   C17   S    
C25   C26   S    
C85   O4    A    
C118  H67   S    
C29   C30   S    
C73   O28   A    
C120  H89   S    
H87   O70   S    
C31   C32   S    
C94   C100  T    
C10   H22   S    
H84   O63   S    
C1    O34   A    
C71   O26   A    
C116  C125  S    
C15   H33   S    
C72   O29   A    
C22   H51   S    
C118  C127  S    
C93   C97   S    
C64   O13   A    
C105  C109  T    
C75   C110  S    
O88   Zn1   S    
C41   O68   S    
O2    Zn5   S    
C25   O50   S    
C121  C139  S    
O35   Zn3   S    
C128  C140  S    
C126  H6    S    
O40   Zn2   S    
C51   O87   S    
C44   C143  S    
H80   O54   S    
O18   Zn8   S    
C119  H78   S    
C91   C95   S    
C86   C135  S    
C113  C121  S    
H94   O83   S    
O24   Zn8   S    
C121  H2    S    
C77   O41   A    
C127  H16   S    
C16   H36   S    
C33   H77   S    
C58   C62   T    
C63   O11   A    
C116  H45   S    
C130  C135  S    
H83   O61   S    
O39   Zn4   S    
C124  H4    S    
C23   H54   S    
C26   C27   S    
C39   O62   D    
C124  C138  S    
C28   C29   S    
C73   O30   A    
C20   H46   S    
C8    O44   S    
C98   C103  S    
C18   C19   S    
C45   O75   D    
C14   H32   S    
C49   O83   S    
C19   H43   S    
C34   C129  S    
C86   O3    A    
O33   Zn4   S    
H93   O81   S    
C85   O88   A    
C69   O19   A    
C81   C89   T    
C70   O20   A    
C99   C104  S    
O22   Zn9   S    
C55   C60   T    
H95   O85   S    
C35   C54   S    
O43   Zn3   S    
C4    C90   T    
C3    C132  S    
C138  C142  S    
C16   H37   S    
C115  C133  S    
O17   Zn10  S    
O26   Zn10  S    
C119  O52   S    
C26   H60   S    
C113  O46   S    
C30   H70   S    
C13   C52   T    
C17   H39   S    
C115  O48   S    
C124  H13   S    
O56   Zn7   S    
C122  H3    S    
C78   O38   A    
C117  H56   S    
O25   Zn11  S    
C33   H79   S    
C63   O9    A    
O36   Zn12  S    
C42   O69   D    
C21   O49   S    
C113  H12   S    
C104  C108  T    
C37   O58   D    
C57   O23   A    
C38   O61   S    
C115  C124  S    
C18   H41   S    
C6    C112  T    
C140  C144  S    
C28   O51   S    
C20   H48   S    
C41   C132  S    
C74   O31   A    
C116  C136  S    
O27   Zn12  S    
C74   O33   A    
O4    Zn5   S    
C5    C57   S    
C27   H62   S    
C32   C33   S    
C9    H21   S    
O6    Zn7   S    
C24   C53   T    
O67   Zn6   S    
C14   H30   S    
C128  H17   S    
C88   C137  S    
C115  H34   S    
C11   H26   S    
C45   C143  S    
C56   C61   T    
C132  C137  S    
C131  C144  S    
C85   C133  S    
C12   H29   S    
C31   H73   S    
C71   O21   A    
O28   Zn2   S    
O30   Zn12  S    
C74   C109  S    
C3    C49   S    
C87   O8    A    
C51   C144  S    
C2    C46   T    
C83   C92   T    
C47   C142  S    
C100  C105  S    
C63   C81   S    
H82   O59   S    
C43   O71   D    
C111  H1    S    
C79   O56   A    
C114  O47   S    
C65   C83   S    
C15   C16   S    
C65   O16   A    
C23   H55   S    
C116  O49   S    
H81   O57   S    
C37   C130  S    
C76   O36   A    
C39   O63   S    
C77   O37   A    
C40   O64   D    
C78   O42   A    
C36   O55   D    
C8    C9    S    
O19   Zn9   S    
C114  C135  S    
C118  C137  S    
H96   O87   S    
C6    C68   S    
C40   C132  S    
C65   O14   A    
C22   H52   S    
O11   Zn9   S    
C97   C99   T    
C69   O24   A    
C60   C77   S    
C25   H58   S    
C31   O52   S    
C111  C133  S    
C31   H72   S    
C2    C101  S    
C18   H42   S    
C72   O27   A    
C111  C120  S    
O41   Zn12  S    
C34   O53   D    
H86   O68   S    
C72   C107  S    
C61   C78   S    
O10   Zn9   S    
O29   Zn2   S    
C57   O12   A    
C130  C143  S    
C64   C82   S    
C1    O1    A    
C12   C14   S    
O16   Zn11  S    
C129  C133  S    
C40   O65   S    
C67   O22   A    
C70   O25   A    
C106  C110  T    
C33   H76   S    
H88   O72   S    
O32   Zn4   S    
C117  C137  S    
C11   O46   S    
C44   O74   S    
C8    H19   S    
C11   C12   S    
H92   O79   S    
C23   H53   S    
C1    C4    S    
C21   H49   S    
C88   O7    A    
C36   O57   S    
C28   H64   S    
C59   C76   S    
C120  H9    S    
C102  C106  S    
C27   H63   S    
C79   O67   A    
C32   H75   S    
H85   O65   S    
C49   O82   D    
C66   C84   S    
C114  C122  S    
C66   O15   A    
C52   C56   S    
