data_mof_unit_55684.cif
_audit_creation_date              2012-12-10T20:46:52-0500
_audit_creation_method            fapswitch 2.2
_symmetry_space_group_name_H-M    P1
_symmetry_Int_Tables_number       1
_space_group_crystal_system       triclinic
_cell_length_a                    12.869732
_cell_length_b                    8.933109
_cell_length_c                    8.113231
_cell_angle_alpha                 90.00081
_cell_angle_beta                  96.701096
_cell_angle_gamma                 89.998026
_cell_volume                      926.379376924

loop_
_atom_site_label
_atom_site_type_symbol
_atom_type_description
_atom_site_fract_x
_atom_site_fract_y
_atom_site_fract_z
_atom_type_partial_charge
Br1   Br    Br    0.787642 0.322886 0.217882 -0.411820
Br2   Br    Br    0.212366 0.322835 0.782090 -0.411809
Br3   Br    Br    0.826467 0.584653 0.893223 -0.418922
Br4   Br    Br    0.173525 0.584607 0.106746 -0.418936
C1    C     C_R   0.500000 0.218015 0.499999 0.928425
C2    C     C_R   0.875818 0.488073 0.705115 0.243761
C3    C     C_R   0.137499 0.416878 0.587669 0.231899
C4    C     C_R   0.862501 0.416899 0.412321 0.231889
C5    C     C_R   0.029667 0.425481 0.578382 0.005904
C6    C     C_R   0.970334 0.425491 0.421612 0.005901
C7    C     C_1   0.500000 0.065203 0.499999 -0.125488
C8    C     C_1   0.500000 0.934809 0.500001 -0.135773
C9    C     C_R   0.500000 0.781981 0.500001 0.936266
C10   C     C_R   0.297313 0.492505 0.468320 0.937288
C11   C     C_R   0.702686 0.492505 0.531678 0.937299
C12   C     C_R   0.814478 0.465538 0.550811 -0.217163
C13   C     C_R   0.185520 0.465524 0.449181 -0.217167
C14   C     C_R   0.019010 0.450949 0.279179 -0.140357
C15   C     C_R   0.980988 0.450936 0.720817 -0.140359
C16   C     C_R   0.124180 0.488063 0.294877 0.243761
H1    H     H_    0.973641 0.462901 0.159277 0.227151
H2    H     H_    0.026355 0.462873 0.840722 0.227150
N1    N     N_1   0.500020 0.500000 0.073640 0.030851
N2    N     N_1   0.499980 0.500000 0.926360 0.030850
O1    O     O_R   0.499990 0.285340 0.636850 -0.606518
O2    O     O_R   0.500010 0.714660 0.363150 -0.609814
O3    O     O_R   0.500010 0.285340 0.363150 -0.606522
O4    O     O_R   0.499990 0.714660 0.636850 -0.609812
O5    O     O_R   0.346350 0.500000 0.614250 -0.584392
O6    O     O_R   0.653650 0.500000 0.385750 -0.584395
O7    O     O_R   0.346360 0.500000 0.340500 -0.582664
O8    O     O_R   0.653640 0.500000 0.659500 -0.582665
Zn1   Zn    Zn3+2 0.499990 0.500000 0.682780 1.093091
Zn2   Zn    Zn3+2 0.500010 0.500000 0.317220 1.093089

loop_
_geom_bond_atom_site_label_1
_geom_bond_atom_site_label_2
_ccdc_geom_bond_type
N1    N2    T    
C9    O4    A    
Br1   C4    S    
C5    C6    A    
Br2   C3    S    
C10   O7    A    
C7    C8    T    
N1    Zn2   S    
O8    Zn1   S    
Br3   C2    S    
O7    Zn2   S    
C11   O8    A    
C4    C12   A    
C2    C15   A    
C10   C13   S    
C6    C14   A    
C1    O1    A    
C5    C15   A    
O4    Zn1   S    
C1    C7    S    
C14   C16   A    
O3    Zn2   S    
C9    O2    A    
O6    Zn2   S    
C10   O5    A    
C2    C12   A    
C11   C12   S    
C14   H1    S    
O5    Zn1   S    
C15   H2    S    
C8    C9    S    
C11   O6    A    
C4    C6    A    
C3    C5    A    
C1    O3    A    
C13   C16   A    
O2    Zn2   S    
N2    Zn1   S    
O1    Zn1   S    
C3    C13   A    
Br4   C16   S    
