data_mof_unit_5247.cif
_audit_creation_date              2012-12-11T14:17:30-0500
_audit_creation_method            fapswitch 2.2
_symmetry_space_group_name_H-M    P1
_symmetry_Int_Tables_number       1
_space_group_crystal_system       triclinic
_cell_length_a                    6.939651
_cell_length_b                    13.629919
_cell_length_c                    20.398531
_cell_angle_alpha                 102.049431
_cell_angle_beta                  89.93487
_cell_angle_gamma                 90.395845
_cell_volume                      1886.87876089

loop_
_atom_site_label
_atom_site_type_symbol
_atom_type_description
_atom_site_fract_x
_atom_site_fract_y
_atom_site_fract_z
_atom_type_partial_charge
O1    O     O_R   0.506860 0.599390 0.449240 -0.538945
O2    O     O_R   0.180220 0.594600 0.586780 -0.542801
O3    O     O_R   0.004500 0.400610 0.550760 -0.538289
C1    C     C_R   0.348828 0.615830 0.613571 0.742443
O4    O     O_R   0.177490 0.611290 0.451970 -0.540800
O5    O     O_R   0.001750 0.417420 0.414990 -0.535421
C2    C     C_R   0.346546 0.637878 0.435143 0.696616
O6    O     O_R   0.509610 0.582580 0.585010 -0.542398
O7    O     O_3   0.337420 0.436370 0.488020 -0.372891
V1    V     V_3+5 0.064680 0.511800 0.502220 1.415554
O8    O     O_R   0.671710 0.405400 0.413220 -0.546478
C3    C     C_R   0.841393 0.382942 0.386785 0.745536
O9    O     O_R   0.674440 0.388710 0.548030 -0.541799
C4    C     C_R   0.843210 0.362644 0.565398 0.696579
V2    V     V_3+5 0.564010 0.488200 0.497780 1.409812
O10   O     O_3   0.841140 0.563630 0.511980 -0.371220
C5    C     C_R   0.940233 0.116949 0.613802 -0.161725
H1    H     H_    0.928666 0.167281 0.521020 0.103581
H2    H     H_    0.974769 0.992945 0.697306 0.122700
H3    H     H_    0.975166 0.040808 0.589067 0.113530
C6    C     C_R   0.855949 0.285352 0.605307 -0.039225
C7    C     C_R   0.832661 0.314387 0.928336 -0.240255
C8    C     C_R   0.850992 0.392911 0.894787 0.325750
C9    C     C_R   0.894867 0.373432 0.825711 0.098813
C10   C     C_R   0.889602 0.271982 0.788134 0.020331
C11   C     C_R   0.891140 0.193262 0.824670 0.035096
C12   C     C_R   0.887474 0.244683 0.716258 0.096285
C13   C     C_R   0.926443 0.143861 0.683937 0.141923
C14   C     C_R   0.947101 0.070186 0.721603 -0.207614
C15   C     C_R   0.922606 0.093652 0.790565 -0.168304
C16   C     C_R   0.836958 0.312156 0.675104 -0.227924
C17   C     C_R   0.910744 0.188158 0.574901 -0.169994
C18   C     C_R   0.863141 0.215685 0.894887 -0.127101
H4    H     H_    0.781897 0.385826 0.696120 0.124847
H5    H     H_    0.805805 0.331028 0.981868 0.144977
H6    H     H_    0.930486 0.032730 0.817045 0.113622
C19   C     C_2   0.012756 0.271705 0.289046 0.176508
C20   C     C_2   0.850438 0.317162 0.318716 -0.315531
H7    H     H_    0.715338 0.308591 0.291573 0.104646
C21   C     C_2   0.014747 0.212346 0.218445 -0.136881
C22   C     C_2   0.857915 0.177850 0.181932 -0.345818
H8    H     H_    0.155326 0.193585 0.195963 0.139883
H9    H     H_    0.714511 0.191506 0.202704 0.127748
C23   C     C_2   0.204198 0.789298 0.783036 -0.130157
C24   C     C_2   0.363948 0.815314 0.820046 -0.290276
H10   H     H_    0.066046 0.818705 0.802849 0.134181
H11   H     H_    0.502947 0.786128 0.801618 0.132694
C25   C     C_2   0.202280 0.720760 0.715568 -0.129023
C26   C     C_2   0.360561 0.683768 0.680400 -0.309975
H12   H     H_    0.060801 0.700974 0.693907 0.136029
H13   H     H_    0.503813 0.702955 0.700106 0.127510
C27   C     C_R   0.374413 0.888389 0.386894 -0.160111
H14   H     H_    0.370803 0.838453 0.479894 0.104275
H15   H     H_    0.385564 0.013471 0.303550 0.122082
H16   H     H_    0.383333 0.966728 0.411829 0.113225
C28   C     C_R   0.356092 0.714492 0.394812 -0.031521
C29   C     C_R   0.343656 0.684135 0.070584 -0.100852
C30   C     C_R   0.334632 0.607191 0.106120 0.216643
C31   C     C_R   0.339044 0.630478 0.176282 -0.176350
C32   C     C_R   0.352251 0.731187 0.212446 0.042320
C33   C     C_R   0.360389 0.808875 0.175352 0.061042
C34   C     C_R   0.357509 0.757460 0.284102 0.086434
C35   C     C_R   0.369561 0.860417 0.316646 0.142921
C36   C     C_R   0.376576 0.934914 0.279049 -0.204120
C37   C     C_R   0.372354 0.909768 0.209603 -0.176069
C38   C     C_R   0.351221 0.685360 0.324910 -0.213006
C39   C     C_R   0.367496 0.815761 0.425736 -0.176187
C40   C     C_R   0.356422 0.784161 0.104452 -0.126715
H17   H     H_    0.342220 0.605970 0.304335 0.092725
H18   H     H_    0.340699 0.666308 0.016231 0.135975
H19   H     H_    0.331576 0.567890 0.200848 0.115655
H20   H     H_    0.378402 0.970589 0.182946 0.113327
O11   O     O_R   0.203230 0.917310 0.915020 -0.540007
O12   O     O_R   0.535500 0.888690 0.048040 -0.534953
O13   O     O_R   0.711080 0.082610 0.085000 -0.546560
C41   C     C_R   0.366378 0.861707 0.064535 0.709103
O14   O     O_R   0.532630 0.905370 0.913230 -0.544881
O15   O     O_R   0.708190 0.099410 0.949230 -0.540505
C42   C     C_R   0.364521 0.884030 0.886549 0.748551
O16   O     O_R   0.206120 0.900510 0.050790 -0.536683
O17   O     O_3   0.375360 0.063570 0.011990 -0.377213
V3    V     V_3+5 0.648170 0.988200 0.997780 1.450942
O18   O     O_R   0.038240 0.111390 0.951940 -0.542227
C43   C     C_R   0.869796 0.137656 0.934783 0.709201
O19   O     O_R   0.041120 0.094710 0.086750 -0.545399
C44   C     C_R   0.872091 0.114727 0.113752 0.753258
V4    V     V_3+5 0.148810 0.011930 0.002180 1.437932
O20   O     O_3   0.871750 0.936430 0.988010 -0.365259
C45   C     C_3   0.320325 0.499550 0.069646 -0.710167
H21   H     H_    0.318098 0.492667 0.014406 0.234407
H22   H     H_    0.445964 0.457279 0.082613 0.202787
H23   H     H_    0.185826 0.465380 0.084569 0.206422
C46   C     C_3   0.980205 0.459066 0.798148 -0.734590
H24   H     H_    0.067769 0.432342 0.752503 0.198532
H25   H     H_    0.864719 0.510105 0.788322 0.217986
H26   H     H_    0.082968 0.502903 0.834805 0.243806
Br1   Br    Br    0.826832 0.527056 0.947153 -0.610136
C47   C     C_3   0.204045 0.279025 0.325507 -0.700098
H27   H     H_    0.314269 0.229589 0.296226 0.164996
H28   H     H_    0.261141 0.356953 0.333955 0.210871
H29   H     H_    0.187159 0.254791 0.373924 0.201843

loop_
_geom_bond_atom_site_label_1
_geom_bond_atom_site_label_2
_ccdc_geom_bond_type
O18   V4    S    
V4    O20   S    
C46   H24   S    
C1    O6    A    
O17   V3    S    
O19   C44   A    
C22   C44   S    
C6    C16   A    
C34   C35   A    
O12   C41   A    
C4    C6    S    
C13   C14   A    
C19   C20   D    
C19   C21   S    
O5    C3    A    
C20   H7    S    
V3    O20   S    
C38   H17   S    
V2    O10   S    
C5    H3    S    
C32   C34   A    
C24   H11   S    
O11   V4    S    
O13   C44   A    
O8    V2    S    
O2    V1    S    
C26   H13   S    
C8    C9    A    
O1    V2    S    
C29   H18   S    
C45   H22   S    
O7    V1    S    
C27   H16   S    
C21   H8    S    
C31   C32   A    
C46   H25   S    
O9    C4    A    
C3    C20   S    
C22   H9    S    
C2    C28   S    
O12   V3    S    
C19   C47   S    
C30   C45   S    
C23   H10   S    
O14   C42   A    
C6    C17   A    
C34   C38   A    
O19   V4    S    
C12   C16   A    
C9    C10   A    
O4    C2    A    
O6    V2    S    
C30   C31   A    
C32   C33   A    
O2    C1    A    
C14   C15   A    
C7    H5    S    
O15   C43   A    
O15   V3    S    
C11   C18   A    
O18   C43   A    
O11   C42   A    
C16   H4    S    
C24   C42   S    
C45   H23   S    
C27   C39   A    
O17   V4    S    
O3    C4    A    
O16   V4    S    
C25   C26   D    
C8    Br1   S    
C11   C15   A    
C46   H26   S    
C47   H28   S    
O9    V2    S    
C10   C12   A    
H1    C17   S    
C29   C40   A    
C28   C39   A    
C23   C24   D    
C7    C18   A    
C21   C22   D    
O1    C2    A    
C5    C13   A    
C41   O16   A    
C27   C35   A    
O5    V1    S    
O8    C3    A    
O13   V3    S    
C40   C41   S    
C37   H20   S    
C47   H29   S    
C15   H6    S    
C1    C26   S    
C36   C37   A    
C10   C11   A    
O4    V1    S    
O3    V1    S    
V1    O10   S    
C9    C46   S    
C33   C40   A    
C29   C30   A    
H15   C36   S    
O14   V3    S    
C28   C38   A    
C25   H12   S    
O7    V2    S    
H14   C39   S    
C18   C43   S    
C35   C36   A    
C33   C37   A    
C47   H27   S    
C12   C13   A    
C5    C17   A    
C7    C8    A    
C45   H21   S    
C23   C25   S    
C31   H19   S    
H2    C14   S    
