data_mof_unit_36968.cif
_audit_creation_date              2012-12-10T21:42:29-0500
_audit_creation_method            fapswitch 2.2
_symmetry_space_group_name_H-M    P1
_symmetry_Int_Tables_number       1
_space_group_crystal_system       triclinic
_cell_length_a                    10.738261
_cell_length_b                    16.080371
_cell_length_c                    16.610936
_cell_angle_alpha                 87.383355
_cell_angle_beta                  89.927049
_cell_angle_gamma                 92.665508
_cell_volume                      2862.18971806

loop_
_atom_site_label
_atom_site_type_symbol
_atom_type_description
_atom_site_fract_x
_atom_site_fract_y
_atom_site_fract_z
_atom_type_partial_charge
C1    C     C_R   0.503316 0.488640 0.653591 0.888085
C2    C     C_R   0.496772 0.511353 0.346412 0.888166
C3    C     C_R   0.127323 0.498711 0.504492 -0.081626
C4    C     C_R   0.872683 0.501302 0.495460 -0.081589
C5    C     C_R   0.055287 0.426103 0.528447 -0.002766
C6    C     C_R   0.944723 0.573925 0.471532 -0.002726
C7    C     C_R   0.522688 0.481169 0.740245 -0.084935
C8    C     C_R   0.478137 0.518768 0.259696 -0.085004
C9    C     C_R   0.573856 0.549647 0.779675 -0.243055
C10   C     C_R   0.427559 0.450205 0.220140 -0.242939
C11   C     C_R   0.592559 0.544366 0.862077 0.170382
C12   C     C_R   0.409981 0.455308 0.137634 0.170387
C13   C     C_R   0.554088 0.471150 0.906623 0.227368
C14   C     C_R   0.448941 0.528458 0.093149 0.227554
C15   C     C_R   0.517589 0.398637 0.866333 -0.013581
C16   C     C_R   0.484989 0.601051 0.133468 -0.013782
C17   C     C_R   0.500605 0.404773 0.782821 -0.283601
C18   C     C_R   0.500857 0.595077 0.217083 -0.283783
C19   C     C_R   0.446793 0.763250 0.456990 -0.015248
C20   C     C_R   0.553306 0.236757 0.542958 -0.015177
C21   C     C_R   0.450052 0.850498 0.459350 -0.282096
C22   C     C_R   0.550048 0.149509 0.540601 -0.282081
C23   C     C_R   0.740154 0.500516 0.497356 0.875356
C24   C     C_R   0.259848 0.499488 0.502628 0.875422
C25   C     C_R   0.525010 0.890947 0.516922 0.320938
C26   C     C_R   0.474984 0.109053 0.483086 0.321015
C27   C     C_R   0.594902 0.841348 0.569948 -0.306787
C28   C     C_R   0.404998 0.158646 0.430110 -0.306741
C29   C     C_R   0.588896 0.754337 0.565468 0.035199
C30   C     C_R   0.411009 0.245657 0.434585 0.035135
C31   C     C_R   0.768841 0.729615 0.342292 -0.124697
C32   C     C_R   0.231001 0.270741 0.658165 -0.124538
C33   C     C_R   0.820451 0.655242 0.369636 -0.095177
C34   C     C_R   0.179375 0.345034 0.630613 -0.095279
C35   C     C_R   0.891847 0.652841 0.440500 0.137109
C36   C     C_R   0.108181 0.347264 0.559661 0.137106
C37   C     C_R   0.912951 0.726202 0.482318 -0.163942
C38   C     C_R   0.087321 0.273820 0.517939 -0.163911
C39   C     C_R   0.861632 0.800425 0.454447 -0.142137
C40   C     C_R   0.138688 0.199678 0.546002 -0.141968
C41   C     C_R   0.789127 0.802037 0.384696 -0.102787
C42   C     C_R   0.210972 0.198232 0.615854 -0.102899
C43   C     C_R   0.072154 0.571583 0.477047 -0.245186
C44   C     C_R   0.927859 0.428426 0.522890 -0.245088
H1    H     H_    0.748556 0.859377 0.363556 0.130908
H2    H     H_    0.251558 0.140951 0.637154 0.130787
H3    H     H_    0.470858 0.350061 0.751027 0.157509
H4    H     H_    0.530331 0.649832 0.248913 0.157478
H5    H     H_    0.611054 0.267637 0.586938 0.129973
H6    H     H_    0.389128 0.732375 0.412967 0.129997
H7    H     H_    0.605780 0.114569 0.583233 0.154765
H8    H     H_    0.394408 0.885444 0.416673 0.154802
H9    H     H_    0.653952 0.870044 0.614679 0.146409
H10   H     H_    0.345871 0.129946 0.385420 0.146450
H11   H     H_    0.643316 0.716626 0.606508 0.130310
H12   H     H_    0.356516 0.283364 0.393582 0.130313
H13   H     H_    0.712922 0.731260 0.288337 0.109296
H14   H     H_    0.286705 0.269232 0.712220 0.109318
H15   H     H_    0.803698 0.599472 0.336326 0.108858
H16   H     H_    0.195930 0.400874 0.663848 0.108864
H17   H     H_    0.967820 0.725580 0.536990 0.133798
H18   H     H_    0.032617 0.274317 0.463194 0.133690
H19   H     H_    0.877212 0.856548 0.487298 0.133997
H20   H     H_    0.123303 0.143489 0.513224 0.133987
H21   H     H_    0.128570 0.626525 0.457325 0.162913
H22   H     H_    0.871453 0.373484 0.542621 0.162913
H23   H     H_    0.400002 0.392735 0.253373 0.177574
H24   H     H_    0.601064 0.607150 0.746398 0.177443
N1    N     N_2   0.538010 0.472569 0.990682 -0.149409
N2    N     N_2   0.465258 0.527042 0.009121 -0.149716
N3    N     N_R   0.515300 0.716920 0.509720 -0.084954
N4    N     N_R   0.484700 0.283080 0.490280 -0.084950
N5    N     N_2   0.533293 0.979720 0.523964 -0.191524
N6    N     N_2   0.466700 0.020280 0.476046 -0.191487
O1    O     O_R   0.494530 0.422540 0.612660 -0.623545
O2    O     O_R   0.505470 0.577460 0.387340 -0.623653
O3    O     O_R   0.504350 0.561840 0.618900 -0.622238
O4    O     O_R   0.495650 0.438160 0.381100 -0.622235
O5    O     O_R   0.678330 0.430350 0.496870 -0.625248
O6    O     O_R   0.321670 0.569650 0.503130 -0.625239
O7    O     O_R   0.688150 0.569660 0.503110 -0.612226
O8    O     O_R   0.311850 0.430340 0.496890 -0.612205
Zn1   Zn    Zn3+2 0.493440 0.406980 0.495830 0.950022
Zn2   Zn    Zn3+2 0.506560 0.593020 0.504170 0.949946
I1    I     I_    0.315661 0.353183 0.084778 -0.398811
I2    I     I_    0.687804 0.646253 0.914722 -0.398955
C45   C     C_R   0.498821 0.316295 0.909840 0.149473
C46   C     C_R   0.588629 0.288179 0.965019 -0.115312
C47   C     C_R   0.573599 0.209252 0.003688 -0.120096
C48   C     C_R   0.469294 0.157582 0.987476 -0.098866
C49   C     C_R   0.379610 0.184831 0.932715 -0.113798
C50   C     C_R   0.394112 0.263756 0.894006 -0.130719
H25   H     H_    0.671017 0.326871 0.977369 0.137291
H26   H     H_    0.643154 0.188005 0.045991 0.132945
H27   H     H_    0.457914 0.096470 0.017385 0.121772
H28   H     H_    0.298568 0.144909 0.920434 0.129452
H29   H     H_    0.322812 0.284330 0.852728 0.122629
C51   C     C_R   0.504657 0.683288 0.089867 0.149354
C52   C     C_R   0.415694 0.711478 0.034130 -0.115167
C53   C     C_R   0.431828 0.790182 0.995119 -0.119758
C54   C     C_R   0.536302 0.841594 0.011608 -0.098519
C55   C     C_R   0.625042 0.814324 0.067016 -0.113732
C56   C     C_R   0.609500 0.735594 0.106010 -0.131096
H30   H     H_    0.333191 0.672979 0.021533 0.137330
H31   H     H_    0.363027 0.811427 0.952294 0.132936
H32   H     H_    0.548577 0.902518 0.981406 0.121746
H33   H     H_    0.706200 0.854064 0.079509 0.129470
H34   H     H_    0.680170 0.714955 0.147717 0.122644

loop_
_geom_bond_atom_site_label_1
_geom_bond_atom_site_label_2
_ccdc_geom_bond_type
C38   C40   A    
C45   C46   A    
C54   C55   A    
C27   C29   A    
C1    O3    A    
N5    N6    D    
C19   N3    A    
C32   H14   S    
O6    Zn2   S    
O1    Zn1   S    
O2    Zn2   S    
C48   H27   S    
C39   C41   A    
C10   H23   S    
C3    C43   A    
C53   H31   S    
C12   I1    S    
C19   C21   A    
C39   H19   S    
C11   I2    S    
C51   C56   A    
C5    C36   S    
C6    C35   S    
C7    C9    A    
C42   H2    S    
C47   H26   S    
C24   O8    A    
C33   C35   A    
C49   H28   S    
C44   H22   S    
O4    Zn1   S    
C24   O6    A    
C7    C17   A    
C31   C33   A    
C56   H34   S    
C23   O7    A    
C34   C36   A    
C40   C42   A    
C52   H30   S    
C33   H15   S    
C45   C50   A    
C34   H16   S    
C14   N2    S    
C3    C24   S    
C55   C56   A    
C50   H29   S    
C1    O1    A    
C4    C6    A    
C49   C50   A    
C4    C23   S    
C28   H10   S    
C4    C44   A    
O3    Zn2   S    
C30   H12   S    
C8    C18   A    
C32   C34   A    
C20   H5    S    
C2    O4    A    
C37   H17   S    
C52   C53   A    
C43   H21   S    
C55   H33   S    
C9    C11   A    
C10   C12   A    
C8    C10   A    
C5    C44   A    
C12   C14   A    
C51   C52   A    
C6    C43   A    
C13   C15   A    
C14   C16   A    
O7    Zn2   S    
C2    O2    A    
C15   C45   S    
N3    Zn2   S    
C54   H32   S    
C15   C17   A    
C21   C25   A    
C46   H25   S    
C32   C42   A    
C31   C41   A    
C35   C37   A    
C1    C7    S    
C2    C8    S    
C17   H3    S    
C20   C22   A    
C3    C5    A    
C18   H4    S    
C30   N4    A    
C27   H9    S    
C25   C27   A    
C29   H11   S    
C26   C28   A    
C40   H20   S    
C31   H13   S    
C36   C38   A    
C9    H24   S    
C37   C39   A    
O5    Zn1   S    
C11   C13   A    
C19   H6    S    
C16   C51   S    
C48   C49   A    
C13   N1    S    
C28   C30   A    
C53   C54   A    
C26   N6    S    
C25   N5    S    
N1    N2    D    
N4    Zn1   S    
C29   N3    A    
C46   C47   A    
C16   C18   A    
O8    Zn1   S    
C22   C26   A    
C41   H1    S    
C20   N4    A    
C23   O5    A    
C47   C48   A    
C21   H8    S    
C22   H7    S    
C38   H18   S    
