data_mof_unit_45693.cif
_audit_creation_date              2012-12-11T19:05:34-0500
_audit_creation_method            fapswitch 2.2
_symmetry_space_group_name_H-M    P1
_symmetry_Int_Tables_number       1
_space_group_crystal_system       triclinic
_cell_length_a                    8.248537
_cell_length_b                    15.152122
_cell_length_c                    22.845131
_cell_angle_alpha                 98.665279
_cell_angle_beta                  89.160386
_cell_angle_gamma                 99.263364
_cell_volume                      2785.71217855

loop_
_atom_site_label
_atom_site_type_symbol
_atom_type_description
_atom_site_fract_x
_atom_site_fract_y
_atom_site_fract_z
_atom_type_partial_charge
Ba1   Ba    Ba6+2 0.856840 0.543240 0.473380 1.644513
Ba2   Ba    Ba6+2 0.332990 0.456840 0.526630 1.625190
C1    C     C_3   0.722464 0.880471 0.339334 -0.205552
C2    C     C_R   0.110615 0.586592 0.943288 -0.048941
C3    C     C_R   0.058070 0.580783 0.882820 0.577906
C4    C     C_3   0.226538 0.788032 0.323248 0.322695
C5    C     C_R   0.947116 0.423605 0.879156 0.579203
C6    C     C_R   0.992928 0.426446 0.938652 -0.012527
C7    C     C_R   0.074666 0.507670 0.970977 -0.061048
C8    C     C_R   0.197225 0.667667 0.977257 0.050531
C9    C     C_R   0.239094 0.666637 0.037005 -0.066183
C10   C     C_R   0.201973 0.588749 0.064251 -0.042772
C11   C     C_R   0.120511 0.509069 0.031234 -0.052867
C12   C     C_3   0.678022 0.783035 0.351772 0.448890
C13   C     C_R   0.958881 0.348485 0.966319 -0.076448
C14   C     C_R   0.004424 0.350354 0.025030 -0.080633
C15   C     C_R   0.085416 0.430297 0.058368 -0.020988
C16   C     C_3   0.185902 0.798784 0.260019 -0.172897
C17   C     C_R   0.132851 0.432670 0.118105 0.587085
C18   C     C_R   0.246078 0.589535 0.124197 0.582785
C19   C     C_2   0.779626 0.452826 0.769415 -0.105259
C20   C     C_3   0.753873 0.417931 0.704147 -0.038504
C21   C     C_1   0.005985 0.519353 0.686530 0.026457
C22   C     C_2   0.051608 0.527433 0.743379 -0.111869
C23   C     C_3   0.475351 0.325233 0.345093 0.292600
C24   C     C_2   0.930786 0.495050 0.789122 0.203734
C25   C     C_R   0.417528 0.554257 0.233796 -0.111033
C26   C     C_R   0.461094 0.560619 0.293578 -0.038378
C27   C     C_R   0.190415 0.481952 0.314339 0.043235
C28   C     C_3   0.215106 0.736725 0.601083 0.296226
C29   C     C_R   0.144789 0.477561 0.254400 -0.081916
C30   C     C_R   0.257213 0.514810 0.213272 0.213673
C31   C     C_2   0.865631 0.471260 0.665087 -0.283635
C32   C     C_R   0.350151 0.824921 0.460196 -0.034992
C33   C     C_R   0.577719 0.795147 0.516503 0.055912
C34   C     C_3   0.470480 0.303573 0.277896 -0.377911
C35   C     C_R   0.758354 0.229779 0.514033 -0.289161
C36   C     C_R   0.856742 0.170687 0.529134 0.018076
C37   C     C_R   0.803430 0.077536 0.517651 -0.163829
C38   C     C_R   0.639492 0.043089 0.499721 0.009410
C39   C     C_R   0.549493 0.102981 0.476544 -0.014909
C40   C     C_3   0.189617 0.834932 0.614520 -0.388982
C41   C     C_R   0.567219 0.950359 0.499415 0.013366
C42   C     C_R   0.417354 0.917467 0.466891 -0.033180
C43   C     C_R   0.336744 0.977623 0.441805 -0.110404
C44   C     C_R   0.400754 0.068283 0.446958 -0.051062
C45   C     C_3   0.963869 0.229828 0.674177 0.363969
C46   C     C_R   0.631414 0.889721 0.532251 -0.010186
C47   C     C_R   0.439529 0.764296 0.480070 -0.297821
C48   C     C_R   0.613155 0.196346 0.482686 0.025243
C49   C     C_3   0.960433 0.261806 0.393364 0.315997
C50   C     C_3   0.918031 0.160114 0.370986 -0.198698
C51   C     C_3   0.744939 0.666292 0.651635 0.310487
C52   C     C_3   0.794970 0.704529 0.716210 -0.211655
C53   C     C_3   0.063920 0.120769 0.340360 -0.174244
C54   C     C_3   0.058888 0.116678 0.273131 -0.381459
C55   C     C_3   0.655837 0.688151 0.760639 -0.234048
C56   C     C_3   0.854704 0.159656 0.704885 -0.373444
C57   C     C_3   0.514136 0.738887 0.752454 -0.340272
C58   C     C_3   0.681236 0.890520 0.276005 -0.375525
C59   C     C_3   0.071416 0.296589 0.719708 -0.285334
C60   C     C_3   0.246309 0.754313 0.949889 -0.169320
C61   C     C_3   0.347169 0.835086 0.988773 -0.477071
C62   C     C_3   0.721085 0.922718 0.591837 -0.187692
C63   C     C_3   0.602612 0.920736 0.643617 -0.426707
C64   C     C_3   0.167541 0.895694 0.254463 -0.431409
C65   C     C_3   0.460417 0.221984 0.656793 0.361182
C66   C     C_3   0.391592 0.132889 0.677743 -0.346780
C67   C     C_R   0.346646 0.525912 0.333380 -0.286807
H1    H     H_    0.734408 0.780530 0.395258 0.059527
H2    H     H_    0.656746 0.602115 0.649052 0.044055
H3    H     H_    0.855217 0.904438 0.348193 0.120954
H4    H     H_    0.897677 0.672623 0.729239 0.074587
H5    H     H_    0.842834 0.778163 0.720087 0.128888
H6    H     H_    0.542898 0.766007 0.355155 -0.142006
H7    H     H_    0.654380 0.924628 0.370414 0.060566
H8    H     H_    0.352629 0.338808 0.360710 0.016875
H9    H     H_    0.568673 0.386543 0.357790 0.063355
H10   H     H_    0.378575 0.242384 0.263555 0.126666
H11   H     H_    0.436208 0.361007 0.258604 0.070138
H12   H     H_    0.251235 0.868105 0.656815 0.113906
H13   H     H_    0.593231 0.291276 0.261172 0.129717
H14   H     H_    0.288376 0.780811 0.231362 0.137298
H15   H     H_    0.881499 0.267585 0.653082 -0.027861
H16   H     H_    0.930265 0.118571 0.726067 0.122897
H17   H     H_    0.778597 0.193355 0.739118 0.118074
H18   H     H_    0.771060 0.114123 0.671883 0.092231
H19   H     H_    0.592515 0.222320 0.646515 -0.072896
H20   H     H_    0.394311 0.225984 0.615698 0.113238
H21   H     H_    0.479053 0.115365 0.708901 0.091216
H22   H     H_    0.369265 0.078989 0.638812 0.078371
H23   H     H_    0.238807 0.872357 0.578269 0.081329
H24   H     H_    0.254659 0.718380 0.322476 -0.010097
H25   H     H_    0.273205 0.136824 0.700717 0.153376
H26   H     H_    0.975535 0.288639 0.044274 0.120740
H27   H     H_    0.896478 0.285140 0.942519 0.122187
H28   H     H_    0.302317 0.727145 0.063363 0.127235
H29   H     H_    0.508651 0.579889 0.203361 0.111354
H30   H     H_    0.177218 0.555786 0.756753 0.122085
H31   H     H_    0.687003 0.429461 0.800265 0.118371
H32   H     H_    0.022415 0.445147 0.239940 0.120203
H33   H     H_    0.382081 0.529489 0.379184 0.079625
H34   H     H_    0.056779 0.837711 0.619279 0.121135
H35   H     H_    0.335668 0.838797 0.338711 -0.018414
H36   H     H_    0.845368 0.453092 0.617668 0.084763
H37   H     H_    0.392259 0.692627 0.471899 0.070496
H38   H     H_    0.222305 0.955852 0.417650 0.092349
H39   H     H_    0.802720 0.301833 0.521642 0.064875
H40   H     H_    0.891309 0.033039 0.522044 0.090245
H41   H     H_    0.331489 0.110542 0.427006 0.092000
H42   H     H_    0.071670 0.752043 0.244357 0.154016
H43   H     H_    0.345717 0.733358 0.592105 -0.011408
H44   H     H_    0.140770 0.705234 0.561083 0.083366
H45   H     H_    0.848449 0.287368 0.410529 -0.013421
H46   H     H_    0.947469 0.070798 0.254143 0.119989
H47   H     H_    0.059171 0.184747 0.260805 0.178644
H48   H     H_    0.168724 0.090372 0.253495 0.113353
H49   H     H_    0.182162 0.161418 0.357689 0.132912
H50   H     H_    0.061287 0.051135 0.350480 0.090850
H51   H     H_    0.559717 0.812446 0.755050 0.120460
H52   H     H_    0.452078 0.712888 0.709184 0.182653
H53   H     H_    0.422531 0.728584 0.787902 0.126804
H54   H     H_    0.609024 0.614737 0.757166 0.135776
H55   H     H_    0.706975 0.711244 0.806118 0.132588
H56   H     H_    0.053725 0.273433 0.429347 0.047279
H57   H     H_    0.701661 0.963264 0.271231 0.107247
H58   H     H_    0.760934 0.855104 0.244099 0.161103
H59   H     H_    0.550990 0.862272 0.265302 0.123051
H60   H     H_    0.148196 0.348489 0.697444 0.144290
H61   H     H_    0.993730 0.330484 0.752228 0.110840
H62   H     H_    0.150600 0.261561 0.744060 0.142053
H63   H     H_    0.275529 0.858672 0.027949 0.140506
H64   H     H_    0.464430 0.817168 0.002939 0.143169
H65   H     H_    0.377421 0.891899 0.962868 0.139735
H66   H     H_    0.321365 0.738628 0.910001 0.147960
H67   H     H_    0.809355 0.146963 0.340819 0.118570
H68   H     H_    0.133003 0.777349 0.936486 0.157146
H69   H     H_    0.527639 0.853677 0.643237 0.157345
H70   H     H_    0.672240 0.939434 0.686110 0.126336
H71   H     H_    0.518605 0.969831 0.641232 0.117870
H72   H     H_    0.818228 0.882356 0.597405 0.129625
H73   H     H_    0.784859 0.992394 0.598348 0.103390
H74   H     H_    0.280457 0.943116 0.270601 0.120662
H75   H     H_    0.146629 0.901008 0.207311 0.129795
H76   H     H_    0.061213 0.915319 0.280247 0.155800
H77   H     H_    0.881870 0.124539 0.409135 0.031165
H78   H     H_    0.856297 0.652979 0.626936 0.020024
N1    N     N_R   0.979027 0.500111 0.851492 -0.416071
N2    N     N_R   0.210352 0.512314 0.151150 -0.419681
O1    O     O_2   0.889550 0.449620 0.359410 -0.456486
O2    O     O_2   0.193915 0.176403 0.530094 -0.494881
O3    O     O_3   0.066457 0.185353 0.634127 -0.599122
O4    O     O_3   0.130120 0.450560 0.430480 -0.495078
O5    O     O_3   0.576410 0.610420 0.531990 -0.474235
O6    O     O_2   0.341630 0.276020 0.466390 -0.468592
O7    O     O_3   0.516003 0.251003 0.368377 -0.653037
O8    O     O_2   0.437415 0.467635 0.707362 -0.497950
O9    O     O_3   0.437088 0.294351 0.700651 -0.603205
O10   O     O_2   0.079617 0.647684 0.858206 -0.629500
O11   O     O_2   0.879254 0.352005 0.851766 -0.620830
O12   O     O_3   0.673960 0.730930 0.627968 -0.648801
O13   O     O_2   0.107448 0.363219 0.140239 -0.606290
O14   O     O_2   0.316276 0.659665 0.152401 -0.634327
O15   O     O_3   0.674100 0.616440 0.398760 -0.486065
O16   O     O_2   0.800803 0.556592 0.295626 -0.476004
O17   O     O_3   0.020050 0.305520 0.346158 -0.642210
O18   O     O_3   0.737441 0.722019 0.307116 -0.582727
O19   O     O_2   0.848070 0.724010 0.533650 -0.475929
O20   O     O_3   0.092910 0.663610 0.428710 -0.463805
O21   O     O_2   0.012099 0.823255 0.470747 -0.491656
O22   O     O_3   0.092958 0.801949 0.360157 -0.582651
O23   O     O_2   0.300150 0.550410 0.640630 -0.446568
O24   O     O_3   0.059590 0.549510 0.569530 -0.501839
O25   O     O_3   0.515610 0.383640 0.601250 -0.479852
O26   O     O_3   0.170136 0.695449 0.651032 -0.646624
O27   O     O_3   0.613300 0.389650 0.468010 -0.473751
O28   O     O_3   0.096810 0.336470 0.571300 -0.481492
P1    P     P_3+3 0.056010 0.422560 0.367570 0.992160
P2    P     P_3+3 0.670430 0.710550 0.550450 0.977004
P3    P     P_3+3 0.139450 0.780072 0.430497 0.948543
P4    P     P_3+3 0.133710 0.577520 0.632440 0.970752
P5    P     P_3+3 0.054877 0.217811 0.564295 0.944155
P6    P     P_3+3 0.668353 0.612167 0.322081 0.978523
P7    P     P_3+3 0.523584 0.276714 0.445678 0.929183
P8    P     P_3+3 0.536235 0.394469 0.678319 0.939726

loop_
_geom_bond_atom_site_label_1
_geom_bond_atom_site_label_2
_ccdc_geom_bond_type
C57   H52   S    
C53   C54   S    
O9    P8    S    
Ba1   O27   S    
Ba2   O6    S    
C32   C47   A    
C22   H30   S    
C54   H48   S    
C39   C48   A    
C32   P3    S    
C26   C67   A    
C65   H20   S    
C19   C24   D    
C52   C55   S    
C56   H18   S    
O7    P7    S    
C5    C6    A    
C25   H29   S    
C53   H50   S    
C51   C52   S    
Ba1   O24   S    
C65   H19   S    
C57   H51   S    
C23   H8    S    
C61   H64   S    
C26   P6    S    
C22   C24   S    
C21   P4    S    
Ba2   O24   S    
C36   C37   A    
C46   C62   S    
C64   H75   S    
C62   H72   S    
C13   C14   A    
C51   H78   S    
C66   H22   S    
C18   N2    Am   
Ba1   Ba2   S    
C7    C11   A    
C64   H76   S    
Ba2   O27   S    
C52   H5    S    
C63   H71   S    
O23   P4    D    
C38   C41   A    
O18   P6    S    
C30   N2    S    
Ba1   O15   S    
C34   H13   S    
C14   C15   A    
C3    O10   D    
C33   C47   A    
C66   H21   S    
C21   C22   D    
O17   P1    S    
Ba2   O28   S    
C4    H35   S    
O12   P2    S    
C41   C46   A    
O20   P3    S    
C28   H44   S    
C50   C53   S    
C59   H60   S    
O26   P4    S    
C1    C58   S    
C57   H53   S    
O24   P4    S    
Ba2   O5    S    
C3    N1    Am   
O5    P2    S    
C40   H34   S    
C23   O7    S    
C12   H1    S    
C8    C60   S    
C40   H12   S    
C33   C46   A    
C56   H17   S    
C27   C67   A    
C4    O22   S    
C33   P2    S    
C4    C16   S    
C49   H45   S    
C65   C66   S    
C49   H56   S    
C61   H65   S    
C58   H59   S    
C31   H36   S    
C16   H42   S    
C35   H39   S    
C34   H11   S    
C13   H27   S    
C19   H31   S    
O6    P7    D    
C6    C7    A    
C5    O11   D    
Ba1   O19   S    
C21   C31   D    
C67   H33   S    
C18   O14   D    
C66   H25   S    
C23   H9    S    
O21   P3    D    
C17   O13   D    
O16   P6    D    
C60   H66   S    
C35   C36   A    
Ba1   O4    S    
C41   C42   A    
C60   C61   S    
C55   H54   S    
C52   H4    S    
Ba1   P1    S    
C29   C30   A    
C39   C44   A    
C4    H24   S    
C10   C18   A    
C16   H14   S    
C54   H47   S    
C32   C42   A    
Ba1   O1    S    
C45   H15   S    
C45   O3    S    
C24   N1    S    
C1    H7    S    
O28   P5    S    
C17   N2    Am   
C1    C12   S    
C59   H61   S    
C63   H69   S    
C38   C39   A    
Ba2   O4    S    
C27   P1    S    
C44   H41   S    
C50   H67   S    
O22   P3    S    
C16   C64   S    
O3    P5    S    
C51   H2    S    
C56   H16   S    
C29   H32   S    
C28   O26   S    
C37   C38   A    
C42   C43   A    
O2    P5    D    
C5    N1    Am   
O27   P7    S    
C20   C31   S    
O4    P1    S    
C14   H26   S    
C50   H77   S    
C25   C30   A    
C58   H58   S    
C48   P7    S    
O8    P8    D    
C2    C3    A    
C34   H10   S    
C45   C59   S    
C9    C10   A    
C47   H37   S    
C64   H74   S    
C6    C13   A    
O19   P2    D    
C36   P5    S    
C11   C15   A    
C9    H28   S    
C62   C63   S    
C20   P8    S    
C58   H57   S    
C1    H3    S    
C2    C7    A    
C49   C50   S    
O25   P8    S    
O15   P6    S    
O1    P1    D    
Ba2   O25   S    
C45   C56   S    
C35   C48   A    
Ba1   P2    S    
C51   O12   S    
C62   H73   S    
Ba1   O20   S    
C15   C17   A    
C54   H46   S    
C61   H63   S    
C65   O9    S    
C40   H23   S    
C60   H68   S    
Ba1   O5    S    
C55   C57   S    
C8    C9    A    
C59   H62   S    
C23   C34   S    
C63   H70   S    
C43   C44   A    
C37   H40   S    
C10   C11   A    
C27   C29   A    
C28   H43   S    
C25   C26   A    
C28   C40   S    
C49   O17   S    
C12   O18   S    
C19   C20   S    
C2    C8    A    
Ba2   P4    S    
C43   H38   S    
C12   H6    S    
Ba2   O23   S    
C55   H55   S    
C53   H49   S    
