data_mof_unit_54446.cif
_audit_creation_date              2012-10-26T19:52:49-0400
_audit_creation_method            fapswitch 2.2
_symmetry_space_group_name_H-M    P1
_symmetry_Int_Tables_number       1
_space_group_crystal_system       triclinic
_cell_length_a                    15.006822
_cell_length_b                    10.810833
_cell_length_c                    9.536549
_cell_angle_alpha                 90.361013
_cell_angle_beta                  90.041869
_cell_angle_gamma                 90.101773
_cell_volume                      1547.14033576

loop_
_atom_site_label
_atom_site_type_symbol
_atom_type_description
_atom_site_fract_x
_atom_site_fract_y
_atom_site_fract_z
_atom_type_partial_charge
C1    C     C_R   0.498720 0.262360 0.499528 0.581795
C2    C     C_R   0.187332 0.383215 0.490513 0.060363
C3    C     C_R   0.232219 0.497044 0.498333 0.004762
C4    C     C_R   0.328889 0.499562 0.499834 0.585792
C5    C     C_R   0.185220 0.608865 0.495565 0.070359
C6    C     C_R   0.475141 0.064785 0.621298 0.029869
C7    C     C_R   0.490670 0.129296 0.497651 0.032703
C8    C     C_R   0.492616 0.063484 0.370175 -0.107449
C9    C     C_R   0.492246 0.934743 0.370873 -0.111081
C10   C     C_R   0.489459 0.870857 0.499017 0.020675
C11   C     C_R   0.473228 0.937727 0.622253 0.083557
C12   C     C_R   0.906764 0.606046 0.455658 0.010379
C13   C     C_3   0.515390 0.932421 0.764259 -0.037212
C14   C     C_3   0.519353 0.073038 0.761128 -0.239369
C15   C     C_R   0.547451 0.587027 0.074327 0.175725
C16   C     C_R   0.498219 0.737721 0.500228 0.576629
C17   C     C_R   0.446857 0.421544 0.073854 0.009488
C18   C     C_R   0.446810 0.421588 0.924865 0.009241
C19   C     C_R   0.547658 0.586704 0.927022 0.185662
C20   C     C_3   0.645760 0.608157 0.921454 -0.266541
C21   C     C_3   0.645579 0.608662 0.080622 -0.267305
C22   C     C_R   0.671042 0.499786 0.499931 0.591690
C23   C     C_R   0.953106 0.275996 0.540445 -0.068607
C24   C     C_R   0.814273 0.609399 0.481556 0.059789
C25   C     C_R   0.767599 0.497938 0.498423 0.010193
C26   C     C_R   0.812332 0.384555 0.508064 0.043520
C27   C     C_R   0.905875 0.383928 0.509012 0.008113
C28   C     C_R   0.953138 0.494603 0.482213 -0.007220
C29   C     C_R   0.045659 0.274583 0.543855 0.121940
C30   C     C_R   0.094033 0.381923 0.506452 0.032088
C31   C     C_R   0.046933 0.494084 0.483311 -0.023909
C32   C     C_R   0.093704 0.606428 0.463279 -0.000774
C33   C     C_R   0.048250 0.708508 0.404494 0.133616
C34   C     C_R   0.954158 0.707049 0.397992 0.132589
Cu1   Cu    Cu3+1 0.500000 0.499980 0.640670 1.012096
Cu2   Cu    Cu3+1 0.500000 0.500020 0.359330 1.005555
H1    H     H_    0.498954 0.886051 0.271812 0.167312
H2    H     H_    0.682920 0.528559 0.876183 0.171526
H3    H     H_    0.662245 0.700438 0.126974 0.165701
H4    H     H_    0.499148 0.110646 0.270790 0.153791
H5    H     H_    0.476448 0.119518 0.840319 0.162944
H6    H     H_    0.588439 0.109783 0.754713 0.160517
H7    H     H_    0.405276 0.356313 0.129320 0.141938
H8    H     H_    0.662612 0.699628 0.875972 0.158758
H9    H     H_    0.682782 0.529423 0.125553 0.170838
H10   H     H_    0.918805 0.192591 0.571095 0.185983
H11   H     H_    0.582025 0.887721 0.763293 0.149073
H12   H     H_    0.405140 0.356448 0.868400 0.133611
I1    I     I_    0.747437 0.776687 0.543979 -0.325292
I2    I     I_    0.423621 0.866167 0.918781 -0.312270
I3    I     I_    0.736792 0.216349 0.524440 -0.341716
I4    I     I_    0.099066 0.117303 0.648546 -0.184074
I5    I     I_    0.259665 0.225565 0.414292 -0.257470
I6    I     I_    0.248790 0.770775 0.580083 -0.178996
I7    I     I_    0.120424 0.843787 0.284541 -0.140861
I8    I     I_    0.887537 0.832466 0.258222 -0.222351
N1    N     N_R   0.500570 0.500930 0.147930 -0.237577
N2    N     N_R   0.500570 0.500890 0.852020 -0.232878
O1    O     O_R   0.500000 0.319640 0.618810 -0.506899
O2    O     O_R   0.500010 0.319680 0.381230 -0.506086
O3    O     O_R   0.370250 0.499950 0.618800 -0.480785
O4    O     O_R   0.370260 0.499990 0.381220 -0.484353
O5    O     O_R   0.499990 0.680320 0.618770 -0.477998
O6    O     O_R   0.500000 0.680360 0.381190 -0.499426
O7    O     O_R   0.629740 0.500010 0.618780 -0.494872
O8    O     O_R   0.629750 0.500050 0.381200 -0.496809

loop_
_geom_bond_atom_site_label_1
_geom_bond_atom_site_label_2
_ccdc_geom_bond_type
C33   I7    S    
Cu1   O5    S    
C17   H7    S    
C22   O7    A    
C34   I8    S    
C6    C7    A    
C16   O5    A    
C23   C27   A    
C6    C14   S    
C20   H2    S    
C9    C10   A    
C12   C24   A    
C21   H9    S    
C31   C32   A    
C21   H3    S    
C2    C30   A    
C14   H6    S    
C5    C32   A    
C32   C33   A    
C3    C5    A    
Cu2   O6    S    
C9    H1    S    
C17   C18   A    
C7    C8    A    
Cu1   O3    S    
C23   H10   S    
C10   C16   S    
C26   I3    S    
C24   C25   A    
C15   C19   A    
C15   N1    A    
C6    C11   A    
C26   C27   A    
C29   C30   A    
C15   C21   S    
C12   C28   A    
C14   H5    S    
Cu2   O4    S    
C23   C29   A    
C20   H8    S    
C33   C34   A    
C2    C3    A    
C1    O1    A    
C19   N2    A    
C30   C31   A    
Cu2   O8    S    
C10   C11   A    
Cu1   O7    S    
C12   C34   A    
C13   I2    S    
C2    I5    S    
C4    O4    A    
C5    I6    S    
C11   C13   S    
C8    H4    S    
C20   C21   S    
C22   C25   S    
C24   I1    S    
Cu1   O1    S    
Cu2   N1    S    
C1    O2    A    
C27   C28   A    
C13   H11   S    
C22   O8    A    
Cu1   N2    S    
Cu1   Cu2   S    
C16   O6    A    
C1    C7    S    
C25   C26   A    
C13   C14   S    
C4    O3    A    
C18   N2    A    
C28   C31   A    
C3    C4    S    
C19   C20   S    
C17   N1    A    
C8    C9    A    
Cu2   O2    S    
C29   I4    S    
C18   H12   S    
