data_mof_unit_45306.cif
_audit_creation_date              2013-03-05T15:55:04-0500
_audit_creation_method            fapswitch 2.2
_symmetry_space_group_name_H-M    P1
_symmetry_Int_Tables_number       1
_space_group_crystal_system       triclinic
_cell_length_a                    14.952868
_cell_length_b                    14.90396
_cell_length_c                    14.91125
_cell_angle_alpha                 109.455314
_cell_angle_beta                  109.959926
_cell_angle_gamma                 109.279833
_cell_volume                      2549.10924438

loop_
_atom_site_label
_atom_site_type_symbol
_atom_site_description
_atom_site_fract_x
_atom_site_fract_y
_atom_site_fract_z
_atom_type_partial_charge
C1    C     C_R   0.186182 0.279400 0.253804 -0.140504
H1    H     H_    0.125627 0.303733 0.250909 0.110969
N1    N     N_R   0.291070 0.347930 0.293870 -0.041402
C2    C     C_R   0.525731 0.432772 0.746768 -0.115365
H2    H     H_    0.552887 0.374912 0.749973 0.112657
N2    N     N_R   0.554050 0.497220 0.706150 -0.038911
C3    C     C_R   0.505185 0.200859 0.408462 -0.070054
H3    H     H_    0.486702 0.153821 0.325290 0.086481
N3    N     N_R   0.497240 0.291100 0.443210 -0.048498
C4    C     C_R   0.296200 0.601494 0.591341 -0.131540
H4    H     H_    0.334715 0.665363 0.675649 0.086891
N4    N     N_R   0.347890 0.554050 0.556810 -0.038779
C5    C     C_R   0.594614 0.290329 0.591181 -0.151185
H5    H     H_    0.655652 0.323094 0.675566 0.101483
N5    N     N_R   0.554050 0.347900 0.556830 -0.041691
C6    C     C_R   0.201116 0.506071 0.408908 -0.155943
H6    H     H_    0.146209 0.474141 0.323359 0.112154
N6    N     N_R   0.291070 0.497250 0.443190 -0.039161
C7    C     C_R   0.436233 0.527129 0.750972 -0.124130
H7    H     H_    0.383311 0.559127 0.761954 0.097616
N7    N     N_R   0.497240 0.554030 0.706140 -0.041995
C8    C     C_R   0.275177 0.184851 0.249279 -0.126971
H8    H     H_    0.295163 0.120358 0.238078 0.160403
N8    N     N_R   0.347890 0.291110 0.293870 -0.045490
C9    C     C_R   0.172507 0.175703 0.223919 0.079604
C10   C     C_R   0.452366 0.450009 0.776820 0.062322
C11   C     C_R   0.564847 0.196844 0.499383 0.088727
C12   C     C_R   0.203836 0.575218 0.500353 0.070722
C13   C     C_R   0.477317 0.721431 0.407958 -0.139586
H9    H     H_    0.452911 0.696492 0.323213 0.111222
N9    N     N_R   0.445950 0.652100 0.443170 -0.041750
C14   C     C_R   0.812656 0.570105 0.593369 -0.118123
H10   H     H_    0.869825 0.633700 0.677601 0.127905
N10   N     N_R   0.708930 0.502750 0.556810 -0.044491
C15   C     C_R   0.496231 0.404248 0.196689 -0.151603
H11   H     H_    0.516290 0.340812 0.169096 0.101054
N11   N     N_R   0.502760 0.445970 0.293860 -0.037405
C16   C     C_R   0.706745 0.799415 0.803617 -0.154056
H12   H     H_    0.670399 0.846521 0.830900 0.102508
N12   N     N_R   0.652110 0.708890 0.706130 -0.039865
C17   C     C_R   0.799807 0.710452 0.806346 -0.140580
H13   H     H_    0.851683 0.679071 0.836635 0.115961
N13   N     N_R   0.708930 0.652070 0.706130 -0.042745
C18   C     C_R   0.405110 0.495442 0.194816 -0.142671
H14   H     H_    0.344122 0.518093 0.165188 0.084113
N14   N     N_R   0.445950 0.502780 0.293850 -0.039034
C19   C     C_R   0.565454 0.815100 0.592090 -0.125900
H15   H     H_    0.618375 0.878844 0.677666 0.092425
N15   N     N_R   0.502760 0.708900 0.556790 -0.040357
C20   C     C_R   0.725205 0.469990 0.409848 -0.137106
H16   H     H_    0.705530 0.434108 0.324906 0.095134
N16   N     N_R   0.652110 0.445950 0.443190 -0.044342
Ni1   Ni    Ni4+2 0.369690 0.500010 0.369700 0.206757
Ni2   Ni    Ni4+2 0.630310 0.499990 0.630300 0.229425
Ni3   Ni    Ni4+2 0.500000 0.369720 0.369720 0.210708
Ni4   Ni    Ni4+2 0.500000 0.630280 0.630280 0.210908
C21   C     C_R   0.551890 0.825497 0.499601 0.073761
C22   C     C_R   0.828421 0.547945 0.504363 0.052147
C23   C     C_R   0.435815 0.434066 0.132225 0.082883
C24   C     C_R   0.800388 0.803679 0.868831 0.086170
H17   H     H_    0.058229 0.472214 0.043126 0.103532
C25   C     C_R   0.129723 0.600913 0.209336 -0.014735
H18   H     H_    0.200385 0.653669 0.210182 0.131338
C26   C     C_R   0.119923 0.634266 0.303225 -0.121237
H19   H     H_    0.184613 0.712154 0.376882 0.136945
C27   C     C_R   0.031295 0.563337 0.304557 0.095204
C28   C     C_R   0.948510 0.462502 0.207805 -0.181697
H20   H     H_    0.879986 0.406212 0.207111 0.113394
C29   C     C_R   0.958009 0.430335 0.113632 -0.088493
H21   H     H_    0.895710 0.351354 0.040337 0.116538
C30   C     C_R   0.049723 0.498398 0.115257 -0.024304
C31   C     C_R   0.939098 0.577312 0.415230 -0.226400
H22   H     H_    0.866334 0.552779 0.341815 0.129960
C32   C     C_R   0.935711 0.589274 0.511344 0.058569
C33   C     C_R   0.034640 0.631636 0.609641 0.036629
C34   C     C_R   0.129801 0.653043 0.606310 -0.226521
H23   H     H_    0.202282 0.682259 0.682065 0.126379
C35   C     C_R   0.125477 0.613302 0.505097 0.046147
C36   C     C_R   0.033347 0.587381 0.410174 0.038827
C37   C     C_R   0.092733 0.737697 0.808261 -0.232929
H24   H     H_    0.130076 0.813642 0.808406 0.145978
C38   C     C_R   0.090699 0.741518 0.902409 -0.224357
H25   H     H_    0.126132 0.820587 0.973861 0.192763
C39   C     C_R   0.037321 0.643794 0.901653 0.394108
C40   C     C_R   0.991883 0.542281 0.807843 -0.256121
H26   H     H_    0.951702 0.466167 0.806365 0.151996
C41   C     C_R   0.996124 0.538398 0.714602 -0.193185
H27   H     H_    0.958663 0.459425 0.641962 0.137715
C42   C     C_R   0.041791 0.636046 0.712566 0.117320
C43   C     C_R   0.453799 0.348025 0.878897 0.154901
C44   C     C_R   0.408592 0.401885 0.833599 0.037273
C45   C     C_R   0.335378 0.425970 0.862048 -0.191334
H28   H     H_    0.291933 0.460157 0.823535 0.131101
C46   C     C_R   0.331920 0.423179 0.953800 -0.201711
H29   H     H_    0.285965 0.455368 0.982640 0.126857
C47   C     C_R   0.400979 0.395330 0.015908 0.032208
C48   C     C_R   0.449582 0.344431 0.968599 0.159493
C49   C     C_3   0.561879 0.357793 0.019096 -0.523736
C50   C     C_3   0.567028 0.362412 0.921555 -0.490428
H30   H     H_    0.623128 0.436744 0.097973 0.205613
H31   H     H_    0.559678 0.283218 0.021110 0.189019
H32   H     H_    0.631258 0.444266 0.945737 0.216256
H33   H     H_    0.568459 0.290818 0.867956 0.192725
C51   C     C_R   0.565342 0.931477 0.400382 0.118048
C52   C     C_R   0.599503 0.928113 0.498648 0.089314
C53   C     C_R   0.664035 0.029592 0.598279 -0.196415
H34   H     H_    0.701861 0.034402 0.677071 0.119698
C54   C     C_R   0.664750 0.123813 0.598321 -0.178706
H35   H     H_    0.703770 0.196832 0.677202 0.120514
C55   C     C_R   0.601430 0.116924 0.498687 0.075865
C56   C     C_R   0.564170 0.023619 0.400429 -0.035897
C57   C     C_3   0.465445 0.956701 0.286108 0.225407
C58   C     C_3   0.466876 0.855722 0.286379 -0.600305
H36   H     H_    0.482931 0.972179 0.224268 0.055719
H37   H     H_    0.392678 0.801002 0.282887 0.219583
H38   H     H_    0.487384 0.813802 0.225986 0.174211
C59   C     C_R   0.968446 0.077415 0.120549 0.175797
C60   C     C_R   0.066466 0.076007 0.167623 -0.004721
C61   C     C_R   0.059556 0.973330 0.141629 -0.154768
H39   H     H_    0.130822 0.967697 0.182630 0.216560
C62   C     C_R   0.964270 0.877854 0.049810 -0.172374
H40   H     H_    0.964802 0.801550 0.022351 0.187253
C63   C     C_R   0.876560 0.885719 0.985405 0.000824
C64   C     C_R   0.874543 0.983209 0.030770 0.172420
C65   C     C_3   0.839805 0.044946 0.978471 -0.528645
C66   C     C_3   0.942585 0.148045 0.076165 -0.527604
H41   H     H_    0.840590 0.025343 0.900031 0.201165
H42   H     H_    0.763462 0.042366 0.974943 0.189829
H43   H     H_    0.001387 0.186604 0.052643 0.201650
H44   H     H_    0.925163 0.204938 0.128340 0.191592
N17   N     N_R   0.024280 0.647280 0.993346 0.204255
O1    O     O_R   0.094276 0.732002 0.091979 -0.388003
O2    O     O_R   0.935280 0.571784 0.976411 -0.450824
N18   N     N_R   0.365410 0.955892 0.279904 0.252067
O3    O     O_R   0.291922 0.939771 0.189264 -0.448409
O4    O     O_R   0.341460 0.954156 0.355719 -0.388582

loop_
_geom_bond_atom_site_label_1
_geom_bond_atom_site_label_2
_geom_bond_distance
_ccdc_geom_bond_type
C6    C12   1.386147 A    
C21   C52   1.465752 S    
C41   H27   1.083268 S    
C17   H13   1.079610 S    
C50   H33   1.111964 S    
C56   C57   1.502329 S    
C14   C22   1.378071 A    
C9    C60   1.459859 S    
C57   H36   1.112788 S    
C48   C49   1.497430 S    
C3    H3    1.079262 S    
C19   N15   1.337689 A    
C40   H26   1.082848 S    
N8    Ni3   1.851048 S    
C27   C36   1.481018 S    
C25   H18   1.081884 S    
C15   N11   1.326186 A    
C59   C64   1.377593 A    
N2    Ni2   1.860574 S    
C31   C36   1.398121 A    
C16   H12   1.080015 S    
C53   H34   1.081137 S    
C66   H44   1.112171 S    
C18   C23   1.385579 A    
C49   C50   1.505243 S    
C3    C11   1.378791 A    
C54   H35   1.080606 S    
C15   C23   1.376378 A    
C1    H1    1.074161 S    
C37   C42   1.402632 A    
C29   C30   1.397350 A    
C7    C10   1.393770 A    
C60   C61   1.405633 A    
C57   C58   1.513511 S    
C38   C39   1.404892 A    
C25   C26   1.397557 A    
N6    Ni1   1.860689 S    
C55   C56   1.401674 A    
N12   N13   1.383522 A    
C15   H11   1.079588 S    
C11   C55   1.464245 S    
C6    H6    1.072547 S    
N12   Ni4   1.851047 S    
C8    C9    1.396271 A    
C65   H42   1.111790 S    
C20   N16   1.342095 A    
N3    Ni3   1.851980 S    
C12   C35   1.472776 S    
C59   C66   1.501275 S    
C43   C48   1.378043 A    
N16   Ni3   1.851344 S    
C58   H38   1.111579 S    
H17   C30   1.082534 S    
C40   C41   1.396215 A    
C27   C28   1.407189 A    
C5    H5    1.080308 S    
C1    C9    1.378143 A    
C17   N13   1.342906 A    
N1    N8    1.383523 A    
C46   H29   1.081340 S    
N9    N15   1.376865 A    
C51   C52   1.401889 A    
C18   N14   1.340977 A    
C61   C62   1.400342 A    
C32   C33   1.421870 A    
C28   H20   1.083111 S    
C20   C22   1.399354 A    
N5    Ni2   1.850569 S    
C63   C64   1.399206 A    
C34   H23   1.079389 S    
C2    N2    1.327695 A    
C57   N18   1.462546 S    
C44   C45   1.407991 A    
C35   C36   1.415445 A    
C31   H22   1.083215 S    
N18   O4    1.302586 A    
C66   H43   1.112428 S    
C10   C44   1.460310 S    
N2    N7    1.383279 A    
N9    Ni1   1.850569 S    
C28   C29   1.398059 A    
C51   C56   1.378935 A    
C26   C27   1.407484 A    
C24   C63   1.458322 S    
C33   C34   1.374046 A    
C13   H9    1.072774 S    
C19   C21   1.392578 A    
N13   Ni2   1.850302 S    
C19   H15   1.078720 S    
C47   C48   1.399603 A    
C45   C46   1.400344 A    
C20   H16   1.080404 S    
C39   C40   1.403516 A    
C46   C47   1.408008 A    
C62   H40   1.076575 S    
N4    Ni4   1.851344 S    
C4    N4    1.323856 A    
C16   C24   1.371407 A    
C31   C32   1.404869 A    
C13   C21   1.386392 A    
N10   Ni2   1.860691 S    
C49   H30   1.112534 S    
C5    N5    1.338215 A    
C65   C66   1.505351 S    
C8    N8    1.341719 A    
C23   C47   1.459606 S    
N17   O1    1.300832 A    
N15   Ni4   1.851979 S    
C43   C50   1.500428 S    
C18   H14   1.080916 S    
C22   C32   1.467903 S    
C4    C12   1.382459 A    
C3    N3    1.332218 A    
C7    N7    1.339086 A    
C17   C24   1.386668 A    
C34   C35   1.394755 A    
C37   H24   1.083107 S    
N17   O2    1.301280 A    
N7    Ni4   1.852008 S    
C2    C10   1.383952 A    
C61   H39   1.079302 S    
N18   O3    1.298966 A    
C49   H31   1.111793 S    
C52   C53   1.409407 A    
C39   N17   1.432316 S    
N10   N16   1.376864 A    
C14   H10   1.070314 S    
C7    H7    1.079871 S    
C41   C42   1.404474 A    
N3    N5    1.376864 A    
C13   N9    1.331503 A    
C59   C60   1.403254 A    
C26   H19   1.083221 S    
C16   N12   1.325026 A    
N1    Ni1   1.850302 S    
C43   C44   1.401904 A    
C53   C54   1.400556 A    
N14   Ni1   1.860574 S    
C45   H28   1.081769 S    
C37   C38   1.397166 A    
C54   C55   1.409982 A    
C25   C30   1.397463 A    
C29   H21   1.082445 S    
C62   C63   1.404533 A    
C4    H4    1.079219 S    
C33   C42   1.478954 S    
C51   C58   1.499083 S    
N11   Ni3   1.852007 S    
C2    H2    1.075285 S    
C50   H32   1.112433 S    
C6    N6    1.334133 A    
C38   H25   1.081894 S    
N4    N6    1.376864 A    
C65   H41   1.112451 S    
C8    H8    1.076072 S    
C5    C11   1.384609 A    
C1    N1    1.325105 A    
N11   N14   1.383277 A    
C14   N10   1.319298 A    
C64   C65   1.497216 S    
C58   H37   1.110630 S    
