data_mof_unit_61714.cif
_audit_creation_date              2013-03-05T16:11:45-0500
_audit_creation_method            fapswitch 2.2
_symmetry_space_group_name_H-M    P1
_symmetry_Int_Tables_number       1
_space_group_crystal_system       triclinic
_cell_length_a                    37.197528
_cell_length_b                    30.282584
_cell_length_c                    21.67053
_cell_angle_alpha                 89.924948
_cell_angle_beta                  54.39656
_cell_angle_gamma                 89.877489
_cell_volume                      19847.2914638

loop_
_atom_site_label
_atom_site_type_symbol
_atom_site_description
_atom_site_fract_x
_atom_site_fract_y
_atom_site_fract_z
_atom_type_partial_charge
O1    O     O_R   0.065470 0.536950 0.434540 -0.590283
O2    O     O_R   0.934530 0.536950 0.565460 -0.590148
O3    O     O_R   0.565470 0.036950 0.434540 -0.586540
O4    O     O_R   0.434530 0.036950 0.565460 -0.584245
O5    O     O_R   0.065460 0.463040 0.434540 -0.584202
O6    O     O_R   0.934540 0.463040 0.565460 -0.583977
O7    O     O_R   0.565460 0.963040 0.434540 -0.584969
O8    O     O_R   0.434540 0.963040 0.565460 -0.561012
C1    C     C_R   0.086164 0.500011 0.413634 1.016021
C2    C     C_R   0.913841 0.500074 0.586299 1.016340
C3    C     C_R   0.586227 0.999965 0.413803 0.998215
C4    C     C_R   0.413750 0.000143 0.586465 1.007274
O9    O     O_R   0.000010 0.536950 0.591610 -0.594732
O10   O     O_R   0.999990 0.536950 0.408390 -0.597303
O11   O     O_R   0.500010 0.036950 0.591610 -0.593739
O12   O     O_R   0.499990 0.036950 0.408390 -0.617576
O13   O     O_R   0.000000 0.463040 0.591610 -0.593588
O14   O     O_R   0.000000 0.463040 0.408390 -0.589846
O15   O     O_R   0.500000 0.963040 0.591610 -0.592337
O16   O     O_R   0.500000 0.963040 0.408390 -0.561283
C5    C     C_R   0.001879 0.499941 0.618081 0.997527
C6    C     C_R   0.998408 0.500006 0.381602 0.993795
C7    C     C_R   0.502049 0.999915 0.617942 0.990438
C8    C     C_R   0.498887 0.999939 0.381109 0.966429
Zn1   Zn    Zn3+2 0.000000 0.549350 0.500000 1.140747
Zn2   Zn    Zn3+2 0.500000 0.049350 0.500000 1.134163
Zn3   Zn    Zn3+2 0.000000 0.450640 0.500000 1.104025
Zn4   Zn    Zn3+2 0.500000 0.950640 0.500000 1.141238
C9    C     C_R   0.037957 0.656856 0.941593 -0.177040
C10   C     C_R   0.962440 0.657648 0.055566 -0.169891
C11   C     C_R   0.537054 0.157217 0.941873 -0.169940
C12   C     C_R   0.462650 0.157140 0.058836 -0.180293
H1    H     H_    0.067220 0.639231 0.897300 0.176744
H2    H     H_    0.933040 0.640618 0.100637 0.177897
H3    H     H_    0.565952 0.139891 0.896019 0.175466
H4    H     H_    0.433814 0.139746 0.104572 0.166207
C13   C     C_R   0.500103 0.634029 0.999690 -0.405901
C14   C     C_R   0.000079 0.133769 0.999812 -0.414948
C15   C     C_R   0.071850 0.452219 0.617559 0.382872
C16   C     C_R   0.929527 0.451003 0.380987 0.386640
C17   C     C_R   0.571718 0.951706 0.618006 0.378011
C18   C     C_R   0.416392 0.990644 0.393781 0.361451
C19   C     C_R   0.098914 0.422915 0.625312 0.389505
C20   C     C_R   0.903693 0.420679 0.372163 0.386425
C21   C     C_R   0.598499 0.922083 0.625998 0.406218
C22   C     C_R   0.376196 0.001436 0.403276 0.453232
C23   C     C_R   0.087685 0.413269 0.697138 -0.096409
C24   C     C_R   0.915490 0.411213 0.299938 -0.106775
C25   C     C_R   0.587191 0.912439 0.697921 -0.129541
C26   C     C_R   0.377832 0.020919 0.343637 -0.146485
H5    H     H_    0.106923 0.389431 0.703817 0.237206
H6    H     H_    0.897245 0.386631 0.292439 0.240088
H7    H     H_    0.606264 0.888475 0.704815 0.205652
H8    H     H_    0.347523 0.031038 0.351296 0.195621
C27   C     C_R   0.053893 0.436221 0.759931 -0.193754
C28   C     C_R   0.948359 0.435348 0.237922 -0.184181
C29   C     C_R   0.553615 0.935615 0.760611 -0.173428
C30   C     C_R   0.417974 0.027317 0.273877 -0.206544
H9    H     H_    0.046994 0.428135 0.814346 0.207867
H10   H     H_    0.955531 0.427477 0.183248 0.209307
H11   H     H_    0.547002 0.927525 0.814959 0.186422
H12   H     H_    0.417088 0.044450 0.231010 0.185373
C31   C     C_R   0.029626 0.469030 0.752678 -0.073527
C32   C     C_R   0.971266 0.469096 0.246367 -0.034038
C33   C     C_R   0.529453 0.968546 0.753113 -0.050687
C34   C     C_R   0.458148 0.014078 0.261371 -0.004060
C35   C     C_R   0.035132 0.473820 0.683186 -0.012363
C36   C     C_R   0.965644 0.473517 0.316000 -0.012357
C37   C     C_R   0.535051 0.973396 0.683502 -0.016997
C38   C     C_R   0.457718 0.001413 0.324268 -0.014909
C39   C     C_R   0.003238 0.499726 0.682868 -0.206748
C40   C     C_R   0.996880 0.500009 0.316996 -0.262460
C41   C     C_R   0.503377 0.999581 0.682852 -0.205453
C42   C     C_R   0.498677 0.000083 0.315121 -0.254933
C43   C     C_R   0.970376 0.524200 0.747169 0.317375
C44   C     C_R   0.028546 0.525784 0.253694 0.420150
C45   C     C_R   0.470563 0.024113 0.747070 0.317062
C46   C     C_R   0.539122 0.008188 0.244025 0.418486
C47   C     C_R   0.971068 0.525426 0.810621 0.438771
C48   C     C_R   0.026977 0.528213 0.191834 0.441592
C49   C     C_R   0.471189 0.025290 0.810580 0.436127
C50   C     C_R   0.539058 0.015390 0.181037 0.464456
C51   C     C_R   0.999765 0.497054 0.813713 -0.191589
C52   C     C_R   0.999790 0.498512 0.186594 -0.264221
C53   C     C_R   0.499737 0.996781 0.813867 -0.178964
C54   C     C_R   0.498910 0.013733 0.188067 -0.325207
C55   C     C_R   0.203433 0.474627 0.256283 -0.232151
C56   C     C_R   0.796605 0.475195 0.743956 -0.233137
C57   C     C_R   0.703938 0.972165 0.260670 -0.229864
C58   C     C_R   0.296469 0.970940 0.739449 -0.239476
H13   H     H_    0.221632 0.454532 0.205395 0.209750
H14   H     H_    0.778429 0.455235 0.795007 0.209481
H15   H     H_    0.722410 0.949979 0.212575 0.212066
H16   H     H_    0.278382 0.947398 0.785518 0.209562
C59   C     C_R   0.157670 0.474224 0.300982 0.346534
C60   C     C_R   0.842368 0.474650 0.699229 0.345829
C61   C     C_R   0.658219 0.971092 0.305511 0.352247
C62   C     C_R   0.342210 0.970441 0.694439 0.356344
C63   C     C_R   0.134052 0.500151 0.367099 -0.293668
C64   C     C_R   0.865961 0.500363 0.632865 -0.293360
C65   C     C_R   0.634208 0.999972 0.367874 -0.295106
C66   C     C_R   0.365713 0.000808 0.634241 -0.298967
C67   C     C_R   0.156536 0.526684 0.387900 0.318534
C68   C     C_R   0.843464 0.526825 0.611831 0.317987
C69   C     C_R   0.656510 0.029165 0.385703 0.321162
C70   C     C_R   0.342807 0.032466 0.621140 0.275313
C71   C     C_R   0.202721 0.527337 0.341872 0.359928
C72   C     C_R   0.797277 0.527635 0.657890 0.359975
C73   C     C_R   0.702681 0.030279 0.339494 0.361136
C74   C     C_R   0.296645 0.032818 0.667400 0.374506
C75   C     C_R   0.225953 0.500819 0.276398 -0.152568
C76   C     C_R   0.774060 0.501320 0.723619 -0.152420
C77   C     C_R   0.726116 0.001524 0.277124 -0.155932
C78   C     C_R   0.273794 0.001530 0.725794 -0.154842
C79   C     C_R   0.297200 0.486458 0.256849 -0.067916
C80   C     C_R   0.702892 0.486864 0.743098 -0.067520
C81   C     C_R   0.797329 0.989742 0.258461 -0.071406
C82   C     C_R   0.203113 0.990998 0.742230 -0.072643
H17   H     H_    0.279817 0.476020 0.315440 0.169376
H18   H     H_    0.720338 0.476414 0.684510 0.169551
H19   H     H_    0.780005 0.981200 0.317888 0.168531
H20   H     H_    0.220826 0.984091 0.682148 0.173249
C83   C     C_R   0.343012 0.486487 0.210560 -0.161885
C84   C     C_R   0.657079 0.486725 0.789400 -0.161552
C85   C     C_R   0.843106 0.989343 0.211858 -0.165684
C86   C     C_R   0.157318 0.990824 0.788027 -0.166032
H21   H     H_    0.360594 0.476128 0.234094 0.175266
H22   H     H_    0.639563 0.476258 0.765865 0.175420
H23   H     H_    0.860710 0.980617 0.236079 0.175699
H24   H     H_    0.140047 0.983758 0.762652 0.176594
C87   C     C_R   0.365742 0.499395 0.134424 -0.045756
C88   C     C_R   0.634264 0.499584 0.865562 -0.045689
C89   C     C_R   0.865748 0.999776 0.134660 -0.047551
C90   C     C_R   0.134254 0.999525 0.865870 -0.048096
C91   C     C_R   0.342337 0.511966 0.104782 -0.156918
C92   C     C_R   0.657589 0.512316 0.895196 -0.157230
C93   C     C_R   0.842247 0.010345 0.104350 -0.160542
C94   C     C_R   0.157348 0.007995 0.897630 -0.162125
H25   H     H_    0.359410 0.522038 0.046092 0.178598
H26   H     H_    0.640450 0.522369 0.953898 0.178315
H27   H     H_    0.859218 0.018520 0.044881 0.182166
H28   H     H_    0.140093 0.014774 0.957629 0.181869
C95   C     C_R   0.296494 0.512426 0.151415 -0.120639
C96   C     C_R   0.703429 0.512946 0.848549 -0.121870
C97   C     C_R   0.796416 0.011086 0.151235 -0.116164
C98   C     C_R   0.203149 0.008446 0.851635 -0.118302
H29   H     H_    0.278555 0.522759 0.128505 0.166228
H30   H     H_    0.721299 0.523365 0.871476 0.164998
H31   H     H_    0.778355 0.019636 0.127759 0.169455
H32   H     H_    0.220866 0.015529 0.876228 0.166293
C99   C     C_R   0.273964 0.500112 0.227610 0.180434
C100  C     C_R   0.726044 0.500642 0.772342 0.180911
C101  C     C_R   0.774048 0.001185 0.228347 0.181189
C102  C     C_R   0.225923 0.000406 0.773928 0.179339
C103  C     C_R   0.000095 0.634209 0.999137 -0.041748
C104  C     C_R   0.499883 0.134158 0.000248 -0.028577
C105  C     C_R   0.038038 0.702613 0.940147 -0.056407
C106  C     C_R   0.962786 0.703457 0.054666 -0.130710
C107  C     C_R   0.536832 0.203000 0.941759 -0.126838
C108  C     C_R   0.462737 0.202929 0.059299 -0.127970
C109  C     C_R   0.500197 0.726034 0.998912 -0.180228
C110  C     C_R   0.000151 0.225259 0.999747 -0.181398
C111  C     C_R   0.000504 0.725894 0.996721 0.183226
C112  C     C_R   0.499749 0.225778 0.000603 0.105532
H33   H     H_    0.067212 0.719932 0.895048 0.166504
H34   H     H_    0.933767 0.721474 0.098768 0.173903
H35   H     H_    0.565450 0.220741 0.896196 0.174798
H36   H     H_    0.434071 0.220614 0.104992 0.173001
O17   O     O_R   0.963040 0.434520 0.036950 -0.576325
O18   O     O_R   0.036960 0.434520 0.963050 -0.572659
O19   O     O_R   0.463040 0.934520 0.036950 -0.577906
O20   O     O_R   0.536960 0.934520 0.963050 -0.595153
C113  C     C_R   0.000034 0.413487 0.999989 0.955697
C114  C     C_R   0.500044 0.913848 0.999843 1.029840
O21   O     O_R   0.963030 0.499980 0.945350 -0.559366
O22   O     O_R   0.036970 0.499980 0.054650 -0.591477
O23   O     O_R   0.463030 0.999980 0.945350 -0.543727
O24   O     O_R   0.536970 0.999980 0.054650 -0.573987
O25   O     O_R   0.036950 0.500000 0.871430 -0.628122
O26   O     O_R   0.963050 0.500000 0.128570 -0.612730
O27   O     O_R   0.536950 0.000000 0.871430 -0.646887
O28   O     O_R   0.463050 0.000000 0.128570 -0.629284
C115  C     C_R   0.999917 0.499022 0.879930 0.938697
C116  C     C_R   0.000031 0.499432 0.120069 0.861339
C117  C     C_R   0.499914 0.998880 0.879977 0.963052
C118  C     C_R   0.499826 0.005618 0.120229 0.923772
Zn5   Zn    Zn3+2 0.950640 0.499980 0.049350 1.096372
Zn6   Zn    Zn3+2 0.049360 0.499980 0.950650 1.084091
Zn7   Zn    Zn3+2 0.450640 0.999980 0.049350 1.074946
Zn8   Zn    Zn3+2 0.549360 0.999980 0.950650 1.064726
O29   O     O_R   0.963030 0.565450 0.036970 -0.610109
O30   O     O_R   0.036970 0.565450 0.963030 -0.622618
O31   O     O_R   0.463030 0.065450 0.036970 -0.624482
O32   O     O_R   0.536970 0.065450 0.963030 -0.633244
C119  C     C_R   0.469960 0.297082 0.991716 0.438918
C120  C     C_R   0.529499 0.296896 0.009559 0.437276
C121  C     C_R   0.970499 0.797522 0.988445 0.389614
C122  C     C_R   0.030716 0.796157 0.004231 0.438978
C123  C     C_R   0.999987 0.586267 0.999957 0.862309
C124  C     C_R   0.499964 0.086250 0.000042 0.845591
O33   O     O_R   0.499990 0.434540 0.051720 -0.594514
O34   O     O_R   0.500010 0.434540 0.948280 -0.593849
O35   O     O_R   0.999990 0.934540 0.051720 -0.592364
O36   O     O_R   0.000010 0.934540 0.948280 -0.597258
C125  C     C_R   0.499986 0.413890 0.000054 0.885392
C126  C     C_R   0.999898 0.913894 0.000112 0.885464
O37   O     O_R   0.434530 0.500010 0.117180 -0.616017
O38   O     O_R   0.565470 0.500010 0.882820 -0.615731
O39   O     O_R   0.934530 0.000010 0.117180 -0.615305
O40   O     O_R   0.065470 0.000010 0.882820 -0.614857
O41   O     O_R   0.434520 0.500010 0.013750 -0.618967
O42   O     O_R   0.565480 0.500010 0.986250 -0.619008
O43   O     O_R   0.934520 0.000010 0.013750 -0.622638
O44   O     O_R   0.065480 0.000010 0.986250 -0.624666
C127  C     C_R   0.413725 0.499818 0.086271 0.839009
C128  C     C_R   0.586277 0.499843 0.913727 0.838762
C129  C     C_R   0.913726 0.999887 0.086295 0.842339
C130  C     C_R   0.086274 0.999830 0.913762 0.843642
Zn9   Zn    Zn3+2 0.500000 0.500010 0.069060 1.050802
Zn10  Zn    Zn3+2 0.500000 0.500010 0.930940 1.051830
Zn11  Zn    Zn3+2 0.000000 0.000010 0.069060 1.050468
Zn12  Zn    Zn3+2 0.000000 0.000010 0.930940 1.052545
O45   O     O_R   0.500010 0.565480 0.051720 -0.591541
O46   O     O_R   0.499990 0.565480 0.948280 -0.591286
O47   O     O_R   0.000010 0.065480 0.051720 -0.588174
O48   O     O_R   0.999990 0.065480 0.948280 -0.588481
C131  C     C_R   0.468472 0.342926 0.995673 0.410707
C132  C     C_R   0.531186 0.342724 0.005152 0.411397
C133  C     C_R   0.968500 0.843248 0.994692 0.413874
C134  C     C_R   0.031748 0.842494 0.003006 0.304131
C135  C     C_R   0.500009 0.586113 0.999945 0.888125
C136  C     C_R   0.000008 0.086040 0.999956 0.906543
C137  C     C_R   0.035880 0.295564 0.938039 0.399527
C138  C     C_R   0.964396 0.295578 0.061704 0.399083
C139  C     C_R   0.520521 0.796848 0.027579 0.391567
C140  C     C_R   0.480247 0.797187 0.969961 0.404197
C141  C     C_R   0.036646 0.341518 0.938550 0.287140
C142  C     C_R   0.963599 0.341538 0.061340 0.286644
C143  C     C_R   0.520444 0.842944 0.027940 0.287292
C144  C     C_R   0.480163 0.843291 0.970224 0.266062
C145  C     C_R   0.000102 0.365043 0.999961 -0.363260
C146  C     C_R   0.500185 0.865999 0.999384 -0.363885
C147  C     C_R   0.499698 0.273842 0.000711 -0.358131
C148  C     C_R   0.000800 0.773995 0.995458 -0.281764
C149  C     C_R   0.499893 0.365969 0.000260 -0.464748
C150  C     C_R   0.999857 0.865967 0.999900 -0.405935
C151  C     C_R   0.000139 0.273056 0.999824 -0.127398
C152  C     C_R   0.500363 0.774198 0.998728 -0.120247
C153  C     C_R   0.465238 0.703398 0.062130 0.437336
C154  C     C_R   0.535093 0.703061 0.936057 0.436970
C155  C     C_R   0.974207 0.202736 0.982432 0.437176
C156  C     C_R   0.026080 0.202526 0.017044 0.437285
C157  C     C_R   0.464422 0.657400 0.062606 0.360910
C158  C     C_R   0.535819 0.657063 0.936368 0.362365
C159  C     C_R   0.972276 0.156983 0.986073 0.361120
C160  C     C_R   0.027944 0.156770 0.013457 0.361222
Cl1   Cl    Cl    0.127340 0.558108 0.472685 -0.445192
Cl2   Cl    Cl    0.872672 0.557914 0.526679 -0.443069
Cl3   Cl    Cl    0.627256 0.062986 0.467687 -0.444037
Cl4   Cl    Cl    0.371024 0.070820 0.545292 -0.475889
Cl5   Cl    Cl    0.231135 0.562792 0.364753 -0.460959
Cl6   Cl    Cl    0.768844 0.563013 0.634691 -0.459879
Cl7   Cl    Cl    0.730893 0.068795 0.358297 -0.466678
Cl8   Cl    Cl    0.267597 0.073296 0.653470 -0.451926
O49   O     O_3   0.435919 0.363885 0.994142 -0.657771
H37   H     H_    0.429279 0.392989 0.019317 0.330584
O50   O     O_3   0.563816 0.363465 0.006517 -0.658301
H38   H     H_    0.570582 0.392504 0.981068 0.330683
O51   O     O_3   0.935529 0.864478 0.994705 -0.656634
H39   H     H_    0.928740 0.893188 0.021108 0.328165
O52   O     O_3   0.064438 0.863488 0.003955 -0.735034
H40   H     H_    0.070802 0.892677 0.979101 0.346523
O53   O     O_3   0.440976 0.276388 0.980684 -0.666429
H41   H     H_    0.451010 0.245867 0.962448 0.350123
O54   O     O_3   0.558398 0.276010 0.020777 -0.668664
H42   H     H_    0.548205 0.245583 0.039353 0.346221
O55   O     O_3   0.941483 0.777124 0.977231 -0.665645
H43   H     H_    0.952040 0.746941 0.957287 0.341762
O56   O     O_3   0.058880 0.771296 0.012743 -0.717446
H44   H     H_    0.076570 0.790802 0.022045 0.399684
Cl9   Cl    Cl    0.079763 0.265758 0.859287 -0.418507
Cl10  Cl    Cl    0.920545 0.265784 0.140379 -0.419469
Cl11  Cl    Cl    0.545628 0.767347 0.063709 -0.413932
Cl12  Cl    Cl    0.455304 0.768107 0.933343 -0.416755
O57   O     O_3   0.937210 0.547042 0.749870 -0.730245
H45   H     H_    0.928894 0.530763 0.720339 0.349376
O58   O     O_3   0.060770 0.550253 0.251063 -0.654455
H46   H     H_    0.070049 0.534515 0.279728 0.333250
O59   O     O_3   0.437513 0.047079 0.749602 -0.729673
H47   H     H_    0.428997 0.030660 0.720469 0.345000
O60   O     O_3   0.579647 0.010200 0.233235 -0.655214
H48   H     H_    0.576881 0.001049 0.279565 0.333671
Cl13  Cl    Cl    0.083901 0.367888 0.860171 -0.505830
Cl14  Cl    Cl    0.916366 0.367949 0.139874 -0.505853
Cl15  Cl    Cl    0.544334 0.871675 0.066817 -0.429729
Cl16  Cl    Cl    0.456326 0.872466 0.931481 -0.485179
Cl17  Cl    Cl    0.421212 0.732569 0.141062 -0.404654
Cl18  Cl    Cl    0.579186 0.731809 0.856673 -0.413998
Cl19  Cl    Cl    0.942330 0.231642 0.958964 -0.411955
Cl20  Cl    Cl    0.057992 0.231162 0.040499 -0.411031
O61   O     O_3   0.428057 0.636847 0.124982 -0.650562
H49   H     H_    0.426476 0.605716 0.113113 0.339269
O62   O     O_3   0.572134 0.636164 0.874333 -0.650104
H50   H     H_    0.573745 0.605157 0.886854 0.338863
O63   O     O_3   0.942599 0.136269 0.976899 -0.652209
H51   H     H_    0.932207 0.108716 0.007129 0.340971
O64   O     O_3   0.057599 0.135834 0.022632 -0.651892
H52   H     H_    0.067952 0.108276 0.992417 0.341502
O65   O     O_3   0.082168 0.461514 0.546779 -0.766021
H53   H     H_    0.094687 0.434582 0.515076 0.346273
O66   O     O_3   0.918422 0.460572 0.452193 -0.761775
H54   H     H_    0.906675 0.433463 0.483562 0.346232
O67   O     O_3   0.582340 0.961344 0.547111 -0.769647
H55   H     H_    0.594697 0.934438 0.515303 0.348712
O68   O     O_3   0.416120 0.967402 0.448789 -0.769890
H56   H     H_    0.391084 0.946372 0.473238 0.342606
O69   O     O_3   0.136712 0.403514 0.564312 -0.722471
H57   H     H_    0.149641 0.423278 0.519778 0.352759
O70   O     O_3   0.866547 0.400109 0.432450 -0.719949
H58   H     H_    0.852706 0.419591 0.477462 0.352779
O71   O     O_3   0.636171 0.902435 0.565130 -0.724127
H59   H     H_    0.649298 0.922152 0.520504 0.350560
O72   O     O_3   0.334860 0.994962 0.470073 -0.721218
H60   H     H_    0.337638 0.990463 0.512266 0.345929
O73   O     O_3   0.943335 0.553062 0.871569 -0.725248
H61   H     H_    0.927696 0.573610 0.859102 0.396119
O74   O     O_3   0.053758 0.559003 0.136414 -0.658497
H62   H     H_    0.039510 0.568756 0.111820 0.328293
O75   O     O_3   0.443553 0.053049 0.871395 -0.724753
H63   H     H_    0.427901 0.073577 0.858911 0.396701
O76   O     O_3   0.579019 0.024804 0.113408 -0.642426
H64   H     H_    0.573630 0.047967 0.087287 0.331659
Cl21  Cl    Cl    0.131244 0.442376 0.270172 -0.548429
Cl22  Cl    Cl    0.868834 0.442857 0.730237 -0.550663
Cl23  Cl    Cl    0.632725 0.933851 0.279621 -0.505601
Cl24  Cl    Cl    0.368420 0.932698 0.718493 -0.525717

loop_
_geom_bond_atom_site_label_1
_geom_bond_atom_site_label_2
_geom_bond_distance
_ccdc_geom_bond_type
C14   C160  1.416824 A    
C120  C132  1.389973 A    
C30   H12   1.080540 S    
C27   H9    1.078662 S    
C63   C67   1.411067 A    
O60   H48   0.987173 S    
C156  Cl20  1.768462 S    
C92   H26   1.083175 S    
C157  O61   1.384472 S    
O61   H49   0.988350 S    
C89   C93   1.401738 A    
O41   Zn10  2.015862 S    
C17   C37   1.432066 A    
C125  C149  1.451205 S    
C109  C154  1.401497 A    
C59   C63   1.405524 A    
O52   H40   0.989261 S    
C9    H1    1.083225 S    
C64   C68   1.410844 A    
C137  C141  1.392159 A    
C32   C52   1.413471 A    
C98   H32   1.083608 S    
C133  O51   1.383379 S    
C122  O56   1.385505 S    
C154  Cl18  1.767581 S    
C38   C42   1.417861 A    
C44   O58   1.383182 S    
C72   Cl6   1.769718 S    
C88   C128  1.451339 S    
O4    C4    1.280520 A    
C134  C150  1.416444 A    
C9    C103  1.402094 A    
C83   C87   1.401907 A    
C95   C99   1.398697 A    
C90   C130  1.451117 S    
O22   Zn6   2.020480 S    
C57   C77   1.394481 A    
C79   C83   1.385570 A    
C55   H13   1.084186 S    
C87   C127  1.451269 S    
O72   H60   0.987360 S    
O17   Zn5   2.016841 S    
C109  C152  1.458553 S    
O25   Zn6   2.020643 S    
O16   Zn4   2.019955 S    
O20   Zn8   2.018087 S    
C62   C66   1.408591 A    
C139  Cl11  1.768955 S    
O7    Zn4   2.015693 S    
C91   H25   1.083176 S    
O26   Zn5   2.020647 S    
C138  C151  1.397740 A    
O27   Zn8   2.020643 S    
C46   C50   1.383379 A    
O62   H50   0.988405 S    
C98   C102  1.397087 A    
C36   C40   1.423813 A    
O9    C5    1.278408 A    
C71   Cl5   1.769799 S    
C120  O54   1.384064 S    
C81   C101  1.397155 A    
O8    Zn4   2.014451 S    
O21   C115  1.276083 A    
O22   C116  1.276724 A    
O43   C129  1.286059 A    
C48   O74   1.382804 S    
O3    Zn2   2.014741 S    
C131  O49   1.383334 S    
C29   H11   1.081558 S    
C119  C131  1.390038 A    
O39   C129  1.284460 A    
C20   C24   1.387588 A    
C142  Cl14  1.771726 S    
C34   C38   1.406574 A    
O48   C136  1.282342 A    
C107  H35   1.083495 S    
C58   C78   1.394134 A    
C89   C129  1.451108 S    
O3    C3    1.283008 A    
C159  O63   1.382173 S    
C85   H23   1.083160 S    
C24   H6    1.082590 S    
C86   C90   1.402221 A    
O71   H59   0.989980 S    
C79   C99   1.398199 A    
C41   C45   1.414019 A    
C67   C71   1.396976 A    
C112  C147  1.455475 S    
C43   C47   1.390726 A    
O16   C8    1.275285 A    
O26   C116  1.277228 A    
C137  Cl9   1.773641 S    
C121  C148  1.413108 A    
O40   Zn12  2.015269 S    
Zn11  O47   2.017377 S    
C140  C152  1.404602 A    
C11   C104  1.401754 A    
C160  O64   1.382170 S    
C32   C36   1.404169 A    
C138  C142  1.392135 A    
C25   H7    1.083162 S    
C18   C38   1.429427 A    
C25   C29   1.386060 A    
C84   C88   1.401886 A    
C82   H20   1.083681 S    
O34   Zn10  2.017450 S    
C110  C151  1.447422 S    
C12   C104  1.401878 A    
O32   C124  1.283356 A    
C27   C31   1.409827 A    
C28   C32   1.410583 A    
C74   C78   1.403374 A    
O8    C4    1.286617 A    
C121  O55   1.383550 S    
C91   C95   1.386629 A    
C17   O67   1.376294 S    
O55   H43   0.989101 S    
C15   O65   1.375898 S    
C6    C40   1.433878 S    
O20   C114  1.280941 A    
C53   C117  1.437981 S    
O47   C136  1.282274 A    
C10   H2    1.083190 S    
C120  C147  1.415690 A    
O13   Zn3   2.020920 S    
C52   C116  1.436676 S    
O44   C130  1.284980 A    
O46   C135  1.283226 A    
C105  H33   1.083546 S    
C137  C151  1.397716 A    
C80   H18   1.083545 S    
O24   C118  1.292741 A    
O5    C1    1.283723 A    
C110  C155  1.400834 A    
C83   H21   1.083204 S    
C88   C92   1.401651 A    
O59   H47   0.990205 S    
C68   Cl2   1.771237 S    
O15   Zn4   2.020920 S    
C106  C111  1.399098 A    
C13   C158  1.418932 A    
C79   H17   1.083552 S    
C16   C36   1.432306 A    
C139  C152  1.404558 A    
C103  C123  1.451863 S    
C13   C135  1.451031 S    
C119  C147  1.415729 A    
C49   O75   1.386392 S    
O14   C6    1.277378 A    
C71   C75   1.406116 A    
C44   C48   1.377200 A    
C34   C54   1.420600 A    
O50   H38   0.989376 S    
O1    Zn1   2.014741 S    
C21   O71   1.379808 S    
C121  C133  1.389092 A    
C141  C145  1.420706 A    
Zn6   O30   2.017079 S    
O10   C6    1.278210 A    
C96   C100  1.398752 A    
C109  C153  1.401701 A    
C19   C23   1.387397 A    
C94   C98   1.385315 A    
C60   C64   1.405417 A    
C78   C102  1.448281 S    
C82   C102  1.397531 A    
C57   H15   1.084341 S    
C114  C146  1.448995 S    
O21   Zn5   2.020478 S    
Zn7   O31   2.018326 S    
C16   C20   1.421789 A    
O18   Zn6   2.018087 S    
O33   C125  1.283212 A    
C107  C112  1.398129 A    
C81   C85   1.384630 A    
C49   C53   1.400715 A    
C154  C158  1.393211 A    
C56   C60   1.384287 A    
O39   Zn11  2.015273 S    
C153  Cl17  1.767573 S    
O54   H42   0.988735 S    
C140  Cl12  1.768778 S    
Zn10  O46   2.018342 S    
C48   C52   1.407996 A    
C46   O60   1.385890 S    
C108  H36   1.083478 S    
C142  C145  1.420692 A    
C62   Cl24  1.764651 S    
C26   H8    1.083177 S    
C5    C39   1.434002 S    
C108  C112  1.398196 A    
C93   C97   1.386432 A    
C126  C150  1.451368 S    
O24   Zn8   2.020480 S    
C55   C75   1.396340 A    
C134  O52   1.384067 S    
C86   H24   1.083103 S    
O23   C117  1.275638 A    
C19   O69   1.379806 S    
C10   C106  1.387314 A    
O28   C118  1.282971 A    
C57   C61   1.383292 A    
C69   C73   1.396860 A    
C138  Cl10  1.773630 S    
O34   C125  1.283293 A    
C119  O53   1.384085 S    
O56   H44   0.989427 S    
C76   C100  1.452448 S    
C37   C41   1.425622 A    
C47   O73   1.386289 S    
C96   H30   1.083546 S    
C84   H22   1.083204 S    
C14   C159  1.416809 A    
C22   O72   1.380937 S    
O51   H39   0.989501 S    
C15   C35   1.432784 A    
O19   C114  1.281414 A    
O45   C135  1.283535 A    
C58   H16   1.084301 S    
O12   Zn2   2.021136 S    
O35   C126  1.283728 A    
O64   H52   0.989906 S    
C26   C30   1.387330 A    
O1    C1    1.280882 A    
C94   H28   1.083119 S    
C9    C105  1.385939 A    
C50   C54   1.411148 A    
C155  Cl19  1.768440 S    
C72   C76   1.406216 A    
C31   C51   1.411286 A    
O7    C3    1.283446 A    
O76   H64   0.991533 S    
C90   C94   1.402550 A    
O57   H45   0.990081 S    
C132  O50   1.383338 S    
C131  C149  1.414850 A    
C155  C159  1.387289 A    
O58   H46   0.990126 S    
C45   C49   1.390469 A    
C43   O57   1.384276 S    
O37   C127  1.284998 A    
C2    C64   1.448368 S    
O33   Zn9   2.018419 S    
C10   C103  1.401712 A    
C54   C118  1.471485 S    
C13   C157  1.418770 A    
C18   C22   1.422911 A    
C11   H3    1.083242 S    
C12   H4    1.083290 S    
C68   C72   1.397078 A    
C106  H34   1.083477 S    
C93   H27   1.083151 S    
C80   C84   1.385612 A    
O36   Zn12  2.017450 S    
C139  C143  1.395947 A    
C29   C33   1.412239 A    
O6    C2    1.283454 A    
O4    Zn2   2.015992 S    
O42   Zn9   2.015860 S    
O31   C124  1.283321 A    
C60   Cl22  1.764109 S    
O74   H62   0.989935 S    
C92   C96   1.386678 A    
C17   C21   1.422570 A    
C61   Cl23  1.763979 S    
C47   C51   1.400484 A    
O67   H55   0.990590 S    
C33   C37   1.405124 A    
O2    Zn1   2.015992 S    
C35   C39   1.424267 A    
O10   Zn1   2.021136 S    
O73   H61   0.989756 S    
O13   C5    1.277254 A    
C69   Cl3   1.771595 S    
Zn9   O45   2.017377 S    
O70   H58   0.989978 S    
C56   C76   1.396431 A    
C28   H10   1.078988 S    
O63   H51   0.989888 S    
C42   C46   1.413893 A    
C97   H31   1.083570 S    
C158  O62   1.384436 S    
O18   C113  1.286576 A    
O38   Zn10  2.015269 S    
O41   C127  1.285593 A    
O66   H54   0.990557 S    
O75   H63   0.989973 S    
O12   C8    1.279670 A    
O15   C7    1.277135 A    
C40   C44   1.413594 A    
C16   O66   1.376280 S    
O65   H53   0.990625 S    
C95   H29   1.083548 S    
O35   Zn11  2.018419 S    
O69   H57   0.990055 S    
O44   Zn11  2.015860 S    
O29   C123  1.284176 A    
C87   C91   1.401652 A    
C45   O59   1.384179 S    
C143  Cl15  1.770132 S    
Zn12  O48   2.018342 S    
C144  Cl16  1.770063 S    
C153  C157  1.393218 A    
O19   Zn7   2.016841 S    
O43   Zn12  2.015862 S    
O30   C123  1.282997 A    
C81   H19   1.083613 S    
C110  C156  1.400782 A    
C30   C34   1.411898 A    
C56   H14   1.084183 S    
C18   O68   1.378493 S    
O28   Zn7   2.020647 S    
C21   C25   1.388336 A    
C73   Cl7   1.769769 S    
O49   H37   0.989372 S    
C105  C111  1.398009 A    
Zn5   O29   2.018326 S    
C73   C77   1.404612 A    
C156  C160  1.387204 A    
C97   C101  1.398386 A    
O11   C7    1.279659 A    
O38   C128  1.284998 A    
O5    Zn3   2.015693 S    
C70   Cl4   1.773066 S    
C67   Cl1   1.771318 S    
O9    Zn1   2.020165 S    
C104  C124  1.450755 S    
C7    C41   1.435972 S    
O25   C115  1.279496 A    
C65   C69   1.412881 A    
C31   C35   1.403999 A    
O23   Zn7   2.020478 S    
C51   C115  1.439562 S    
O42   C128  1.285630 A    
C3    C65   1.451783 S    
O27   C117  1.279237 A    
O11   Zn2   2.020165 S    
C15   C19   1.421920 A    
C132  C149  1.414807 A    
C122  C148  1.405239 A    
C14   C136  1.445362 S    
C140  C144  1.396169 A    
C55   C59   1.384313 A    
C4    C66   1.452950 S    
C23   H5    1.082727 S    
O6    Zn3   2.014451 S    
C144  C146  1.406453 A    
O53   H41   0.988675 S    
C111  C148  1.456776 S    
C141  Cl13  1.771606 S    
C133  C150  1.415440 A    
O36   C126  1.282696 A    
O2    C2    1.280994 A    
C80   C100  1.398250 A    
C23   C27   1.386335 A    
C70   C74   1.396154 A    
C85   C89   1.402505 A    
C24   C28   1.386797 A    
O17   C113  1.286509 A    
C74   Cl8   1.770408 S    
O14   Zn3   2.019955 S    
C77   C101  1.449813 S    
C75   C99   1.452251 S    
C59   Cl21  1.764119 S    
C122  C134  1.403620 A    
C33   C53   1.410943 A    
C22   C26   1.388776 A    
O37   Zn9   2.015273 S    
O40   C130  1.285560 A    
O68   H56   0.990312 S    
C39   C43   1.414474 A    
C8    C42   1.434538 S    
C66   C70   1.415329 A    
C143  C146  1.406378 A    
C20   O70   1.379773 S    
C50   O76   1.379461 S    
C11   C107  1.386466 A    
Zn8   O32   2.017079 S    
C113  C145  1.467010 S    
C1    C63   1.448625 S    
C82   C86   1.385051 A    
C58   C62   1.383523 A    
C61   C65   1.408295 A    
C12   C108  1.386683 A    
