data_mof_unit_37488.cif
_audit_creation_date              2012-10-26T18:34:22-0400
_audit_creation_method            fapswitch 2.2
_symmetry_space_group_name_H-M    P1
_symmetry_Int_Tables_number       1
_space_group_crystal_system       triclinic
_cell_length_a                    10.844036
_cell_length_b                    9.602199
_cell_length_c                    9.074258
_cell_angle_alpha                 89.999976
_cell_angle_beta                  92.03708
_cell_angle_gamma                 90.0
_cell_volume                      944.27442847

loop_
_atom_site_label
_atom_site_type_symbol
_atom_type_description
_atom_site_fract_x
_atom_site_fract_y
_atom_site_fract_z
_atom_type_partial_charge
C1    C     C_R   0.262332 0.500269 0.501518 0.540452
C2    C     C_R   0.063948 0.628136 0.500555 -0.141498
C3    C     C_R   0.871625 0.501436 0.496958 0.018856
C4    C     C_R   0.128375 0.501436 0.503041 0.018857
C5    C     C_R   0.427724 0.074833 0.399574 0.222465
C6    C     C_R   0.571245 0.925156 0.601414 0.220439
C7    C     C_R   0.572275 0.074832 0.600427 0.222463
C8    C     C_R   0.428756 0.925156 0.398585 0.220441
C9    C     C_3   0.225223 0.136986 0.286703 -0.299370
C10   C     C_3   0.608887 0.854376 0.857362 -0.286514
C11   C     C_3   0.774775 0.136994 0.713290 -0.299361
C12   C     C_R   0.737668 0.500269 0.498481 0.540451
C13   C     C_3   0.391123 0.854379 0.142636 -0.286514
C14   C     C_R   0.499830 0.499940 0.220846 0.551251
C15   C     C_R   0.500170 0.499940 0.779154 0.551250
C16   C     C_1   0.499980 0.499702 0.065591 -0.087775
C17   C     C_1   0.500020 0.499702 0.934409 -0.087774
C18   C     C_R   0.063660 0.375604 0.504725 -0.153802
C19   C     C_R   0.936052 0.628136 0.499450 -0.141497
C20   C     C_R   0.936340 0.375605 0.495268 -0.153804
Cu1   Cu    Cu3+1 0.500000 0.640660 0.500000 0.978291
Cu2   Cu    Cu3+1 0.500000 0.359340 0.500000 0.982982
H1    H     H_    0.110999 0.276986 0.512842 0.122478
H2    H     H_    0.649057 0.945732 0.915802 0.103012
H3    H     H_    0.643519 0.759950 0.915850 0.150314
H4    H     H_    0.506726 0.857323 0.862880 0.147771
H5    H     H_    0.602647 0.155934 0.811241 0.239999
H6    H     H_    0.806570 0.071521 0.807896 0.110305
H7    H     H_    0.816369 0.241553 0.729526 0.160314
H8    H     H_    0.807758 0.090440 0.609719 0.121794
H9    H     H_    0.260480 0.857372 0.307560 0.227291
H10   H     H_    0.350963 0.945741 0.084199 0.103017
H11   H     H_    0.356486 0.759958 0.084141 0.150309
H12   H     H_    0.888019 0.727033 0.499769 0.119453
H13   H     H_    0.493285 0.857316 0.137124 0.147777
H14   H     H_    0.889001 0.276987 0.487145 0.122475
H15   H     H_    0.111981 0.727033 0.500242 0.119454
H16   H     H_    0.397356 0.155950 0.188765 0.240006
H17   H     H_    0.193436 0.071512 0.192095 0.110310
H18   H     H_    0.183626 0.241543 0.270465 0.160310
H19   H     H_    0.192238 0.090430 0.390271 0.121795
H20   H     H_    0.739524 0.857375 0.692432 0.227290
N1    N     N_R   0.500000 0.852070 0.500000 -0.224605
N2    N     N_R   0.500000 0.147930 0.500000 -0.225106
N3    N     N_2   0.358226 0.150316 0.290416 -0.452979
N4    N     N_2   0.645856 0.849527 0.705610 -0.449766
N5    N     N_2   0.641772 0.150315 0.709586 -0.452976
N6    N     N_2   0.354148 0.849527 0.294386 -0.449766
O1    O     O_R   0.319640 0.618740 0.499990 -0.495590
O2    O     O_R   0.680360 0.381260 0.500010 -0.486287
O3    O     O_R   0.680360 0.618740 0.500010 -0.495588
O4    O     O_R   0.319640 0.381260 0.499990 -0.486285
O5    O     O_R   0.500000 0.618760 0.288390 -0.474884
O6    O     O_R   0.500000 0.381240 0.711610 -0.483520
O7    O     O_R   0.500000 0.618760 0.711610 -0.474886
O8    O     O_R   0.500000 0.381240 0.288390 -0.483528

loop_
_geom_bond_atom_site_label_1
_geom_bond_atom_site_label_2
_ccdc_geom_bond_type
C10   N4    S    
C13   N6    S    
C2    C4    A    
C8    N6    S    
C13   H11   S    
C6    C7    A    
C5    C8    A    
C14   O8    A    
C13   H10   S    
C9    H19   S    
C8    N1    A    
Cu2   O2    S    
H9    N6    S    
C1    C4    S    
C4    C18   A    
C10   H4    S    
Cu1   O1    S    
C11   N5    S    
C3    C20   A    
Cu2   O6    S    
Cu1   N1    S    
C7    N2    A    
C3    C19   A    
C2    H15   S    
C14   O5    A    
C1    O1    A    
C11   H6    S    
C9    N3    S    
Cu1   O5    S    
C10   H3    S    
C5    N2    A    
C13   H13   S    
C18   C20   A    
C6    N1    A    
C9    H18   S    
C1    O4    A    
C14   C16   S    
C15   C17   S    
C18   H1    S    
C20   H14   S    
C15   O6    A    
Cu1   O3    S    
C12   O3    A    
C11   H7    S    
Cu2   O4    S    
H20   N4    S    
H5    N5    S    
Cu1   O7    S    
C16   C17   T    
H16   N3    S    
Cu2   O8    S    
C3    C12   S    
C6    N4    S    
C10   H2    S    
C2    C19   A    
Cu1   Cu2   S    
C5    N3    S    
C9    H17   S    
Cu2   N2    S    
C11   H8    S    
C7    N5    S    
C12   O2    A    
C19   H12   S    
C15   O7    A    
