data_mof_unit_61079.cif
_audit_creation_date              2012-12-10T19:52:21-0500
_audit_creation_method            fapswitch 2.2
_symmetry_space_group_name_H-M    P1
_symmetry_Int_Tables_number       1
_space_group_crystal_system       triclinic
_cell_length_a                    15.020508
_cell_length_b                    14.182232
_cell_length_c                    10.724423
_cell_angle_alpha                 89.693086
_cell_angle_beta                  90.25888
_cell_angle_gamma                 90.213815
_cell_volume                      2284.49121775

loop_
_atom_site_label
_atom_site_type_symbol
_atom_type_description
_atom_site_fract_x
_atom_site_fract_y
_atom_site_fract_z
_atom_type_partial_charge
C1    C     C_R   0.327522 0.499845 0.500624 0.911399
C2    C     C_R   0.904355 0.569946 0.578958 0.021174
C3    C     C_R   0.814523 0.432617 0.437614 0.537884
C4    C     C_R   0.812009 0.569168 0.575050 0.527993
C5    C     C_R   0.767525 0.500711 0.504289 -0.352743
C6    C     C_R   0.951102 0.502349 0.510821 0.079532
C7    C     C_R   0.427898 0.104205 0.455560 -0.412186
C8    C     C_R   0.458288 0.895817 0.406737 -0.420492
C9    C     C_R   0.495310 0.499808 0.257749 0.934893
C10   C     C_R   0.429187 0.203296 0.453078 0.642932
C11   C     C_R   0.456994 0.796755 0.408504 0.680396
C12   C     C_3   0.585320 0.529544 0.926338 -0.385208
C13   C     C_R   0.571999 0.204989 0.546118 0.611448
C14   C     C_R   0.541406 0.794450 0.594759 0.592718
C15   C     C_R   0.575253 0.105975 0.544330 0.588152
C16   C     C_R   0.540368 0.893475 0.600037 0.577890
C17   C     C_R   0.501340 0.053201 0.501931 -0.078210
C18   C     C_R   0.500730 0.946543 0.502866 -0.091763
C19   C     C_R   0.672017 0.500176 0.500746 0.982020
C20   C     C_R   0.497288 0.499478 0.742075 0.936984
C21   C     C_3   0.418154 0.568164 0.070965 0.527641
C22   C     C_3   0.470917 0.393826 0.072667 0.487854
C23   C     C_R   0.091781 0.574401 0.447576 0.552488
C24   C     C_3   0.420616 0.570731 0.924758 0.485896
C25   C     C_3   0.474306 0.394584 0.927594 0.570751
C26   C     C_3   0.588091 0.529376 0.071051 0.124626
C27   C     C_3   0.492321 0.498082 0.120842 -0.229434
C28   C     C_3   0.492373 0.498045 0.878222 -0.271929
C29   C     C_R   0.092195 0.432444 0.575482 0.644294
C30   C     C_R   0.184094 0.573388 0.443080 -0.056609
C31   C     C_R   0.184125 0.429617 0.571713 -0.057744
C32   C     C_R   0.230942 0.500081 0.504042 -0.234659
C33   C     C_R   0.046826 0.503701 0.512471 -0.141906
C34   C     C_R   0.906852 0.433644 0.439933 0.014529
F1    F     F_    0.436980 0.658444 0.112786 -0.527801
F2    F     F_    0.574470 0.936091 0.702744 -0.528113
F3    F     F_    0.446799 0.661000 0.887902 -0.551983
F4    F     F_    0.545480 0.338183 0.891787 -0.534520
F5    F     F_    0.045740 0.643110 0.386645 -0.644771
F6    F     F_    0.046686 0.365426 0.640479 -0.605847
F7    F     F_    0.535885 0.331774 0.116081 -0.532445
F8    F     F_    0.771106 0.366924 0.368047 -0.611175
F9    F     F_    0.766015 0.633361 0.642709 -0.602815
F10   F     F_    0.359132 0.249756 0.402563 -0.652926
F11   F     F_    0.411248 0.750097 0.319123 -0.560815
F12   F     F_    0.642147 0.253191 0.593836 -0.532758
F13   F     F_    0.583186 0.745354 0.686400 -0.528825
F14   F     F_    0.652110 0.063039 0.579002 -0.527199
H1    H     H_    0.369289 0.067898 0.421270 0.229194
H2    H     H_    0.336677 0.558545 0.771549 0.188454
H3    H     H_    0.392495 0.281186 0.885706 0.239669
H4    H     H_    0.335703 0.382355 0.905841 0.157307
H5    H     H_    0.682266 0.633925 0.105831 0.183778
H6    H     H_    0.584264 0.677452 0.064454 0.308002
H7    H     H_    0.717551 0.477768 0.073078 0.199796
H8    H     H_    0.665484 0.468042 0.209770 0.220821
H9    H     H_    0.203931 0.648276 0.284668 0.234010
H10   H     H_    0.215816 0.710561 0.417240 0.243640
H11   H     H_    0.275695 0.387797 0.698876 0.191208
H12   H     H_    0.426011 0.932290 0.330143 0.239611
H13   H     H_    0.258254 0.310381 0.579910 0.272705
H14   H     H_    0.937754 0.373106 0.275513 0.231740
H15   H     H_    0.937655 0.298644 0.399328 0.275269
H16   H     H_    0.930315 0.630984 0.745180 0.232368
H17   H     H_    0.932634 0.705492 0.621483 0.266125
H18   H     H_    0.602747 0.600249 0.887868 0.260325
H19   H     H_    0.637352 0.482078 0.888170 0.234827
H20   H     H_    0.289220 0.603855 0.114947 0.240385
H21   H     H_    0.297400 0.492049 0.071128 0.161913
H22   H     H_    0.384026 0.283194 0.107128 0.253929
H23   H     H_    0.373623 0.369363 0.211026 0.256933
H24   H     H_    0.290035 0.607980 0.894179 0.229081
N1    N     N_R   0.499980 0.252470 0.500000 -0.233021
N2    N     N_3   0.227770 0.356756 0.641552 -0.356581
N3    N     N_3   0.956141 0.366149 0.369253 -0.394926
N4    N     N_3   0.951057 0.638343 0.652691 -0.397092
N5    N     N_R   0.499980 0.747530 0.500000 -0.252385
N6    N     N_3   0.329819 0.544370 0.122067 -0.474254
N7    N     N_3   0.384627 0.356554 0.116880 -0.521989
N8    N     N_3   0.332550 0.553251 0.868494 -0.534410
N9    N     N_3   0.393910 0.353945 0.869381 -0.468117
N10   N     N_3   0.613753 0.623877 0.117283 -0.382489
N11   N     N_3   0.656099 0.461369 0.113551 -0.283748
N12   N     N_3   0.229907 0.646013 0.375151 -0.331386
O1    O     O_R   0.369070 0.579480 0.500010 -0.590971
O2    O     O_R   0.369070 0.420520 0.500010 -0.609433
O3    O     O_R   0.499990 0.579480 0.314790 -0.522060
O4    O     O_R   0.499990 0.420520 0.314790 -0.583536
O5    O     O_R   0.630940 0.579480 0.499990 -0.573422
O6    O     O_R   0.630940 0.420520 0.499990 -0.512877
O7    O     O_R   0.500020 0.579480 0.685200 -0.534063
O8    O     O_R   0.500020 0.420520 0.685200 -0.570185
Zn1   Zn    Zn3+2 0.500010 0.606140 0.500000 1.112823
Zn2   Zn    Zn3+2 0.500010 0.393860 0.500000 1.104414

loop_
_geom_bond_atom_site_label_1
_geom_bond_atom_site_label_2
_ccdc_geom_bond_type
C7    C10   A    
C3    F8    S    
C26   N11   S    
H23   N7    S    
C25   C28   S    
C20   O8    A    
C26   C27   S    
H17   N4    S    
C12   C28   S    
C15   F14   S    
C22   N7    S    
C9    O4    A    
C13   F12   S    
C10   N1    A    
C22   F7    S    
C30   N12   S    
C29   C33   A    
C14   N5    A    
O2    Zn2   S    
O1    Zn1   S    
C24   N8    S    
C7    C17   A    
C22   C25   S    
C21   N6    S    
C11   N5    A    
H3    N9    S    
C34   N3    S    
C21   C27   S    
C26   N10   S    
C25   N9    S    
H21   N6    S    
C2    C6    A    
N1    Zn2   S    
C20   O7    A    
O6    Zn2   S    
H20   N6    S    
C12   H19   S    
O4    Zn2   S    
C10   F10   S    
C23   C30   A    
C7    H1    S    
C24   F3    S    
C31   N2    S    
C20   C28   S    
C3    C34   A    
C23   C33   A    
C12   H18   S    
C1    C32   S    
C8    C18   A    
C6    C34   A    
C12   C26   S    
H5    N10   S    
C2    C4    A    
C19   O5    A    
H10   N12   S    
C25   F4    S    
O7    Zn1   S    
C31   C32   A    
O8    Zn2   S    
C17   C18   S    
H16   N4    S    
H9    N12   S    
H11   N2    S    
C5    C19   S    
C16   C18   A    
C13   N1    A    
C22   C27   S    
C13   C15   A    
C14   C16   A    
H14   N3    S    
C11   F11   S    
C1    O1    A    
H7    N11   S    
H6    N10   S    
C2    N4    S    
C9    C27   S    
H8    N11   S    
C1    O2    A    
C15   C17   A    
H22   N7    S    
C24   C28   S    
C4    C5    A    
C3    C5    A    
H2    N8    S    
C14   F13   S    
C21   F1    S    
C4    F9    S    
H13   N2    S    
C6    C33   S    
H24   N8    S    
C19   O6    A    
C16   F2    S    
C30   C32   A    
C9    O3    A    
H15   N3    S    
C8    C11   A    
C23   F5    S    
O3    Zn1   S    
C29   F6    S    
N5    Zn1   S    
O5    Zn1   S    
H4    N9    S    
C29   C31   A    
C21   C24   S    
C8    H12   S    
