data_mof_unit_15304.cif
_audit_creation_date              2012-10-26T19:40:09-0400
_audit_creation_method            fapswitch 2.2
_symmetry_space_group_name_H-M    P1
_symmetry_Int_Tables_number       1
_space_group_crystal_system       triclinic
_cell_length_a                    14.982046
_cell_length_b                    8.657381
_cell_length_c                    7.533802
_cell_angle_alpha                 103.070631
_cell_angle_beta                  94.141389
_cell_angle_gamma                 93.693564
_cell_volume                      946.086836893

loop_
_atom_site_label
_atom_site_type_symbol
_atom_type_description
_atom_site_fract_x
_atom_site_fract_y
_atom_site_fract_z
_atom_type_partial_charge
Br1   Br    Br    0.058437 0.007940 0.222306 -0.433602
Br2   Br    Br    0.941563 0.992062 0.777664 -0.433598
Br3   Br    Br    0.384336 0.305726 0.906430 -0.379461
Br4   Br    Br    0.615665 0.694273 0.093571 -0.379471
C1    C     C_R   0.497636 0.200026 0.453189 0.520999
C2    C     C_R   0.178444 0.350154 0.421872 0.282768
C3    C     C_R   0.767107 0.510074 0.493448 0.017293
C4    C     C_R   0.232893 0.489923 0.506551 0.017294
C5    C     C_R   0.803895 0.372918 0.407081 -0.153439
C6    C     C_R   0.196104 0.627077 0.592922 -0.153437
C7    C     C_R   0.896277 0.368283 0.410625 -0.018931
C8    C     C_R   0.103723 0.631712 0.589375 -0.018933
C9    C     C_R   0.953126 0.504394 0.498188 -0.009176
C10   C     C_R   0.046874 0.495601 0.501810 -0.009174
C11   C     C_R   0.916260 0.648436 0.582184 0.048231
C12   C     C_R   0.502362 0.799974 0.546811 0.520994
C13   C     C_R   0.083741 0.351560 0.417809 0.048233
C14   C     C_R   0.931827 0.226963 0.330316 -0.056911
C15   C     C_R   0.068173 0.773033 0.669678 -0.056916
C16   C     C_3   0.749415 0.865828 0.540455 -0.057824
C17   C     C_3   0.250584 0.134161 0.459505 -0.057825
C18   C     C_R   0.024068 0.216087 0.333410 0.219906
C19   C     C_R   0.975932 0.783911 0.666579 0.219912
C20   C     C_2   0.495743 0.031560 0.427511 -0.157881
C21   C     C_2   0.504254 0.968439 0.572488 -0.157876
C22   C     C_R   0.329307 0.496415 0.501709 0.547888
C23   C     C_R   0.670693 0.503584 0.498291 0.547891
C24   C     C_R   0.821557 0.649844 0.578120 0.282771
Cu1   Cu    Cu3+1 0.510010 0.517380 0.684380 1.120453
Cu2   Cu    Cu3+1 0.489990 0.482620 0.315620 1.120453
H1    H     H_    0.759982 0.267464 0.342203 0.124226
H2    H     H_    0.314646 0.193258 0.532776 0.144687
H3    H     H_    0.264733 0.013709 0.384503 0.164277
H4    H     H_    0.200968 0.118514 0.558789 0.144142
H5    H     H_    0.240017 0.732531 0.657803 0.124228
H6    H     H_    0.887153 0.122669 0.265574 0.168198
H7    H     H_    0.112847 0.877328 0.734419 0.168198
H8    H     H_    0.486962 0.959252 0.288265 0.172807
H9    H     H_    0.513036 0.040747 0.711735 0.172810
H10   H     H_    0.735307 0.986312 0.615436 0.164288
H11   H     H_    0.685332 0.806764 0.467257 0.144698
H12   H     H_    0.799012 0.881402 0.441107 0.144127
N1    N     N_2   0.474890 0.456420 0.038520 0.021080
N2    N     N_2   0.525110 0.543580 0.961480 0.021080
O1    O     O_R   0.506510 0.286130 0.619770 -0.496231
O2    O     O_3   0.218004 0.218140 0.331248 -0.510361
O3    O     O_R   0.493490 0.713870 0.380230 -0.496233
O4    O     O_R   0.489600 0.256770 0.308360 -0.475854
O5    O     O_R   0.510400 0.743230 0.691640 -0.475854
O6    O     O_R   0.378710 0.514640 0.655720 -0.493098
O7    O     O_R   0.621290 0.485360 0.344280 -0.493095
O8    O     O_R   0.361800 0.485290 0.344300 -0.454193
O9    O     O_R   0.638200 0.514710 0.655700 -0.454197
O10   O     O_3   0.781997 0.781865 0.668728 -0.510365

loop_
_geom_bond_atom_site_label_1
_geom_bond_atom_site_label_2
_ccdc_geom_bond_type
C15   C19   A    
N1    N2    D    
C23   O9    A    
C7    C14   A    
C6    H5    S    
C12   C21   S    
C22   O8    A    
C15   H7    S    
C16   H12   S    
C13   C18   A    
C9    C11   A    
Cu2   O7    S    
C14   H6    S    
C22   O6    A    
C16   H11   S    
C24   O10   S    
Br1   C18   S    
Cu1   O5    S    
C9    C10   A    
C21   H9    S    
C7    C9    A    
C10   C13   A    
Br3   N1    S    
C11   C24   A    
Cu1   Cu2   S    
C1    C20   S    
Cu1   O9    S    
C6    C8    A    
C8    C15   A    
C11   C19   A    
C17   H2    S    
C23   O7    A    
Cu1   O6    S    
C5    C7    A    
Cu1   N2    S    
C2    O2    S    
C4    C22   S    
C16   H10   S    
C1    O4    A    
Cu2   N1    S    
C17   H3    S    
C5    H1    S    
C20   H8    S    
Cu2   O3    S    
C12   O5    A    
C3    C23   S    
C20   C21   D    
C12   O3    A    
C16   O10   S    
C17   O2    S    
Cu2   O4    S    
Br2   C19   S    
C3    C5    A    
C2    C13   A    
Cu2   O8    S    
C2    C4    A    
C17   H4    S    
Br4   N2    S    
C14   C18   A    
C1    O1    A    
C4    C6    A    
Cu1   O1    S    
C3    C24   A    
C8    C10   A    
