data_mof_unit_42434.cif
_audit_creation_date              2012-12-10T17:43:31-0500
_audit_creation_method            fapswitch 2.2
_symmetry_space_group_name_H-M    P1
_symmetry_Int_Tables_number       1
_space_group_crystal_system       triclinic
_cell_length_a                    14.998172
_cell_length_b                    10.614044
_cell_length_c                    9.958506
_cell_angle_alpha                 88.810276
_cell_angle_beta                  90.159878
_cell_angle_gamma                 92.737877
_cell_volume                      1583.1535573

loop_
_atom_site_label
_atom_site_type_symbol
_atom_type_description
_atom_site_fract_x
_atom_site_fract_y
_atom_site_fract_z
_atom_type_partial_charge
C1    C     C_R   0.503422 0.260995 0.500859 0.875807
C2    C     C_R   0.184648 0.499341 0.377557 -0.282118
C3    C     C_R   0.230679 0.496687 0.499833 -0.080167
C4    C     C_R   0.326789 0.499397 0.499895 0.909245
C5    C     C_R   0.184858 0.490848 0.622164 -0.246581
C6    C     C_R   0.650310 0.138282 0.633620 -0.203228
C7    C     C_R   0.718674 0.075648 0.697684 -0.127280
C8    C     C_R   0.719298 0.944631 0.695677 -0.140008
C9    C     C_R   0.651619 0.875789 0.629444 -0.184738
C10   C     C_R   0.581128 0.937785 0.565376 0.105974
C11   C     C_R   0.580408 0.069781 0.567682 0.091189
C12   C     C_R   0.907070 0.487683 0.623423 0.122505
C13   C     C_R   0.510227 0.128912 0.500753 -0.103573
C14   C     C_R   0.445750 0.061965 0.426611 -0.231657
C15   C     C_R   0.446434 0.933542 0.424360 -0.213042
C16   C     C_R   0.503884 0.739363 0.498776 0.859424
C17   C     C_R   0.511792 0.872197 0.495850 -0.107897
C18   C     C_R   0.366842 0.363420 0.147460 -0.160308
C19   C     C_R   0.287836 0.324075 0.086579 -0.304017
C20   C     C_R   0.281914 0.329301 0.948730 -0.309968
C21   C     C_R   0.359139 0.359213 0.872175 0.526967
C22   C     C_R   0.431888 0.432245 0.930850 0.054205
C23   C     C_R   0.953173 0.499897 0.254822 -0.222091
C24   C     C_R   0.433523 0.432846 0.075162 0.117272
C25   C     C_R   0.563821 0.564526 0.069908 -0.108976
C26   C     C_R   0.563910 0.564365 0.927198 -0.123224
C27   C     C_R   0.673178 0.499652 0.500125 0.854534
C28   C     C_R   0.814913 0.490028 0.622603 -0.281448
C29   C     C_R   0.769070 0.496389 0.500295 -0.066569
C30   C     C_R   0.814788 0.498782 0.377906 -0.251605
C31   C     C_R   0.906883 0.496393 0.376868 0.116565
C32   C     C_R   0.953322 0.491453 0.500089 0.061828
C33   C     C_3   0.351836 0.169721 0.757667 0.080135
C34   C     C_R   0.045807 0.499994 0.254721 -0.222267
C35   C     C_3   0.422824 0.105349 0.843669 -0.374354
C36   C     C_3   0.411229 0.961931 0.838142 -0.904679
C37   C     C_R   0.092369 0.496661 0.376671 0.120629
C38   C     C_R   0.046085 0.491588 0.499979 0.062955
C39   C     C_R   0.092599 0.488089 0.623193 0.110040
C40   C     C_R   0.046291 0.482899 0.745222 -0.226144
C41   C     C_R   0.953634 0.482680 0.745330 -0.224996
H1    H     H_    0.779143 0.487400 0.717210 0.159121
H2    H     H_    0.221465 0.291422 0.901922 0.154364
H3    H     H_    0.778975 0.503246 0.283281 0.160064
H4    H     H_    0.616162 0.617334 0.872872 0.137896
H5    H     H_    0.917820 0.503322 0.159826 0.140006
H6    H     H_    0.080999 0.503399 0.159673 0.146576
H7    H     H_    0.220383 0.504532 0.283007 0.177874
H8    H     H_    0.220722 0.489226 0.716731 0.169133
H9    H     H_    0.081702 0.479759 0.840199 0.143880
H10   H     H_    0.918486 0.479451 0.840393 0.139818
H11   H     H_    0.393199 0.109331 0.373611 0.145162
H12   H     H_    0.653569 0.240130 0.635099 0.153055
H13   H     H_    0.354801 0.133959 0.654198 0.162231
H14   H     H_    0.283610 0.140507 0.792658 0.122670
H15   H     H_    0.490517 0.135656 0.807544 0.245310
H16   H     H_    0.417447 0.133233 0.950128 0.215657
H17   H     H_    0.345952 0.929392 0.882143 0.257331
H18   H     H_    0.465380 0.918285 0.896422 0.270067
H19   H     H_    0.414287 0.930330 0.732869 0.272846
H20   H     H_    0.771788 0.129044 0.747875 0.138759
H21   H     H_    0.772915 0.896229 0.744281 0.134967
H22   H     H_    0.656087 0.774481 0.627106 0.143353
H23   H     H_    0.394200 0.881479 0.370367 0.158727
H24   H     H_    0.616076 0.617651 0.122120 0.139760
H25   H     H_    0.373848 0.337571 0.250632 0.212540
H26   H     H_    0.233385 0.281647 0.145681 0.177692
N1    N     N_R   0.499150 0.498800 0.142780 -0.108848
N2    N     N_R   0.499120 0.498720 0.857170 -0.106460
O1    O     O_R   0.500000 0.316780 0.614690 -0.570408
O2    O     O_R   0.499990 0.316750 0.385360 -0.637637
O3    O     O_R   0.367850 0.499980 0.614680 -0.572479
O4    O     O_R   0.367840 0.499960 0.385350 -0.652066
O5    O     O_R   0.500010 0.683250 0.614640 -0.622936
O6    O     O_R   0.500000 0.683220 0.385310 -0.608792
O7    O     O_R   0.632160 0.500040 0.614650 -0.647222
O8    O     O_R   0.632150 0.500020 0.385320 -0.623893
O9    O     O_3   0.366627 0.303378 0.749200 -0.604151
Zn1   Zn    Zn3+2 0.500010 0.500020 0.653130 0.967549
Zn2   Zn    Zn3+2 0.499990 0.499980 0.346870 0.940140

loop_
_geom_bond_atom_site_label_1
_geom_bond_atom_site_label_2
_ccdc_geom_bond_type
C33   H14   S    
N1    Zn2   S    
C27   C29   S    
C34   C37   A    
C19   C20   A    
O7    Zn1   S    
C36   H18   S    
C30   H3    S    
C7    C8    A    
C1    O2    A    
C12   C28   A    
C16   O5    A    
C28   C29   A    
O3    Zn1   S    
C36   H17   S    
C38   C39   A    
C33   O9    S    
C10   C17   A    
C16   O6    A    
C18   C19   A    
C27   O8    A    
C7    H20   S    
C26   H4    S    
C14   H11   S    
C35   C36   S    
C8    C9    A    
C21   O9    S    
C15   H23   S    
C19   H26   S    
C18   C24   A    
C32   C38   A    
C29   C30   A    
O6    Zn2   S    
C22   N2    A    
C35   H15   S    
C23   H5    S    
C13   C14   A    
C12   C32   A    
C5    H8    S    
C25   N1    A    
O2    Zn2   S    
C25   H24   S    
C6    C11   A    
C16   C17   S    
C2    H7    S    
C25   C26   A    
C23   C31   A    
C37   C38   A    
C31   C32   A    
C23   C34   A    
C4    O4    A    
C40   C41   A    
O5    Zn1   S    
C5    C39   A    
C22   C24   A    
N2    Zn1   S    
C1    C13   S    
C6    H12   S    
C27   O7    A    
C4    O3    A    
C20   H2    S    
C12   C41   A    
C9    C10   A    
O8    Zn2   S    
C33   H13   S    
C15   C17   A    
O1    Zn1   S    
C9    H22   S    
C3    C5    A    
C6    C7    A    
C18   H25   S    
C1    O1    A    
C35   H16   S    
C2    C3    A    
C11   C13   A    
C2    C37   A    
C30   C31   A    
C40   H9    S    
C28   H1    S    
C33   C35   S    
O4    Zn2   S    
C10   C11   A    
C24   N1    A    
C39   C40   A    
C20   C21   A    
C26   N2    A    
C36   H19   S    
C14   C15   A    
C34   H6    S    
C21   C22   A    
C41   H10   S    
C3    C4    S    
C8    H21   S    
