data_mof_unit_66581.cif
_audit_creation_date              2012-12-11T16:32:31-0500
_audit_creation_method            fapswitch 2.2
_symmetry_space_group_name_H-M    P1
_symmetry_Int_Tables_number       1
_space_group_crystal_system       triclinic
_cell_length_a                    6.955349
_cell_length_b                    14.341724
_cell_length_c                    16.012955
_cell_angle_alpha                 90.267821
_cell_angle_beta                  89.844462
_cell_angle_gamma                 89.945237
_cell_volume                      1597.2953291

loop_
_atom_site_label
_atom_site_type_symbol
_atom_type_description
_atom_site_fract_x
_atom_site_fract_y
_atom_site_fract_z
_atom_type_partial_charge
O1    O     O_R   0.361630 0.167340 0.164570 -0.527383
O2    O     O_R   0.638370 0.832660 0.835430 -0.527383
O3    O     O_R   0.690860 0.157560 0.338690 -0.549212
O4    O     O_R   0.309140 0.842440 0.661310 -0.549213
O5    O     O_R   0.861260 0.336420 0.339380 -0.545348
O6    O     O_R   0.138740 0.663580 0.660620 -0.545348
C1    C     C_R   0.521940 0.134748 0.367252 0.773448
C2    C     C_R   0.478060 0.865252 0.632748 0.773448
O7    O     O_R   0.691330 0.156310 0.165190 -0.531651
O8    O     O_R   0.308670 0.843690 0.834810 -0.531651
O9    O     O_R   0.861730 0.335160 0.164640 -0.534895
O10   O     O_R   0.138270 0.664840 0.835360 -0.534895
C3    C     C_R   0.522772 0.133518 0.136982 0.683045
C4    C     C_R   0.477227 0.866482 0.863018 0.683044
O11   O     O_R   0.361150 0.168600 0.339320 -0.525224
O12   O     O_R   0.638850 0.831400 0.660680 -0.525224
O13   O     O_3   0.527950 0.310560 0.252000 -0.367700
O14   O     O_3   0.472050 0.689440 0.748000 -0.367700
V1    V     V_3+5 0.802770 0.240990 0.251980 1.501208
V2    V     V_3+5 0.197230 0.759010 0.748020 1.501207
O15   O     O_R   0.191450 0.346190 0.165260 -0.543497
O16   O     O_R   0.808550 0.653810 0.834740 -0.543497
C5    C     C_R   0.023283 0.366354 0.135277 0.688053
C6    C     C_R   0.976717 0.633646 0.864723 0.688054
O17   O     O_R   0.190980 0.347440 0.338770 -0.517378
O18   O     O_R   0.809020 0.652560 0.661230 -0.517378
C7    C     C_R   0.021955 0.368776 0.367971 0.738811
C8    C     C_R   0.978045 0.631224 0.632029 0.738811
V3    V     V_3+5 0.302780 0.262760 0.251980 1.536434
V4    V     V_3+5 0.697220 0.737240 0.748020 1.536434
O19   O     O_3   0.027730 0.193200 0.251960 -0.362423
O20   O     O_3   0.972270 0.806800 0.748040 -0.362423
C9    C     C_3   0.868659 0.431753 0.512788 -0.170568
C10   C     C_3   0.131341 0.568247 0.487212 -0.170567
C11   C     C_3   0.035835 0.457044 0.573425 -0.247393
C12   C     C_3   0.964165 0.542956 0.426575 -0.247392
H1    H     H_    0.072607 0.422845 0.633230 0.182623
H2    H     H_    0.927393 0.577155 0.366770 0.182624
H3    H     H_    0.759513 0.376437 0.522559 0.179833
H4    H     H_    0.240487 0.623563 0.477441 0.179833
C13   C     C_3   0.990120 0.561822 0.562032 -0.109092
C14   C     C_3   0.009880 0.438178 0.437968 -0.109092
C15   C     C_3   0.827252 0.536560 0.502070 0.417643
C16   C     C_3   0.172748 0.463440 0.497930 0.417643
C17   C     C_R   0.031084 0.695349 0.042946 -0.145412
C18   C     C_R   0.968916 0.304651 0.957054 -0.145411
C19   C     C_R   0.069507 0.721323 0.126615 -0.125766
C20   C     C_R   0.930494 0.278676 0.873385 -0.125766
C21   C     C_R   0.099641 0.652441 0.187253 0.344981
C22   C     C_R   0.900360 0.347559 0.812746 0.344981
C23   C     C_R   0.079080 0.559289 0.165397 -0.113049
C24   C     C_R   0.920920 0.440711 0.834603 -0.113049
C25   C     C_R   0.038005 0.529931 0.082818 0.020235
C26   C     C_R   0.961995 0.470069 0.917181 0.020235
C27   C     C_R   0.019005 0.598297 0.019006 0.024180
C28   C     C_R   0.980995 0.401703 0.980994 0.024180
C29   C     C_R   0.015443 0.433101 0.064754 -0.129647
C30   C     C_R   0.984557 0.566899 0.935246 -0.129647
H5    H     H_    0.097937 0.509840 0.215473 0.117487
H6    H     H_    0.902063 0.490160 0.784527 0.117488
C31   C     C_3   0.324146 0.022750 0.474529 0.271561
C32   C     C_3   0.675854 0.977250 0.525471 0.271561
C33   C     C_3   0.410441 0.923501 0.473167 0.270002
C34   C     C_3   0.589559 0.076499 0.526833 0.270002
C35   C     C_3   0.488498 0.936380 0.563184 -0.387235
C36   C     C_3   0.511502 0.063620 0.436816 -0.387235
C37   C     C_3   0.402182 0.036415 0.563820 0.314338
C38   C     C_3   0.597818 0.963585 0.436180 0.314337
H7    H     H_    0.590498 0.814873 0.243493 0.185929
H8    H     H_    0.409502 0.185127 0.756507 0.185929
C39   C     C_R   0.471865 0.193416 0.966675 -0.176220
C40   C     C_R   0.528135 0.806584 0.033325 -0.176220
C41   C     C_R   0.443477 0.224866 0.885267 -0.036144
C42   C     C_R   0.556523 0.775134 0.114733 -0.036145
C43   C     C_R   0.429832 0.160962 0.819834 -0.123049
C44   C     C_R   0.570168 0.839038 0.180166 -0.123050
C45   C     C_R   0.443557 0.065568 0.835332 -0.086383
C46   C     C_R   0.556443 0.934432 0.164668 -0.086383
C47   C     C_R   0.470964 0.031763 0.917255 0.066792
C48   C     C_R   0.529036 0.968237 0.082745 0.066792
C49   C     C_R   0.485001 0.096962 0.984274 0.074769
C50   C     C_R   0.514999 0.903038 0.015725 0.074769
C51   C     C_R   0.486590 0.934802 0.932943 -0.133299
C52   C     C_R   0.513410 0.065198 0.067057 -0.133299
H9    H     H_    0.483647 0.245196 0.015854 0.107887
H10   H     H_    0.516353 0.754804 0.984146 0.107887
H11   H     H_    0.433472 0.018687 0.782421 0.114997
H12   H     H_    0.566528 0.981313 0.217579 0.114997
O21   O     O_3   0.299395 0.078190 0.629059 -0.620613
H13   H     H_    0.195861 0.033600 0.643264 0.303449
O22   O     O_3   0.700604 0.921810 0.370940 -0.620613
H14   H     H_    0.804139 0.966399 0.356736 0.303450
C53   C     C_1   0.430046 0.323329 0.868840 0.308475
N1    N     N_1   0.419454 0.402443 0.855689 -0.344993
C54   C     C_1   0.569954 0.676671 0.131160 0.308474
N2    N     N_1   0.580546 0.597557 0.144311 -0.344993
O23   O     O_3   0.644893 0.577450 0.505304 -0.631873
H15   H     H_    0.586914 0.565378 0.449834 0.309450
O24   O     O_3   0.355106 0.422550 0.494696 -0.631873
H16   H     H_    0.413086 0.434622 0.550166 0.309450
O25   O     O_3   0.851781 0.327904 0.730792 -0.647155
H17   H     H_    0.821084 0.261025 0.723928 0.317929
O26   O     O_3   0.148220 0.672096 0.269208 -0.647154
H18   H     H_    0.178922 0.738975 0.276071 0.317929
C55   C     C_1   0.997972 0.771617 0.985573 0.288784
N3    N     N_1   0.972027 0.834086 0.941549 -0.292162
C56   C     C_1   0.002028 0.228383 0.014427 0.288785
N4    N     N_1   0.027973 0.165914 0.058451 -0.292162
C57   C     C_1   0.071704 0.819205 0.150734 0.313923
N5    N     N_1   0.072875 0.897142 0.169842 -0.334690
C58   C     C_1   0.928296 0.180795 0.849266 0.313922
N6    N     N_1   0.927125 0.102858 0.830158 -0.334690
O27   O     O_3   0.317615 0.844226 0.442132 -0.616080
H19   H     H_    0.200733 0.837071 0.477060 0.319470
O28   O     O_3   0.682385 0.155774 0.557868 -0.616080
H20   H     H_    0.799268 0.162929 0.522941 0.319470
O29   O     O_3   0.137577 0.045835 0.449959 -0.604348
H21   H     H_    0.127125 0.024000 0.391351 0.304145
O30   O     O_3   0.862423 0.954165 0.550041 -0.604349
H22   H     H_    0.872875 0.976000 0.608649 0.304145

loop_
_geom_bond_atom_site_label_1
_geom_bond_atom_site_label_2
_ccdc_geom_bond_type
C36   C38   S    
C33   C35   S    
C53   N1    T    
O13   V3    S    
C12   C14   S    
C54   N2    T    
C41   C53   S    
O4    C2    A    
V1    O19   S    
O23   H15   S    
C19   C21   A    
C3    C52   S    
O9    V1    S    
C9    H3    S    
C42   C44   A    
C10   H4    S    
C9    C14   S    
C11   H1    S    
C44   C46   A    
C20   C22   A    
O3    C1    A    
V2    O20   S    
C16   O24   S    
C46   C48   A    
O12   V4    S    
O28   H20   S    
C8    C13   S    
C37   O21   S    
C38   O22   S    
C28   C29   A    
H7    C44   S    
C31   C33   S    
O7    C3    A    
C32   C34   S    
C24   H6    S    
C9    C11   S    
C39   H9    S    
C31   C36   S    
O7    V1    S    
O6    C8    A    
C58   N6    T    
O8    V2    S    
C35   C37   S    
C22   C24   A    
C56   N4    T    
O3    V1    S    
O14   V4    S    
V4    O20   S    
C10   C12   S    
C48   C52   A    
C24   C26   A    
C25   C27   A    
C2    C35   S    
C2    O12   A    
C34   O28   S    
O5    C7    A    
C13   C15   S    
C10   C13   S    
C14   C16   S    
C4    C51   S    
C11   C13   S    
O25   H17   S    
C17   C55   S    
O11   V3    S    
C18   C20   A    
C17   C19   A    
O17   V3    S    
C26   C28   A    
C31   O29   S    
C9    C15   S    
C34   C37   S    
C10   C16   S    
C40   C42   A    
O8    C4    A    
O22   H14   S    
C39   C41   A    
C25   C29   A    
C1    O11   A    
C21   C23   A    
C19   C57   S    
O15   V3    S    
C23   C25   A    
C33   O27   S    
C31   C37   S    
O24   H16   S    
C18   C56   S    
O10   V2    S    
O1    V3    S    
C45   C47   A    
C11   C16   S    
C43   C45   A    
C45   H11   S    
C32   O30   S    
C48   C50   A    
O18   V4    S    
O15   C5    A    
O16   C6    A    
O1    C3    A    
C41   C43   A    
H8    C43   S    
C49   C52   A    
C47   C49   A    
O27   H19   S    
C26   C30   A    
C46   H12   S    
C5    C29   S    
C33   C38   S    
O16   V4    S    
C32   C35   S    
C42   C54   S    
C15   O23   S    
C21   O26   S    
C40   H10   S    
O30   H22   S    
O5    V1    S    
O17   C7    A    
O6    V2    S    
C55   N3    T    
O10   C6    A    
O18   C8    A    
C32   C38   S    
O2    V4    S    
C12   H2    S    
V3    O19   S    
C57   N5    T    
C1    C36   S    
C47   C51   A    
C7    C14   S    
O9    C5    A    
O13   V1    S    
O14   V2    S    
O2    C4    A    
O4    V2    S    
C20   C58   S    
C23   H5    S    
C17   C27   A    
C22   O25   S    
C6    C30   S    
C50   C51   A    
C27   C30   A    
C18   C28   A    
O26   H18   S    
C12   C15   S    
O21   H13   S    
O29   H21   S    
C40   C50   A    
C34   C36   S    
C39   C49   A    
