data_mof_unit_53485.cif
_audit_creation_date              2012-12-10T21:26:09-0500
_audit_creation_method            fapswitch 2.2
_symmetry_space_group_name_H-M    P1
_symmetry_Int_Tables_number       1
_space_group_crystal_system       triclinic
_cell_length_a                    8.588998
_cell_length_b                    16.258041
_cell_length_c                    16.818182
_cell_angle_alpha                 86.585352
_cell_angle_beta                  93.454189
_cell_angle_gamma                 100.938779
_cell_volume                      2298.85865709

loop_
_atom_site_label
_atom_site_type_symbol
_atom_type_description
_atom_site_fract_x
_atom_site_fract_y
_atom_site_fract_z
_atom_type_partial_charge
C1    C     C_R   0.493710 0.487883 0.653408 0.886422
C2    C     C_R   0.353247 0.144073 0.445122 -0.337665
C3    C     C_R   0.642252 0.767916 0.551466 0.238516
C4    C     C_R   0.352531 0.229929 0.452525 0.247722
C5    C     C_R   0.800528 0.521675 0.501584 0.937057
C6    C     C_R   0.199351 0.478374 0.497199 0.962565
C7    C     C_2   0.966512 0.532834 0.503621 -0.388924
C8    C     C_2   0.033032 0.467111 0.493266 -0.407274
C9    C     C_R   0.474359 0.477901 0.740526 -0.164638
C10   C     C_R   0.560516 0.524070 0.263275 -0.154507
C11   C     C_R   0.395298 0.532679 0.779751 0.107571
C12   C     C_R   0.519116 0.512948 0.347949 0.880202
C13   C     C_R   0.594890 0.456125 0.222133 0.105617
C14   C     C_R   0.389756 0.525268 0.862419 -0.249743
C15   C     C_R   0.587790 0.461879 0.139566 -0.255794
C16   C     C_R   0.453541 0.463431 0.906720 0.195716
C17   C     C_R   0.556406 0.534213 0.097304 0.220604
C18   C     C_R   0.517352 0.403823 0.869145 0.135930
C19   C     C_R   0.561205 0.608016 0.137355 0.104787
C20   C     C_R   0.534843 0.413301 0.786488 0.139563
C21   C     C_R   0.568706 0.603534 0.221707 0.129864
C22   C     C_3   0.651733 0.379684 0.262054 -0.359121
C23   C     C_R   0.403897 0.755885 0.470130 0.317863
C24   C     C_3   0.812611 0.404657 0.306480 -0.823376
C25   C     C_3   0.308934 0.597537 0.737428 -0.368954
C26   C     C_3   0.154294 0.555121 0.696280 -0.838481
C27   C     C_3   0.575169 0.332116 0.917299 -0.375000
C28   C     C_3   0.463126 0.248836 0.903347 -0.862499
C29   C     C_3   0.555516 0.689818 0.089695 -0.410413
C30   C     C_3   0.385752 0.705735 0.079498 -0.880595
C31   C     C_3   0.791884 0.399565 0.743814 -0.836391
C32   C     C_3   0.755465 0.705557 0.295084 -0.746092
C33   C     C_3   0.874429 0.262287 0.592468 -0.893660
C34   C     C_R   0.605777 0.245561 0.522500 0.291062
C35   C     C_3   0.243388 0.708479 0.352249 -0.788763
C36   C     C_3   0.767954 0.732963 0.601847 -0.353440
C37   C     C_3   0.927688 0.754612 0.562922 -0.900656
C38   C     C_3   0.196866 0.256113 0.423580 -0.340833
C39   C     C_3   0.203183 0.306956 0.343977 -0.797879
C40   C     C_R   0.413721 0.843964 0.469406 -0.339628
C41   C     C_R   0.602161 0.157920 0.517594 -0.285018
C42   C     C_R   0.541932 0.894977 0.509060 0.262141
C43   C     C_R   0.474427 0.106581 0.478688 0.248715
C44   C     C_R   0.654040 0.855543 0.550476 -0.310934
H1    H     H_    0.033667 0.594576 0.515651 0.184279
H2    H     H_    0.843929 0.349267 0.341078 0.244311
H3    H     H_    0.905782 0.428223 0.263346 0.244166
H4    H     H_    0.564144 0.342458 0.301752 0.231307
H5    H     H_    0.667210 0.334758 0.217127 0.182026
H6    H     H_    0.097420 0.602720 0.661966 0.237642
H7    H     H_    0.175328 0.507771 0.655557 0.259618
H8    H     H_    0.072449 0.523503 0.741890 0.251682
H9    H     H_    0.277156 0.640024 0.780727 0.185448
H10   H     H_    0.384075 0.640590 0.695756 0.227360
H11   H     H_    0.341883 0.251999 0.920974 0.257462
H12   H     H_    0.965845 0.405110 0.481284 0.210058
H13   H     H_    0.457675 0.233429 0.839703 0.264981
H14   H     H_    0.506336 0.197852 0.939991 0.244738
H15   H     H_    0.696860 0.327892 0.901295 0.223662
H16   H     H_    0.583704 0.341500 0.982234 0.200404
H17   H     H_    0.309693 0.654925 0.045916 0.266690
H18   H     H_    0.335346 0.708475 0.138333 0.252631
H19   H     H_    0.384900 0.766362 0.045561 0.248752
H20   H     H_    0.634423 0.743338 0.118092 0.201434
H21   H     H_    0.602031 0.688720 0.029621 0.217131
H22   H     H_    0.571741 0.323317 0.709082 0.242376
H23   H     H_    0.606614 0.409272 0.107224 0.150808
H24   H     H_    0.860530 0.350268 0.733666 0.254265
H25   H     H_    0.843194 0.430774 0.799009 0.242620
H26   H     H_    0.803279 0.446396 0.692656 0.239481
H27   H     H_    0.542859 0.726729 0.239797 0.228184
H28   H     H_    0.761185 0.759651 0.333182 0.236907
H29   H     H_    0.834652 0.725160 0.244784 0.217717
H30   H     H_    0.798041 0.654454 0.331954 0.244828
H31   H     H_    0.705887 0.338378 0.598536 0.276493
H32   H     H_    0.970060 0.313837 0.612766 0.252358
H33   H     H_    0.921365 0.231133 0.544695 0.243837
H34   H     H_    0.335108 0.567998 0.893667 0.160975
H35   H     H_    0.842589 0.217298 0.643855 0.248378
H36   H     H_    0.164392 0.719339 0.462716 0.201156
H37   H     H_    0.245939 0.773681 0.327698 0.218028
H38   H     H_    0.127453 0.669376 0.334212 0.228854
H39   H     H_    0.337099 0.681945 0.326944 0.276987
H40   H     H_    0.914791 0.734362 0.500629 0.270600
H41   H     H_    0.973661 0.823244 0.562156 0.253401
H42   H     H_    0.015503 0.722740 0.597123 0.237280
H43   H     H_    0.780662 0.760415 0.661423 0.171399
H44   H     H_    0.736153 0.665124 0.614258 0.252209
H45   H     H_    0.697151 0.129129 0.544532 0.175584
H46   H     H_    0.223544 0.374953 0.352879 0.275054
H47   H     H_    0.294435 0.291502 0.306452 0.240912
H48   H     H_    0.086836 0.291703 0.310385 0.218493
H49   H     H_    0.104170 0.199302 0.413523 0.161000
H50   H     H_    0.143914 0.283872 0.470728 0.214300
H51   H     H_    0.319285 0.871412 0.439426 0.167388
H52   H     H_    0.751073 0.893597 0.583529 0.159396
H53   H     H_    0.254159 0.104159 0.415210 0.155614
H54   H     H_    0.810138 0.454551 0.348108 0.263248
N1    N     N_2   0.464992 0.464464 0.990153 -0.188362
N2    N     N_2   0.263080 0.706054 0.438171 -0.258609
N3    N     N_2   0.530341 0.534487 0.013674 -0.182377
N4    N     N_R   0.519180 0.718290 0.509780 -0.121399
N5    N     N_R   0.480820 0.281710 0.490220 -0.133297
N6    N     N_2   0.560738 0.984477 0.512710 -0.175896
N7    N     N_2   0.458304 0.017337 0.473396 -0.170141
N8    N     N_2   0.627073 0.361663 0.752862 -0.298063
N9    N     N_2   0.593592 0.678215 0.264929 -0.291783
N10   N     N_2   0.737324 0.296590 0.562273 -0.276767
O1    O     O_R   0.493140 0.422050 0.612640 -0.639625
O2    O     O_R   0.506860 0.577950 0.387360 -0.574028
O3    O     O_R   0.505450 0.562230 0.618920 -0.644197
O4    O     O_R   0.494550 0.437770 0.381080 -0.616544
O5    O     O_R   0.723530 0.446300 0.497600 -0.610639
O6    O     O_R   0.276470 0.553700 0.502400 -0.576807
O7    O     O_R   0.735850 0.586490 0.503880 -0.631824
O8    O     O_R   0.264150 0.413510 0.496120 -0.635296
Zn1   Zn    Zn3+2 0.491780 0.406400 0.495810 0.922647
Zn2   Zn    Zn3+2 0.508220 0.593600 0.504190 0.945453

loop_
_geom_bond_atom_site_label_1
_geom_bond_atom_site_label_2
_ccdc_geom_bond_type
C41   H45   S    
H27   N9    S    
C22   H4    S    
O2    Zn2   S    
C12   O2    A    
C35   H37   S    
O1    Zn1   S    
C7    C8    D    
C32   H28   S    
C28   H13   S    
C36   H44   S    
C33   N10   S    
O3    Zn2   S    
C24   H54   S    
C7    H1    S    
C37   H41   S    
C36   C37   S    
C19   C21   A    
C25   H9    S    
C27   H16   S    
C26   H6    S    
C32   H30   S    
C38   C39   S    
C11   C14   A    
C23   N4    A    
C11   C25   S    
C23   C40   A    
C4    N5    A    
O8    Zn1   S    
C43   N7    S    
C17   N3    S    
C6    O6    A    
C33   H32   S    
C1    O1    A    
C35   H38   S    
C31   H26   S    
C2    H53   S    
C32   N9    S    
C37   H40   S    
C29   H21   S    
C39   H46   S    
C18   C20   A    
N4    Zn2   S    
C40   C42   A    
C23   N2    S    
C29   H20   S    
H31   N10   S    
C10   C21   A    
C30   H19   S    
C5    O7    A    
C41   C43   A    
C8    H12   S    
N5    Zn1   S    
C34   C41   A    
C42   C44   A    
H22   N8    S    
C39   H47   S    
N6    N7    D    
C28   H11   S    
C20   N8    S    
C36   H43   S    
C31   H24   S    
C3    C44   A    
C37   H42   S    
C1    C9    S    
C25   H10   S    
C32   H29   S    
C5    C7    S    
C35   H39   S    
C33   H35   S    
C6    C8    S    
C25   C26   S    
C2    C4    A    
C29   C30   S    
C44   H52   S    
C26   H8    S    
C9    C20   A    
C2    C43   A    
O7    Zn2   S    
C15   H23   S    
C38   H50   S    
C21   N9    S    
C9    C11   A    
C6    O8    A    
O6    Zn2   S    
C10   C12   S    
C22   H5    S    
O5    Zn1   S    
C3    N4    A    
N1    N3    D    
C4    C38   S    
C30   H18   S    
C31   N8    S    
C22   C24   S    
C40   H51   S    
C35   N2    S    
C19   C29   S    
C39   H48   S    
C12   O4    A    
C15   C17   A    
C5    O5    A    
C24   H3    S    
C18   C27   S    
C10   C13   A    
C42   N6    S    
C16   N1    S    
C28   H14   S    
C34   N5    A    
C34   N10   S    
C13   C15   A    
C24   H2    S    
C27   H15   S    
C26   H7    S    
C1    O3    A    
C33   H33   S    
O4    Zn1   S    
C3    C36   S    
C38   H49   S    
C17   C19   A    
C13   C22   S    
C14   C16   A    
C14   H34   S    
C31   H25   S    
C16   C18   A    
C30   H17   S    
C27   C28   S    
H36   N2    S    
