data_mof_unit_26108.cif
_audit_creation_date              2012-12-10T20:41:50-0500
_audit_creation_method            fapswitch 2.2
_symmetry_space_group_name_H-M    P1
_symmetry_Int_Tables_number       1
_space_group_crystal_system       triclinic
_cell_length_a                    15.299294
_cell_length_b                    15.263228
_cell_length_c                    9.966391
_cell_angle_alpha                 92.184023
_cell_angle_beta                  87.673481
_cell_angle_gamma                 90.513364
_cell_volume                      2323.64623472

loop_
_atom_site_label
_atom_site_type_symbol
_atom_type_description
_atom_site_fract_x
_atom_site_fract_y
_atom_site_fract_z
_atom_type_partial_charge
C1    C     C_R   0.380386 0.880221 0.499803 0.905374
C2    C     C_R   0.380927 0.121074 0.502455 0.896251
C3    C     C_R   0.880382 0.380225 0.499805 0.905414
C4    C     C_R   0.880922 0.621070 0.502458 0.896241
C5    C     C_3   0.277367 0.240610 0.748664 -0.232259
C6    C     C_3   0.280695 0.785054 0.751739 -0.254078
C7    C     C_3   0.777326 0.740602 0.748678 -0.232101
C8    C     C_3   0.780670 0.285084 0.751760 -0.254122
C9    C     C_R   0.427080 0.974618 0.074610 0.071593
C10   C     C_R   0.927070 0.474649 0.074612 0.071610
C11   C     C_R   0.575250 0.010225 0.068500 -0.269307
C12   C     C_R   0.075252 0.510213 0.068500 -0.269665
C13   C     C_R   0.576694 0.008217 0.922774 0.580515
C14   C     C_R   0.076695 0.508208 0.922774 0.580592
C15   C     C_R   0.425668 0.981747 0.933349 0.049675
C16   C     C_R   0.925663 0.481768 0.933350 0.049710
C17   C     C_3   0.348253 0.040097 0.948990 0.969348
C18   C     C_3   0.848261 0.540131 0.948958 0.969338
C19   C     C_3   0.339936 0.014756 0.097305 -0.657021
C20   C     C_3   0.839941 0.514830 0.097290 -0.657030
C21   C     C_R   0.618205 0.121699 0.499316 0.909049
C22   C     C_R   0.618858 0.879321 0.496377 0.911965
C23   C     C_R   0.118199 0.621705 0.499316 0.909037
C24   C     C_R   0.118869 0.379333 0.496377 0.912088
C25   C     C_R   0.256779 0.202220 0.612694 0.086224
C26   C     C_R   0.257688 0.806658 0.612274 0.102682
C27   C     C_R   0.756757 0.702201 0.612705 0.086258
C28   C     C_R   0.757674 0.306668 0.612278 0.102664
C29   C     C_R   0.313734 0.186810 0.502166 -0.158540
C30   C     C_R   0.309428 0.819816 0.497268 -0.167024
C31   C     C_R   0.813714 0.686790 0.502174 -0.158544
C32   C     C_R   0.809424 0.319820 0.497276 -0.167018
C33   C     C_R   0.300806 0.230144 0.382919 -0.325939
C34   C     C_R   0.286744 0.779772 0.375070 -0.315859
C35   C     C_R   0.800752 0.730088 0.382907 -0.325886
C36   C     C_R   0.786761 0.279758 0.375082 -0.315863
C37   C     C_R   0.732805 0.789118 0.374379 0.527520
C38   C     C_R   0.720201 0.217782 0.372312 0.528467
C39   C     C_R   0.232873 0.289195 0.374399 0.527583
C40   C     C_R   0.220177 0.717803 0.372303 0.528470
C41   C     C_R   0.679104 0.807708 0.489326 -0.223621
C42   C     C_R   0.676620 0.195658 0.494765 -0.232202
C43   C     C_R   0.179141 0.307745 0.489330 -0.223592
C44   C     C_R   0.176604 0.695674 0.494762 -0.232218
C45   C     C_R   0.688903 0.760934 0.604751 0.006194
C46   C     C_R   0.688820 0.248614 0.609942 0.002396
C47   C     C_R   0.188931 0.260962 0.604751 0.006183
C48   C     C_R   0.188813 0.748628 0.609941 0.002418
C49   C     C_3   0.700724 0.800498 0.741282 -0.267477
C50   C     C_3   0.700402 0.225529 0.752401 -0.241551
C51   C     C_3   0.200783 0.300529 0.741279 -0.267394
C52   C     C_3   0.200388 0.725552 0.752409 -0.241545
H1    H     H_    0.346186 0.221609 0.297883 0.176867
H2    H     H_    0.323864 0.791803 0.282539 0.191986
H3    H     H_    0.846110 0.721533 0.297847 0.176838
H4    H     H_    0.823891 0.291780 0.282557 0.191994
H5    H     H_    0.336139 0.067749 0.175413 0.218571
H6    H     H_    0.290121 0.962744 0.116643 0.182103
H7    H     H_    0.836164 0.567851 0.175355 0.218518
H8    H     H_    0.790105 0.462844 0.116669 0.182126
H9    H     H_    0.718178 0.871120 0.741932 0.213391
H10   H     H_    0.713560 0.155340 0.764392 0.218724
H11   H     H_    0.218255 0.371146 0.741901 0.213356
H12   H     H_    0.213496 0.655357 0.764434 0.218740
H13   H     H_    0.266768 0.194430 0.828797 0.225140
H14   H     H_    0.277930 0.841925 0.824572 0.200181
H15   H     H_    0.766735 0.694433 0.828828 0.225118
H16   H     H_    0.777850 0.341955 0.824588 0.200179
H17   H     H_    0.633965 0.020440 0.123593 0.214081
H18   H     H_    0.133967 0.520418 0.123594 0.214124
N1    N     N_R   0.499140 0.000000 0.142800 -0.115131
N2    N     N_R   0.999140 0.500000 0.142800 -0.115167
N3    N     N_R   0.499160 0.000000 0.857150 -0.134100
N4    N     N_R   0.999160 0.500000 0.857150 -0.134105
O1    O     O_R   0.408400 0.908380 0.614690 -0.606209
O2    O     O_R   0.408400 0.091620 0.614690 -0.559037
O3    O     O_R   0.908400 0.408380 0.614690 -0.606201
O4    O     O_R   0.908400 0.591620 0.614690 -0.559009
O5    O     O_R   0.408370 0.908370 0.385350 -0.627824
O6    O     O_R   0.408370 0.091630 0.385350 -0.650943
O7    O     O_R   0.908370 0.408370 0.385350 -0.627801
O8    O     O_R   0.908370 0.591630 0.385350 -0.650921
O9    O     O_R   0.591610 0.091610 0.614650 -0.582088
O10   O     O_R   0.591610 0.908390 0.614650 -0.599724
O11   O     O_R   0.091610 0.591610 0.614650 -0.582115
O12   O     O_R   0.091610 0.408390 0.614650 -0.599706
O13   O     O_R   0.591590 0.091600 0.385310 -0.575866
O14   O     O_R   0.591590 0.908400 0.385310 -0.587844
O15   O     O_R   0.091590 0.591600 0.385310 -0.575848
O16   O     O_R   0.091590 0.408400 0.385310 -0.587906
Zn1   Zn    Zn3+2 0.500010 0.000000 0.653130 1.055018
Zn2   Zn    Zn3+2 0.000010 0.500000 0.653130 1.055031
Zn3   Zn    Zn3+2 0.499980 0.000000 0.346870 0.967354
Zn4   Zn    Zn3+2 0.999980 0.500000 0.346870 0.967324
O17   O     O_3   0.728901 0.837803 0.261002 -0.594928
C53   C     C_3   0.680332 0.790644 0.164647 -0.305519
H19   H     H_    0.706621 0.808202 0.064158 0.178815
H20   H     H_    0.610612 0.810221 0.173865 0.213169
H21   H     H_    0.684338 0.717889 0.169866 0.127656
O18   O     O_3   0.706980 0.171219 0.253289 -0.598777
C54   C     C_3   0.656881 0.223191 0.172047 -0.292597
H22   H     H_    0.594765 0.244993 0.224835 0.165645
H23   H     H_    0.638818 0.182691 0.083032 0.191209
H24   H     H_    0.695249 0.280573 0.136060 0.156647
O19   O     O_3   0.229018 0.337946 0.261077 -0.594905
C55   C     C_3   0.180507 0.290859 0.164562 -0.305658
H25   H     H_    0.207223 0.308038 0.064136 0.178495
H26   H     H_    0.110916 0.310895 0.173138 0.213470
H27   H     H_    0.183999 0.218096 0.170186 0.127770
O20   O     O_3   0.206944 0.671253 0.253274 -0.598762
C56   C     C_3   0.156799 0.723218 0.172085 -0.292560
H28   H     H_    0.094678 0.744970 0.224909 0.165637
H29   H     H_    0.138745 0.682730 0.083049 0.191202
H30   H     H_    0.195129 0.780634 0.136125 0.156656
C57   C     C_1   0.626156 0.779885 0.832850 0.211435
N5    N     N_1   0.567620 0.764144 0.905284 -0.232736
C58   C     C_1   0.628685 0.260886 0.840023 0.239619
N6    N     N_1   0.572811 0.289912 0.909068 -0.236357
C59   C     C_1   0.126233 0.279946 0.832900 0.211563
N7    N     N_1   0.067712 0.264227 0.905374 -0.232807
C60   C     C_1   0.128706 0.760983 0.840028 0.239557
N8    N     N_1   0.072864 0.790078 0.909067 -0.236491
C61   C     C_1   0.360990 0.289704 0.746547 0.252703
N9    N     N_1   0.425958 0.329030 0.742845 -0.199974
C62   C     C_1   0.361896 0.734030 0.753762 0.211856
N10   N     N_1   0.424952 0.692821 0.753846 -0.191681
C63   C     C_1   0.860935 0.789721 0.746560 0.252692
N11   N     N_1   0.925893 0.829064 0.742858 -0.200019
C64   C     C_1   0.861904 0.234118 0.753833 0.211884
N12   N     N_1   0.924989 0.192956 0.753961 -0.191663
O21   O     O_3   0.652898 0.016370 0.842531 -0.602579
C65   C     C_3   0.731051 0.012141 0.912662 -0.434653
H31   H     H_    0.786980 0.010531 0.838213 0.208884
H32   H     H_    0.734056 0.951209 0.969840 0.189228
H33   H     H_    0.739746 0.071718 0.978421 0.204614
O22   O     O_3   0.152900 0.516349 0.842530 -0.602572
C66   C     C_3   0.231052 0.512153 0.912671 -0.434638
H34   H     H_    0.286985 0.510559 0.838229 0.208880
H35   H     H_    0.234073 0.451225 0.969855 0.189250
H36   H     H_    0.239723 0.571738 0.978424 0.204628
O23   O     O_3   0.378327 0.125447 0.914403 -0.614803
C67   C     C_3   0.388902 0.184900 0.024376 -0.431677
H37   H     H_    0.439933 0.162937 0.091407 0.192334
H38   H     H_    0.325287 0.196786 0.077658 0.167040
H39   H     H_    0.411447 0.248817 0.987406 0.232446
O24   O     O_3   0.280873 0.008695 0.866314 -0.626803
C68   C     C_3   0.198091 0.038720 0.915597 -0.348950
H40   H     H_    0.200466 0.100773 0.977877 0.148799
H41   H     H_    0.165462 0.987099 0.975610 0.179688
H42   H     H_    0.157099 0.050459 0.828847 0.213173
O25   O     O_3   0.878346 0.625467 0.914312 -0.614795
C69   C     C_3   0.889025 0.684926 0.024250 -0.431689
H43   H     H_    0.940028 0.662910 0.091288 0.192238
H44   H     H_    0.825433 0.696936 0.077528 0.167181
H45   H     H_    0.911665 0.748798 0.987234 0.232532
O26   O     O_3   0.780881 0.508714 0.866294 -0.626795
C70   C     C_3   0.698094 0.538728 0.915573 -0.349077
H46   H     H_    0.700463 0.600768 0.977884 0.148771
H47   H     H_    0.665462 0.487094 0.975556 0.179687
H48   H     H_    0.657110 0.550485 0.828822 0.213190

loop_
_geom_bond_atom_site_label_1
_geom_bond_atom_site_label_2
_ccdc_geom_bond_type
C21   O13   A    
O3    Zn2   S    
C70   H46   S    
O8    Zn4   S    
C50   C58   S    
C68   H40   S    
O5    Zn3   S    
C18   O26   S    
C61   N9    T    
C19   H5    S    
C66   H35   S    
C28   C46   A    
C54   H22   S    
C14   O22   S    
C2    C29   S    
C16   N4    A    
C32   C36   A    
O26   C70   S    
C68   H41   S    
C38   C42   A    
C48   C52   S    
C11   N1    A    
C22   C41   S    
C55   H25   S    
C57   N5    T    
C53   H21   S    
C29   C33   A    
C7    C27   S    
C37   O17   S    
C17   O23   S    
C42   C46   A    
N4    Zn2   S    
O15   Zn4   S    
C34   H2    S    
O20   C56   S    
C1    C30   S    
C9    C19   S    
C21   O9    A    
C10   C20   S    
C65   H31   S    
C53   H20   S    
C3    O7    A    
C51   C59   S    
O25   C69   S    
C23   O15   A    
O10   Zn1   S    
C22   O14   A    
C20   H8    S    
C25   C47   A    
C18   C20   S    
O1    Zn1   S    
N2    Zn4   S    
C27   C45   A    
C12   N2    A    
C54   H23   S    
C14   N4    A    
C33   H1    S    
C67   H39   S    
O11   Zn2   S    
C46   C50   S    
O16   Zn4   S    
C19   H6    S    
C25   C29   A    
C66   H36   S    
C49   H9    S    
C30   C34   A    
C27   C31   A    
C1    O1    A    
C28   C32   A    
C68   H42   S    
C51   H11   S    
C7    C49   S    
C5    H13   S    
C52   H12   S    
C47   C51   S    
O4    Zn2   S    
C35   H3    S    
C23   C44   S    
C24   O12   A    
C22   O10   A    
C70   H47   S    
C4    O4    A    
C36   H4    S    
C52   C60   S    
C69   H45   S    
C6    H14   S    
C53   H19   S    
C45   C49   S    
C13   O21   S    
C56   H29   S    
C33   C39   A    
C20   H7    S    
N3    Zn1   S    
C60   N8    T    
O24   C68   S    
C5    C25   S    
C16   C18   S    
C49   C57   S    
C69   H44   S    
C26   C30   A    
C70   H48   S    
C15   N3    A    
C62   N10   T    
C50   H10   S    
C34   C40   A    
C18   O25   S    
C3    O3    A    
C8    C50   S    
C67   H38   S    
C2    O2    A    
C64   N12   T    
C66   H34   S    
C15   C17   S    
C12   H18   S    
O14   Zn3   S    
C56   H28   S    
C35   C37   A    
C9    N1    A    
C6    C62   S    
C13   N3    A    
O22   C66   S    
C24   O16   A    
C39   O19   S    
C39   C43   A    
C59   N7    T    
C11   H17   S    
C8    H16   S    
C63   N11   T    
N1    Zn3   S    
C26   C48   A    
C54   H24   S    
O9    Zn1   S    
O19   C55   S    
C5    C61   S    
C6    C52   S    
C36   C38   A    
C17   O24   S    
C9    C15   A    
O12   Zn2   S    
O23   C67   S    
O7    Zn4   S    
C11   C13   A    
C38   O18   S    
C6    C26   S    
C55   H26   S    
C65   H33   S    
C1    O5    A    
O13   Zn3   S    
O18   C54   S    
C17   C19   S    
C56   H30   S    
C31   C35   A    
C37   C41   A    
C3    C32   S    
C40   O20   S    
C4    C31   S    
C2    O6    A    
O2    Zn1   S    
C7    H15   S    
C21   C42   S    
C44   C48   A    
C12   C14   A    
C40   C44   A    
C4    O8    A    
C69   H43   S    
C8    C28   S    
C65   H32   S    
C23   O11   A    
C8    C64   S    
C24   C43   S    
C41   C45   A    
C67   H37   S    
C5    C51   S    
C10   C16   A    
C7    C63   S    
O6    Zn3   S    
C58   N6    T    
C43   C47   A    
O17   C53   S    
O21   C65   S    
C55   H27   S    
C10   N2    A    
