data_mof_unit_15389.cif
_audit_creation_date              2012-12-10T19:07:37-0500
_audit_creation_method            fapswitch 2.2
_symmetry_space_group_name_H-M    P1
_symmetry_Int_Tables_number       1
_space_group_crystal_system       triclinic
_cell_length_a                    10.841236
_cell_length_b                    10.790716
_cell_length_c                    9.586342
_cell_angle_alpha                 91.181191
_cell_angle_beta                  91.101833
_cell_angle_gamma                 90.953406
_cell_volume                      1120.84690286

loop_
_atom_site_label
_atom_site_type_symbol
_atom_type_description
_atom_site_fract_x
_atom_site_fract_y
_atom_site_fract_z
_atom_type_partial_charge
C1    C     C_R   0.502081 0.262580 0.499455 0.828269
C2    C     C_R   0.941691 0.531389 0.618779 -0.019632
C3    C     C_3   0.949395 0.651833 0.700685 -0.043659
C4    C     C_3   0.089049 0.636583 0.707101 0.322231
C5    C     C_R   0.441273 0.060687 0.398188 0.084492
C6    C     C_R   0.508179 0.129211 0.499184 -0.144607
C7    C     C_R   0.581349 0.066067 0.597798 0.151786
C8    C     C_R   0.574392 0.936783 0.601002 -0.203555
C9    C     C_R   0.500596 0.870365 0.502889 -0.118161
C10   C     C_R   0.440077 0.933302 0.397310 0.142178
C11   C     C_3   0.307453 0.925295 0.352400 -0.460136
C12   C     C_R   0.262618 0.494048 0.498568 0.854657
C13   C     C_3   0.308003 0.065964 0.356434 -0.423816
C14   C     C_R   0.542523 0.601653 0.077083 0.144429
C15   C     C_R   0.457457 0.399902 0.069040 0.584963
C16   C     C_R   0.448829 0.405446 0.920778 -0.140272
C17   C     C_R   0.544332 0.600052 0.929452 0.183755
C18   C     C_3   0.673225 0.647242 0.926685 -0.497622
C19   C     C_3   0.672252 0.652034 0.084496 -0.019961
C20   C     C_R   0.497979 0.737225 0.501203 0.858348
C21   C     C_R   0.737548 0.501428 0.501035 0.844918
C22   C     C_R   0.068155 0.523190 0.617568 -0.005928
C23   C     C_R   0.129157 0.483655 0.498097 -0.095758
C24   C     C_R   0.058072 0.433916 0.384102 0.140718
C25   C     C_R   0.929525 0.439189 0.387632 -0.196526
C26   C     C_R   0.870716 0.494131 0.501965 -0.058906
Cu1   Cu    Cu3+1 0.499990 0.499980 0.640670 0.970646
Cu2   Cu    Cu3+1 0.500010 0.500020 0.359330 1.021702
H1    H     H_    0.247092 0.882978 0.431287 0.241994
H2    H     H_    0.293239 0.105894 0.251823 0.256232
H3    H     H_    0.250167 0.105825 0.440217 0.206139
H4    H     H_    0.407282 0.329301 0.860820 0.167015
H5    H     H_    0.735039 0.574949 0.885373 0.198974
H6    H     H_    0.680551 0.738946 0.876684 0.223441
H7    H     H_    0.738337 0.586990 0.132609 0.166496
H8    H     H_    0.875748 0.402623 0.299188 0.175401
H9    H     H_    0.910154 0.645319 0.805835 0.101423
H10   H     H_    0.126198 0.610995 0.811998 0.069496
H11   H     H_    0.626849 0.888393 0.679443 0.186753
H12   H     H_    0.295718 0.885064 0.245168 0.213056
N1    N     N_R   0.500790 0.500930 0.147930 -0.244841
N2    N     N_R   0.500790 0.500890 0.852020 -0.209176
O1    O     O_R   0.500000 0.319640 0.618810 -0.583827
O2    O     O_R   0.500010 0.319680 0.381230 -0.518753
O3    O     O_R   0.319650 0.499970 0.618810 -0.584179
O4    O     O_R   0.319660 0.500010 0.381230 -0.547438
O5    O     O_R   0.499990 0.680320 0.618770 -0.587845
O6    O     O_R   0.500000 0.680360 0.381190 -0.557161
O7    O     O_R   0.680340 0.499990 0.618770 -0.566808
O8    O     O_R   0.680350 0.500030 0.381190 -0.597980
I1    I     I_    0.131028 0.351176 0.201389 -0.352490
O9    O     O_3   0.427288 0.290139 0.133005 -0.553511
C27   C     C_3   0.500131 0.193472 0.077775 -0.281015
H13   H     H_    0.500075 0.114795 0.149160 0.206357
H14   H     H_    0.598579 0.222367 0.066222 0.179219
H15   H     H_    0.460654 0.157219 0.976995 0.163111
I2    I     I_    0.685692 0.838349 0.165529 -0.339397
I3    I     I_    0.886141 0.807597 0.583270 -0.291402
O10   O     O_3   0.155718 0.729633 0.637184 -0.551318
C28   C     C_3   0.211660 0.811843 0.736645 -0.260554
H16   H     H_    0.285163 0.764622 0.797083 0.162964
H17   H     H_    0.142353 0.851887 0.808171 0.180548
H18   H     H_    0.255912 0.889725 0.681650 0.178577
I4    I     I_    0.706236 0.156171 0.742253 -0.354054

loop_
_geom_bond_atom_site_label_1
_geom_bond_atom_site_label_2
_ccdc_geom_bond_type
C2    C22   A    
C23   C24   A    
C27   H13   S    
C6    C7    A    
C12   O3    A    
C8    H11   S    
Cu1   O1    S    
C16   H4    S    
C4    C22   S    
C9    C10   A    
Cu2   N1    S    
C9    C20   S    
C5    C13   S    
Cu1   N2    S    
C21   C26   S    
Cu1   O3    S    
C24   I1    S    
C21   O7    A    
C17   C18   S    
O10   C28   S    
C2    C26   A    
C19   H7    S    
C15   O9    S    
C24   C25   A    
C11   C13   S    
C14   C17   A    
Cu2   O4    S    
C20   O6    A    
C1    O1    A    
C18   H6    S    
C14   N1    A    
C19   I2    S    
C15   C16   A    
C4    O10   S    
C5    C10   A    
C21   O8    A    
C4    H10   S    
C2    C3    S    
C28   H18   S    
C5    C6    A    
C18   H5    S    
C7    I4    S    
C20   O5    A    
C10   C11   S    
C25   H8    S    
C11   H12   S    
C3    I3    S    
C16   N2    A    
C13   H2    S    
C7    C8    A    
O9    C27   S    
C11   H1    S    
C28   H17   S    
C18   C19   S    
C27   H15   S    
Cu1   O5    S    
Cu1   Cu2   S    
C13   H3    S    
C17   N2    A    
C28   H16   S    
C12   C23   S    
C1    O2    A    
C25   C26   A    
C22   C23   A    
C27   H14   S    
Cu2   O8    S    
C14   C19   S    
Cu2   O2    S    
Cu2   O6    S    
C3    C4    S    
Cu1   O7    S    
C3    H9    S    
C15   N1    A    
C8    C9    A    
C12   O4    A    
C1    C6    S    
