data_mof_unit_47362.cif
_audit_creation_date              2012-12-11T17:39:33-0500
_audit_creation_method            fapswitch 2.2
_symmetry_space_group_name_H-M    P1
_symmetry_Int_Tables_number       1
_space_group_crystal_system       triclinic
_cell_length_a                    14.836448
_cell_length_b                    15.078579
_cell_length_c                    15.077294
_cell_angle_alpha                 109.229268
_cell_angle_beta                  109.149799
_cell_angle_gamma                 110.021237
_cell_volume                      2596.81107258

loop_
_atom_site_label
_atom_site_type_symbol
_atom_type_description
_atom_site_fract_x
_atom_site_fract_y
_atom_site_fract_z
_atom_type_partial_charge
C1    C     C_R   0.905112 0.908923 0.708414 -0.178854
C2    C     C_R   0.908873 0.685572 0.442839 -0.087192
C3    C     C_R   0.704278 0.786957 0.196094 -0.105067
C4    C     C_R   0.093143 0.298929 0.497247 -0.149313
C5    C     C_R   0.306537 0.011664 0.602491 -0.139229
C6    C     C_R   0.646633 0.688738 0.188955 0.136395
C7    C     C_R   0.375812 0.082058 0.583563 0.024588
C8    C     C_R   0.003143 0.678173 0.460821 0.140742
C9    C     C_R   0.001110 0.967018 0.177475 -0.072921
C10   C     C_R   0.542451 0.758754 0.613999 -0.310263
C11   C     C_R   0.535508 0.840580 0.591954 0.576567
C12   C     C_R   0.002508 0.301986 0.439514 0.091160
C13   C     C_R   0.613007 0.950808 0.670708 -0.053468
C14   C     C_R   0.689940 0.977618 0.773225 -0.266555
C15   C     C_R   0.695179 0.895530 0.794657 -0.114980
C16   C     C_R   0.247355 0.220685 0.811424 -0.136792
C17   C     C_R   0.622060 0.786358 0.714938 -0.162733
C18   C     C_R   0.535446 0.067073 0.672351 -0.212647
C19   C     C_R   0.495202 0.121146 0.626169 0.052227
C20   C     C_R   0.558600 0.183620 0.594092 0.046819
C21   C     C_R   0.637863 0.161499 0.577422 -0.249554
C22   C     C_R   0.653560 0.079551 0.592448 0.080493
C23   C     C_R   0.273193 0.321984 0.821338 0.138042
C24   C     C_R   0.607120 0.037934 0.648991 0.100940
C25   C     C_R   0.548555 0.289435 0.495550 -0.110035
C26   C     C_R   0.538567 0.375276 0.486075 -0.060219
C27   C     C_R   0.526717 0.446081 0.562533 -0.074896
C28   C     C_R   0.743009 0.058205 0.470537 -0.120652
C29   C     C_R   0.525314 0.431590 0.648984 -0.121615
C30   C     C_R   0.536397 0.346599 0.659536 -0.173276
C31   C     C_R   0.547383 0.274056 0.582442 0.103789
C32   C     C_R   0.825367 0.126209 0.087897 -0.128304
C33   C     C_R   0.899277 0.226225 0.183605 -0.114459
C34   C     C_R   0.712645 0.037404 0.544090 0.068767
C35   C     C_R   0.859329 0.285112 0.236207 0.190399
C36   C     C_R   0.744600 0.242205 0.191915 -0.094119
C37   C     C_R   0.671085 0.142080 0.096305 -0.124309
C38   C     C_R   0.711446 0.084077 0.044392 -0.106521
C39   C     C_R   0.940279 0.486109 0.347100 0.415877
C40   C     C_R   0.248161 0.312306 0.720417 -0.128329
C41   C     C_R   0.009462 0.582577 0.448164 -0.094337
C42   C     C_R   0.081371 0.586187 0.539983 -0.031289
C43   C     C_R   0.082457 0.493311 0.529268 -0.233722
C44   C     C_R   0.008581 0.395681 0.432382 0.011652
C45   C     C_R   0.704225 0.693935 0.285076 -0.095738
C46   C     C_R   0.937101 0.389946 0.339346 -0.124543
C47   C     C_R   0.266282 0.735478 0.700194 -0.199042
C48   C     C_R   0.331627 0.826352 0.804238 -0.122817
C49   C     C_R   0.281884 0.863114 0.860557 -0.096007
C50   C     C_R   0.166753 0.808862 0.813044 -0.114831
C51   C     C_R   0.100968 0.718612 0.708554 -0.128726
C52   C     C_R   0.746266 0.966740 0.561019 -0.112567
C53   C     C_R   0.150405 0.681936 0.651057 0.154449
C54   C     C_2   0.370366 0.518978 0.931992 -0.123836
C55   C     C_2   0.326926 0.420904 0.923386 -0.189613
C56   C     C_R   0.310088 0.104991 0.516402 -0.048663
C57   C     C_2   0.467840 0.612870 0.032553 -0.114879
C58   C     C_2   0.538527 0.599345 0.101971 -0.197598
C59   C     C_R   0.208040 0.348867 0.072536 -0.333342
C60   C     C_R   0.180467 0.246300 0.064770 0.568735
C61   C     C_R   0.073874 0.156484 0.985200 -0.028076
C62   C     C_R   0.000543 0.168732 0.909833 -0.217549
C63   C     C_R   0.030784 0.269664 0.915495 -0.083514
C64   C     C_R   0.909363 0.210295 0.408810 -0.140405
C65   C     C_R   0.133687 0.359959 0.997739 -0.108108
C66   C     C_R   0.037903 0.053162 0.077448 -0.114749
C67   C     C_R   0.093741 0.781030 0.526146 -0.132579
C68   C     C_R   0.999416 0.956851 0.080469 0.085184
C69   C     C_R   0.951038 0.854925 0.989881 0.021899
C70   C     C_R   0.947766 0.852345 0.896222 -0.292126
C71   C     C_R   0.993261 0.950349 0.896339 0.053733
C72   C     C_R   0.036099 0.051673 0.985729 0.056770
C73   C     C_R   0.971325 0.733044 0.064756 -0.165356
C74   C     C_R   0.925216 0.639901 0.072437 -0.077299
C75   C     C_R   0.811481 0.566345 0.008875 -0.041265
C76   C     C_R   0.089148 0.002753 0.801048 -0.117596
C77   C     C_R   0.743835 0.585584 0.937250 -0.126190
C78   C     C_R   0.908727 0.944906 0.187781 -0.195171
C79   C     C_R   0.789760 0.677930 0.928292 -0.162575
C80   C     C_R   0.903778 0.752702 0.992644 0.142293
C81   C     C_R   0.995921 0.947395 0.803162 0.066824
C82   C     C_3   0.351800 0.769740 0.482327 0.246740
C83   C     C_3   0.270139 0.764265 0.384979 -0.831279
C84   C     C_3   0.358009 0.275797 0.145955 0.295065
C85   C     C_3   0.409548 0.208992 0.169833 -0.856321
C86   C     C_R   0.093704 0.038082 0.278354 0.453843
Cl1   Cl    Cl    0.227800 0.115060 0.303153 -0.713495
Cl2   Cl    Cl    0.861116 0.486891 0.230434 -0.747322
H1    H     H_    0.820344 0.852697 0.680849 0.123053
H2    H     H_    0.178427 0.352758 0.523682 0.108228
H3    H     H_    0.745935 0.061980 0.836031 0.152922
H4    H     H_    0.756106 0.916340 0.872918 0.122560
H5    H     H_    0.497831 0.030784 0.711124 0.113461
H6    H     H_    0.684345 0.205696 0.549047 0.119672
H7    H     H_    0.555755 0.234401 0.434358 0.107697
H8    H     H_    0.539720 0.386822 0.419236 0.101862
H9    H     H_    0.518555 0.512139 0.554736 0.094085
H10   H     H_    0.515758 0.486376 0.707924 0.100544
H11   H     H_    0.535557 0.336774 0.727306 0.115635
H12   H     H_    0.340155 0.171158 0.501893 0.173709
H13   H     H_    0.654377 0.006434 0.970586 0.111620
H14   H     H_    0.257881 0.201123 0.875376 0.092609
H15   H     H_    0.856326 0.081298 0.047477 0.107334
H16   H     H_    0.987359 0.257736 0.216721 0.114761
H17   H     H_    0.712277 0.285797 0.232109 0.118148
H18   H     H_    0.582826 0.109257 0.062701 0.107719
H19   H     H_    0.135018 0.495667 0.600969 0.137775
H20   H     H_    0.305681 0.707727 0.657243 0.106644
H21   H     H_    0.420801 0.868196 0.841218 0.109091
H22   H     H_    0.332546 0.933363 0.941177 0.102252
H23   H     H_    0.179734 0.804258 0.557377 0.108452
H24   H     H_    0.128569 0.836836 0.857260 0.125679
H25   H     H_    0.729669 0.109730 0.438548 0.093959
H26   H     H_    0.011831 0.677593 0.672307 0.107550
H27   H     H_    0.346400 0.528911 0.861363 0.120062
H28   H     H_    0.346122 0.412405 0.994819 0.127956
H29   H     H_    0.488667 0.692905 0.041783 0.123116
H30   H     H_    0.521146 0.519965 0.092804 0.133166
H31   H     H_    0.156123 0.438689 0.003386 0.139688
H32   H     H_    0.287139 0.420071 0.136297 0.131276
H33   H     H_    0.919188 0.100496 0.847726 0.143790
H34   H     H_    0.823886 0.901099 0.123771 0.127005
H35   H     H_    0.973444 0.278285 0.857291 0.122189
H36   H     H_    0.258258 0.375458 0.699332 0.090653
H37   H     H_    0.066890 0.129844 0.146565 0.157823
H38   H     H_    0.912828 0.775283 0.824713 0.140296
H39   H     H_    0.059345 0.790299 0.115540 0.135958
H40   H     H_    0.977514 0.625251 0.128324 0.154102
H41   H     H_    0.775623 0.494706 0.015432 0.159636
H42   H     H_    0.655652 0.529516 0.889673 0.114114
H43   H     H_    0.736270 0.692674 0.873575 0.102566
H44   H     H_    0.742151 0.935363 0.614064 0.116154
H45   H     H_    0.824396 0.619777 0.399619 0.121074
H46   H     H_    0.824360 0.183103 0.355584 0.100413
H47   H     H_    0.173767 0.033912 0.859381 0.095814
H48   H     H_    0.674058 0.636596 0.310855 0.085895
H49   H     H_    0.352053 0.820979 0.555337 0.071804
H50   H     H_    0.322783 0.685819 0.469767 0.096986
H51   H     H_    0.267172 0.713351 0.310325 0.253236
H52   H     H_    0.186282 0.727753 0.375440 0.214258
H53   H     H_    0.295582 0.847406 0.396475 0.261897
H54   H     H_    0.411998 0.361299 0.213689 0.090507
H55   H     H_    0.354688 0.273565 0.070201 0.044353
H56   H     H_    0.675704 0.814811 0.140991 0.081877
H57   H     H_    0.358909 0.124127 0.101004 0.245085
H58   H     H_    0.494446 0.244964 0.181670 0.188467
H59   H     H_    0.413702 0.207681 0.244196 0.288651
H60   H     H_    0.330477 0.988286 0.662881 0.095782
H61   H     H_    0.626790 0.722991 0.731424 0.122988
H62   H     H_    0.486212 0.673863 0.552854 0.131425
N1    N     N_R   0.941940 0.944580 0.650780 -0.040591
N2    N     N_R   0.204460 0.150250 0.707090 -0.044999
N3    N     N_R   0.794270 0.003240 0.446420 -0.043580
N4    N     N_R   0.204920 0.207570 0.650770 -0.047755
N5    N     N_R   0.793810 0.945920 0.502740 -0.046588
N6    N     N_R   0.943620 0.152590 0.446420 -0.041670
N7    N     N_R   0.055110 0.000900 0.707100 -0.037178
N8    N     N_R   0.795080 0.792430 0.349230 -0.044031
N9    N     N_R   0.206190 0.054080 0.497260 -0.049445
N10   N     N_R   0.056380 0.847410 0.553580 -0.044450
N11   N     N_R   0.944890 0.999100 0.292900 -0.058946
N12   N     N_R   0.058060 0.055420 0.349220 -0.083235
N13   N     N_R   0.943200 0.791100 0.497260 -0.054453
N14   N     N_R   0.795540 0.849750 0.292910 -0.041643
N15   N     N_R   0.205730 0.996760 0.553580 -0.044235
N16   N     N_R   0.056800 0.208900 0.502740 -0.041353
Ni1   Ni    Ni4+2 0.869690 0.869690 0.500000 0.214248
Ni2   Ni    Ni4+2 0.130310 0.130310 0.500000 0.237552
Ni3   Ni    Ni4+2 0.129250 0.998840 0.629170 0.213914
Ni4   Ni    Ni4+2 0.870750 0.001160 0.370830 0.214518
O1    O     O_3   0.457503 0.814107 0.491927 -0.631918
O2    O     O_3   0.252715 0.232529 0.137626 -0.606414

loop_
_geom_bond_atom_site_label_1
_geom_bond_atom_site_label_2
_ccdc_geom_bond_type
C25   C31   A    
C66   C68   A    
C63   C65   A    
C11   O1    S    
C59   H32   S    
C6    C45   A    
C27   C29   A    
C33   H16   S    
C41   C42   A    
C6    C58   S    
N14   Ni4   S    
C35   C36   A    
C25   H7    S    
C3    C6    A    
C40   N4    A    
C83   H51   S    
N11   N12   A    
C56   N9    A    
C39   C41   A    
C52   N5    A    
C74   H40   S    
C26   H8    S    
C26   C27   A    
C37   C38   A    
C29   H10   S    
C18   C24   A    
C7    C56   A    
C57   H29   S    
C36   C37   A    
C85   H57   S    
C5    N15   A    
C82   H49   S    
C42   C53   S    
C30   C31   A    
C12   C64   A    
C21   H6    S    
C10   C17   A    
C1    C81   A    
C23   C40   A    
C58   H30   S    
N9    Ni2   S    
C18   C19   A    
C73   C74   A    
N7    Ni3   S    
C15   H4    S    
C54   C55   D    
C84   C85   S    
C66   C72   A    
C19   C20   A    
N5    Ni1   S    
C68   C69   A    
N3    Ni4   S    
N10   Ni3   S    
C70   C71   A    
C86   N12   A    
C32   C38   A    
C4    C12   A    
C29   C30   A    
N8    N14   A    
C47   C53   A    
C70   H38   S    
C48   H21   S    
C28   C34   A    
C59   C60   A    
C5    H60   S    
C13   C14   A    
N16   Ni2   S    
N4    Ni2   S    
C61   C62   A    
C39   Cl2   S    
C40   H36   S    
C83   H52   S    
C76   H47   S    
C44   C46   A    
N8    Ni1   S    
C50   C51   A    
C4    H2    S    
C77   C79   A    
N15   Ni3   S    
C22   C34   S    
C64   H46   S    
C76   N7    A    
C51   H26   S    
C74   C75   A    
C3    H56   S    
C60   O2    S    
N10   N13   A    
C85   H58   S    
C28   H25   S    
C83   H53   S    
C86   Cl1   S    
C77   H42   S    
C84   H55   S    
C25   C26   A    
C73   H39   S    
C30   H11   S    
N9    N15   A    
C13   C24   S    
C60   C61   A    
C51   C53   A    
C52   H44   S    
C2    N13   A    
N13   Ni1   S    
C43   C44   A    
C62   C63   A    
C9    C86   A    
C47   H20   S    
C47   C48   A    
C84   H54   S    
C79   H43   S    
C54   H27   S    
C50   H24   S    
C2    H45   S    
C65   H31   S    
C32   H15   S    
C16   N2    A    
C43   H19   S    
C8    C41   S    
C75   C77   A    
C67   N10   A    
C3    N14   A    
C8    C67   A    
C39   C46   A    
N12   Ni2   S    
N11   Ni4   S    
C61   C72   S    
C16   H14   S    
C48   C49   A    
N2    N4    A    
C82   C83   S    
C16   C23   A    
C7    C19   S    
C28   N3    A    
C22   C24   A    
N3    N5    A    
C42   C43   A    
N6    N16   A    
N1    N7    A    
C5    C7    A    
C67   H23   S    
C15   C17   A    
C82   O1    S    
C27   H9    S    
C45   H48   S    
C1    H1    S    
C36   H17   S    
C17   H61   S    
C45   N8    A    
C85   H59   S    
C84   O2    S    
C76   C81   A    
C63   H35   S    
C23   C55   S    
C38   H13   S    
C64   N6    A    
C34   C52   A    
C66   H37   S    
C32   C33   A    
C9    C68   S    
C37   H18   S    
C82   H50   S    
C10   H62   S    
N2    Ni3   S    
C11   C13   A    
C57   C58   D    
N1    Ni1   S    
N6    Ni4   S    
C33   C35   A    
C73   C80   A    
C4    N16   A    
C1    N1    A    
C9    C78   A    
C69   C70   A    
C78   H34   S    
C14   H3    S    
C10   C11   A    
C79   C80   A    
C71   C72   A    
C20   C21   A    
C78   N11   A    
C12   C44   S    
C49   C50   A    
C55   H28   S    
C2    C8    A    
C18   H5    S    
C56   H12   S    
C14   C15   A    
C69   C80   S    
C21   C22   A    
C35   C46   S    
C54   C57   S    
C62   H33   S    
C59   C65   A    
C75   H41   S    
C49   H22   S    
C71   C81   S    
C20   C31   S    
