data_mof_unit_49524.cif
_audit_creation_date              2012-12-10T18:05:16-0500
_audit_creation_method            fapswitch 2.2
_symmetry_space_group_name_H-M    P1
_symmetry_Int_Tables_number       1
_space_group_crystal_system       triclinic
_cell_length_a                    9.606367
_cell_length_b                    10.860856
_cell_length_c                    17.08047
_cell_angle_alpha                 86.084458
_cell_angle_beta                  91.538691
_cell_angle_gamma                 89.880361
_cell_volume                      1777.24845152

loop_
_atom_site_label
_atom_site_type_symbol
_atom_type_description
_atom_site_fract_x
_atom_site_fract_y
_atom_site_fract_z
_atom_type_partial_charge
C1    C     C_R   0.500466 0.262559 0.499474 0.803523
C2    C     C_R   0.074289 0.574892 0.448076 -0.109801
C3    C     C_R   0.514111 0.498208 0.650451 0.813311
C4    C     C_R   0.485851 0.499387 0.348651 0.808545
C5    C     C_R   0.512344 0.500028 0.736267 -0.079339
C6    C     C_R   0.488595 0.505803 0.260935 -0.131666
C7    C     C_R   0.474501 0.609706 0.770456 -0.094778
C8    C     C_R   0.616618 0.485462 0.223088 -0.085174
C9    C     C_R   0.460087 0.609724 0.852230 -0.069413
C10   C     C_R   0.628272 0.516064 0.142427 -0.091020
C11   C     C_R   0.482281 0.499211 0.899719 0.274219
C12   C     C_R   0.499991 0.737195 0.498455 0.813445
C13   C     C_R   0.512127 0.559307 0.097695 0.279505
C14   C     C_R   0.511740 0.389105 0.865040 -0.086641
C15   C     C_R   0.382404 0.570910 0.132682 -0.083984
C16   C     C_R   0.524238 0.388626 0.783447 -0.099009
C17   C     C_R   0.369357 0.541765 0.213754 -0.124651
C18   C     C_R   0.409005 0.070175 0.446481 -0.066783
C19   C     C_R   0.596821 0.929137 0.546292 -0.036833
C20   C     C_1   0.735617 0.426734 0.264879 0.344832
C21   C     C_1   0.437749 0.719810 0.721315 0.275896
C22   C     C_1   0.759256 0.499491 0.103913 0.321305
C23   C     C_R   0.411036 0.941389 0.445016 -0.062092
C24   C     C_1   0.413886 0.720954 0.886424 0.341224
C25   C     C_1   0.526709 0.275272 0.914277 0.314454
C26   C     C_1   0.262640 0.612957 0.084491 0.328960
C27   C     C_1   0.531384 0.271236 0.748541 0.329854
C28   C     C_1   0.231378 0.542530 0.245779 0.344370
C29   C     C_1   0.316498 0.142641 0.392531 0.280782
C30   C     C_1   0.689790 0.857217 0.600697 0.340392
C31   C     C_1   0.328120 0.882338 0.386078 0.291119
C32   C     C_1   0.705642 0.114194 0.592004 0.313221
C33   C     C_R   0.600607 0.057537 0.544267 -0.063332
C34   C     C_R   0.501248 0.871128 0.497088 -0.084970
C35   C     C_R   0.502470 0.128307 0.497262 -0.105590
C36   C     C_R   0.073150 0.428431 0.555833 0.502207
C37   C     C_R   0.926950 0.580377 0.449006 0.510102
C38   C     C_R   0.925783 0.426267 0.552544 -0.127217
Cu1   Cu    Cu3+1 0.640660 0.500020 0.500000 1.050320
Cu2   Cu    Cu3+1 0.359340 0.499980 0.500000 1.060847
H1    H     H_    0.868614 0.372970 0.596153 0.221050
H2    H     H_    0.131934 0.637691 0.409651 0.218358
H3    H     H_    0.074587 0.230444 0.738888 0.388844
H4    H     H_    0.936577 0.843688 0.304376 0.388598
N1    N     N_2   0.465878 0.492415 0.982066 -0.234923
N2    N     N_1   0.167114 0.646487 0.046053 -0.213792
N3    N     N_1   0.533692 0.175918 0.722397 -0.240688
N4    N     N_1   0.120011 0.541885 0.269867 -0.207044
N5    N     N_1   0.242882 0.200406 0.349556 -0.242213
N6    N     N_1   0.763700 0.800192 0.643908 -0.228491
N7    N     N_1   0.263113 0.835684 0.338481 -0.234919
N8    N     N_1   0.790328 0.156606 0.631004 -0.204474
N9    N     N_2   0.524231 0.577304 0.015536 -0.232597
N10   N     N_R   0.852070 0.500030 0.499980 -0.261391
N11   N     N_R   0.147930 0.499970 0.500020 -0.262168
N12   N     N_1   0.830449 0.379762 0.297943 -0.239559
N13   N     N_1   0.406228 0.807745 0.682832 -0.257366
N14   N     N_1   0.863642 0.486241 0.073203 -0.225051
N15   N     N_1   0.377049 0.809802 0.913559 -0.220247
N16   N     N_1   0.538647 0.184539 0.953555 -0.227064
O1    O     O_R   0.618740 0.319660 0.500000 -0.598056
O2    O     O_2   0.181479 0.451237 0.700021 -0.293449
O3    O     O_3   0.029679 0.259468 0.688048 -0.534543
O4    O     O_2   0.717912 0.700290 0.356392 -0.281877
O5    O     O_2   0.851317 0.816550 0.449784 -0.305986
O6    O     O_3   0.967547 0.759442 0.323048 -0.537141
O7    O     O_R   0.381260 0.680340 0.500000 -0.589616
O8    O     O_R   0.381170 0.319630 0.500010 -0.529877
O9    O     O_R   0.618830 0.680370 0.499990 -0.515432
O10   O     O_R   0.631780 0.498870 0.613920 -0.592175
O11   O     O_R   0.368220 0.501130 0.386080 -0.588773
O12   O     O_R   0.394210 0.498840 0.613930 -0.499261
O13   O     O_R   0.605790 0.501160 0.386070 -0.537101
O14   O     O_2   0.272503 0.278361 0.630758 -0.278250
S1    S     S_3+6 0.146144 0.354263 0.644063 0.030625
S2    S     S_3+6 0.858158 0.714740 0.394722 0.025907

loop_
_geom_bond_atom_site_label_1
_geom_bond_atom_site_label_2
_ccdc_geom_bond_type
C12   O9    A    
Cu2   O11   S    
H4    O6    S    
C20   N12   T    
H3    O3    S    
C29   N5    T    
C10   C22   S    
C8    C20   S    
O5    S2    D    
C2    N11   A    
C11   C14   A    
Cu1   N10   S    
C1    O8    A    
C7    C9    A    
C32   N8    T    
C5    C16   A    
Cu2   O7    S    
C25   N16   T    
C18   C35   A    
C23   C34   A    
C16   C27   S    
C30   N6    T    
N1    N9    D    
C13   N9    S    
O4    S2    D    
Cu1   O1    S    
C12   O7    A    
O14   S1    D    
C18   C23   A    
C3    O10   A    
C38   H1    S    
C4    C6    S    
C19   C33   A    
Cu1   Cu2   S    
C5    C7    A    
C15   C26   S    
C6    C8    A    
C7    C21   S    
C10   C13   A    
C23   C31   S    
C21   N13   T    
C36   S1    S    
C38   N10   A    
Cu2   N11   S    
O6    S2    S    
Cu1   O9    S    
C18   C29   S    
C9    C11   A    
C4    O13   A    
C37   N10   A    
C37   S2    S    
C13   C15   A    
C14   C16   A    
O2    S1    D    
C11   N1    S    
C12   C34   S    
C1    C35   S    
C27   N3    T    
C15   C17   A    
C6    C17   A    
C28   N4    T    
Cu2   O12   S    
C17   C28   S    
C31   N7    T    
C3    C5    S    
C19   C34   A    
C1    O1    A    
C22   N14   T    
C9    C24   S    
C32   C33   S    
C36   C38   A    
C3    O12   A    
C36   N11   A    
C2    C37   A    
O3    S1    S    
C2    H2    S    
C24   N15   T    
C33   C35   A    
Cu1   O10   S    
Cu1   O13   S    
C14   C25   S    
C26   N2    T    
C8    C10   A    
Cu2   O8    S    
C19   C30   S    
C4    O11   A    
