data_mof_unit_37651.cif
_audit_creation_date              2012-12-10T16:47:17-0500
_audit_creation_method            fapswitch 2.2
_symmetry_space_group_name_H-M    P1
_symmetry_Int_Tables_number       1
_space_group_crystal_system       triclinic
_cell_length_a                    12.105496
_cell_length_b                    12.122047
_cell_length_c                    7.841849
_cell_angle_alpha                 89.386644
_cell_angle_beta                  94.928686
_cell_angle_gamma                 89.922789
_cell_volume                      1146.415889

loop_
_atom_site_label
_atom_site_type_symbol
_atom_type_description
_atom_site_fract_x
_atom_site_fract_y
_atom_site_fract_z
_atom_type_partial_charge
C1    C     C_R   0.354765 0.850922 0.455499 0.970137
C2    C     C_2   0.726156 0.767732 0.568543 -0.345305
C3    C     C_2   0.725764 0.231868 0.568009 -0.349656
C4    C     C_2   0.274236 0.768131 0.431991 -0.349666
C5    C     C_2   0.773843 0.732267 0.431456 -0.345208
C6    C     C_2   0.226157 0.267732 0.568543 -0.345188
C7    C     C_2   0.225766 0.731866 0.568010 -0.349228
C8    C     C_2   0.774234 0.268134 0.431990 -0.349238
C9    C     C_2   0.639981 0.952309 0.006520 0.700846
C10   C     C_2   0.360020 0.047699 0.993469 0.700815
C11   C     C_2   0.140143 0.452742 0.006317 0.700744
C12   C     C_R   0.645235 0.149078 0.544501 0.970159
C13   C     C_2   0.859845 0.547222 0.993699 0.700736
C14   C     C_R   0.645307 0.850779 0.545123 0.959571
C15   C     C_R   0.354693 0.149221 0.454877 0.959557
C16   C     C_R   0.854764 0.350922 0.455499 0.970248
C17   C     C_R   0.145235 0.649078 0.544501 0.970239
C18   C     C_R   0.145307 0.350779 0.545124 0.959507
C19   C     C_R   0.854693 0.649221 0.454876 0.959508
C20   C     C_2   0.273844 0.232267 0.431457 -0.345311
H1    H     H_    0.753850 0.763892 0.302123 0.170956
H2    H     H_    0.355284 0.136098 0.012009 -0.004975
H3    H     H_    0.145385 0.364314 0.988370 -0.005185
H4    H     H_    0.854572 0.635650 0.011636 -0.005198
H5    H     H_    0.246149 0.236108 0.697876 0.170972
H6    H     H_    0.244903 0.762744 0.696919 0.211121
H7    H     H_    0.755096 0.237257 0.303081 0.211121
H8    H     H_    0.253851 0.263892 0.302124 0.170865
H9    H     H_    0.746149 0.736108 0.697876 0.170858
H10   H     H_    0.744901 0.262746 0.696918 0.211053
H11   H     H_    0.255099 0.737254 0.303082 0.211042
H12   H     H_    0.644742 0.863903 0.988063 -0.005037
N1    N     N_2   0.541470 1.000000 0.055820 -0.180258
N2    N     N_2   0.458530 0.000000 0.944180 -0.180227
N3    N     N_2   0.041470 0.500000 0.055820 -0.180045
N4    N     N_2   0.958530 0.500000 0.944180 -0.180061
O1    O     O_R   0.375700 0.885870 0.609240 -0.612293
O2    O     O_R   0.597720 0.114130 0.675960 -0.607591
O3    O     O_R   0.597720 0.885870 0.675960 -0.652456
O4    O     O_R   0.402280 0.114130 0.324040 -0.652489
O5    O     O_R   0.902280 0.385870 0.324040 -0.607098
O6    O     O_R   0.097720 0.614130 0.675960 -0.607109
O7    O     O_R   0.097720 0.385870 0.675960 -0.652307
O8    O     O_R   0.902280 0.614130 0.324040 -0.652313
O9    O     O_2   0.721833 0.009430 0.994108 -0.599095
O10   O     O_2   0.278139 0.990600 0.005752 -0.599115
O11   O     O_2   0.221617 0.510281 0.993150 -0.599185
O12   O     O_R   0.624300 0.114130 0.390760 -0.612325
O13   O     O_2   0.778396 0.489652 0.006892 -0.599178
O14   O     O_R   0.624300 0.885870 0.390760 -0.637243
O15   O     O_R   0.375700 0.114130 0.609240 -0.637216
O16   O     O_R   0.875700 0.385870 0.609240 -0.612553
O17   O     O_R   0.124300 0.614130 0.390760 -0.612544
O18   O     O_R   0.124300 0.385870 0.390760 -0.637409
O19   O     O_R   0.875700 0.614130 0.609240 -0.637409
O20   O     O_R   0.402280 0.885870 0.324040 -0.607646
Zn1   Zn    Zn3+2 0.482250 1.000000 0.690430 0.976079
Zn2   Zn    Zn3+2 0.517750 1.000000 0.309570 0.976024
Zn3   Zn    Zn3+2 0.982250 0.500000 0.690430 0.976096
Zn4   Zn    Zn3+2 0.017750 0.500000 0.309570 0.976104

loop_
_geom_bond_atom_site_label_1
_geom_bond_atom_site_label_2
_ccdc_geom_bond_type
O6    Zn3   S    
C10   O10   D    
N2    Zn1   S    
O12   Zn2   S    
C9    O9    D    
N1    Zn2   S    
C5    C19   S    
O16   Zn3   S    
C15   O15   A    
C3    H10   S    
O2    Zn1   S    
C6    C20   D    
C11   O11   D    
N3    N4    D    
O7    Zn3   S    
C12   O12   A    
N4    Zn3   S    
C1    C4    S    
C11   N3    S    
N1    N2    D    
C10   N2    S    
O18   Zn4   S    
C18   O7    A    
C10   H2    S    
C9    N1    S    
C6    H5    S    
C14   O14   A    
C7    H6    S    
O8    Zn4   S    
C4    C7    D    
C2    C14   S    
C11   H3    S    
O17   Zn4   S    
O20   Zn2   S    
O19   Zn3   S    
C2    H9    S    
C12   O2    A    
C15   C20   S    
C6    C18   S    
C13   O13   D    
C15   O4    A    
C4    H11   S    
O4    Zn2   S    
C18   O18   A    
O14   Zn2   S    
C17   O17   A    
O15   Zn1   S    
C5    H1    S    
C19   O8    A    
O5    Zn4   S    
C13   N4    S    
C8    C16   S    
C3    C8    D    
C19   O19   A    
C8    H7    S    
C17   O6    A    
N3    Zn4   S    
C3    C12   S    
C20   H8    S    
C9    H12   S    
C14   O3    A    
O1    Zn1   S    
C16   O5    A    
C1    O20   A    
C2    C5    D    
C16   O16   A    
C13   H4    S    
C1    O1    A    
C7    C17   S    
O3    Zn1   S    
