data_mof_unit_19134.cif
_audit_creation_date              2012-12-11T15:22:51-0500
_audit_creation_method            fapswitch 2.2
_symmetry_space_group_name_H-M    P1
_symmetry_Int_Tables_number       1
_space_group_crystal_system       triclinic
_cell_length_a                    22.475447
_cell_length_b                    12.967814
_cell_length_c                    26.983023
_cell_angle_alpha                 90.070871
_cell_angle_beta                  90.748534
_cell_angle_gamma                 90.122042
_cell_volume                      7863.70690586

loop_
_atom_site_label
_atom_site_type_symbol
_atom_type_description
_atom_site_fract_x
_atom_site_fract_y
_atom_site_fract_z
_atom_type_partial_charge
C1    C     C_R   0.720416 0.344472 0.178189 0.553761
C2    C     C_R   0.279596 0.344564 0.821821 0.552653
C3    C     C_R   0.220416 0.844472 0.178189 0.553775
C4    C     C_R   0.779596 0.844564 0.821821 0.552627
C5    C     C_R   0.474968 0.163506 0.871760 0.000043
C6    C     C_R   0.524990 0.163054 0.128272 -0.002063
C7    C     C_R   0.974968 0.663506 0.871759 0.000045
C8    C     C_R   0.024990 0.663054 0.128272 -0.002065
C9    C     C_R   0.519772 0.257738 0.103187 -0.105915
C10   C     C_R   0.479824 0.258107 0.897100 -0.105021
C11   C     C_R   0.019773 0.757738 0.103187 -0.105919
C12   C     C_R   0.979824 0.758107 0.897100 -0.105010
C13   C     C_R   0.508235 0.259350 0.051995 0.014989
C14   C     C_R   0.491318 0.259565 0.948307 0.014758
C15   C     C_R   0.008235 0.759350 0.051995 0.014989
C16   C     C_R   0.991318 0.759565 0.948307 0.014757
C17   C     C_R   0.503209 0.165250 0.025935 0.050206
C18   C     C_R   0.496642 0.165374 0.974118 0.050184
C19   C     C_R   0.003209 0.665250 0.025934 0.050206
C20   C     C_R   0.996643 0.665374 0.974118 0.050183
C21   C     C_R   0.504211 0.352837 0.025988 -0.028512
C22   C     C_R   0.495014 0.352936 0.974572 -0.028584
C23   C     C_R   0.004211 0.852837 0.025988 -0.028512
C24   C     C_R   0.995014 0.852936 0.974572 -0.028580
C25   C     C_R   0.737361 0.961463 0.128551 -0.058147
C26   C     C_R   0.262627 0.962065 0.871541 -0.058444
C27   C     C_R   0.237361 0.461463 0.128551 -0.058138
C28   C     C_R   0.762627 0.462065 0.871541 -0.058445
C29   C     C_R   0.793090 0.961313 0.105574 0.395247
C30   C     C_R   0.206956 0.962105 0.894621 0.395784
C31   C     C_R   0.293090 0.461313 0.105574 0.395251
C32   C     C_R   0.706956 0.462105 0.894621 0.395769
C33   C     C_R   0.796650 0.948350 0.054429 0.392186
C34   C     C_R   0.203465 0.949136 0.945765 0.391653
C35   C     C_R   0.296650 0.448349 0.054429 0.392185
C36   C     C_R   0.703466 0.449136 0.945765 0.391657
C37   C     C_R   0.744511 0.939300 0.025428 -0.115486
C38   C     C_R   0.255627 0.939835 0.974686 -0.115883
C39   C     C_R   0.244511 0.439300 0.025428 -0.115487
C40   C     C_R   0.755627 0.439835 0.974686 -0.115882
C41   C     C_R   0.688486 0.935586 0.048520 0.215551
C42   C     C_R   0.311587 0.936041 0.951499 0.215185
C43   C     C_R   0.188486 0.435586 0.048520 0.215551
C44   C     C_R   0.811587 0.436041 0.951499 0.215184
C45   C     C_R   0.553459 0.157228 0.177554 0.563771
C46   C     C_R   0.446539 0.157418 0.822455 0.557334
C47   C     C_R   0.053459 0.657228 0.177554 0.563756
C48   C     C_R   0.946539 0.657418 0.822455 0.557414
C49   C     C_R   0.685671 0.942072 0.099792 0.372321
C50   C     C_R   0.314318 0.942618 0.900223 0.371647
C51   C     C_R   0.185671 0.442072 0.099792 0.372324
C52   C     C_R   0.814318 0.442618 0.900223 0.371651
C53   C     C_R   0.725871 0.832796 0.951929 -0.108277
C54   C     C_R   0.273966 0.832961 0.047979 -0.108024
C55   C     C_R   0.225871 0.332796 0.951929 -0.108274
C56   C     C_R   0.773966 0.332961 0.047979 -0.108025
C57   C     C_R   0.731274 0.810675 0.902075 0.355069
C58   C     C_R   0.268495 0.810628 0.097798 0.355355
C59   C     C_R   0.231274 0.310675 0.902075 0.355070
C60   C     C_R   0.768496 0.310629 0.097798 0.355359
C61   C     C_R   0.784124 0.972201 0.890350 -0.109329
C62   C     C_R   0.216350 0.972375 0.109905 -0.109034
C63   C     C_R   0.284124 0.472201 0.890350 -0.109324
C64   C     C_R   0.716350 0.472374 0.109905 -0.109042
C65   C     C_R   0.776833 0.997060 0.940242 0.287488
C66   C     C_R   0.223691 0.997409 0.060055 0.287768
C67   C     C_R   0.276834 0.497060 0.940242 0.287490
C68   C     C_R   0.723691 0.497409 0.060055 0.287769
C69   C     C_R   0.749137 0.924306 0.971709 -0.018448
C70   C     C_R   0.251049 0.924659 0.028401 -0.018207
C71   C     C_R   0.249138 0.424305 0.971709 -0.018447
C72   C     C_R   0.751050 0.424659 0.028401 -0.018207
C73   C     C_R   0.762136 0.878892 0.871127 -0.023575
C74   C     C_R   0.237962 0.878873 0.128921 -0.023371
C75   C     C_R   0.262136 0.378892 0.871127 -0.023572
C76   C     C_R   0.737962 0.378873 0.128921 -0.023368
C77   C     C_R   0.567295 0.162907 0.380564 0.060635
C78   C     C_R   0.473104 0.163894 0.629549 0.057094
C79   C     C_R   0.067322 0.662898 0.380571 0.060781
C80   C     C_R   0.973087 0.663914 0.629546 0.056954
C81   C     C_R   0.551652 0.256733 0.403881 0.252921
C82   C     C_R   0.516908 0.236642 0.617332 0.233925
C83   C     C_R   0.051804 0.756762 0.403913 0.252862
C84   C     C_R   0.017028 0.736451 0.617375 0.233945
C85   C     C_R   0.538783 0.256667 0.454729 -0.139531
C86   C     C_R   0.540408 0.235777 0.569082 -0.160721
C87   C     C_R   0.038926 0.756693 0.454760 -0.139638
C88   C     C_R   0.040527 0.735584 0.569125 -0.160842
C89   C     C_R   0.730933 0.002120 0.179117 0.609567
C90   C     C_R   0.269071 0.002395 0.820927 0.607170
C91   C     C_R   0.230933 0.502120 0.179117 0.609578
C92   C     C_R   0.769071 0.502396 0.820927 0.607163
C93   C     C_R   0.542760 0.165930 0.482571 0.080523
C94   C     C_R   0.519563 0.164602 0.533463 0.067355
C95   C     C_R   0.042775 0.665909 0.482578 0.080509
C96   C     C_R   0.019557 0.664607 0.533464 0.067463
C97   C     C_R   0.563244 0.074704 0.460418 0.299967
C98   C     C_R   0.474078 0.094785 0.545491 0.302436
C99   C     C_R   0.063153 0.574631 0.460406 0.299875
C100  C     C_R   0.973942 0.595008 0.545448 0.302277
C101  C     C_R   0.574328 0.073630 0.409418 -0.134125
C102  C     C_R   0.452233 0.093791 0.593677 -0.112777
C103  C     C_R   0.074249 0.573568 0.409407 -0.134147
C104  C     C_R   0.952079 0.594029 0.593630 -0.113254
C105  C     C_R   0.734033 0.981767 0.375821 0.040354
C106  C     C_R   0.266649 0.984328 0.623783 0.047785
C107  C     C_R   0.234039 0.481742 0.375812 0.040379
C108  C     C_R   0.766671 0.484314 0.623778 0.047440
C109  C     C_R   0.741433 0.882160 0.394679 0.172635
C110  C     C_R   0.247949 0.890104 0.603760 0.167811
C111  C     C_R   0.241518 0.382147 0.394662 0.172745
C112  C     C_R   0.748561 0.389708 0.603781 0.167768
C113  C     C_R   0.740070 0.868373 0.446234 -0.141781
C114  C     C_R   0.248731 0.877811 0.552134 -0.136080
C115  C     C_R   0.240169 0.368342 0.446215 -0.141610
C116  C     C_R   0.749438 0.377365 0.552158 -0.136439
C117  C     C_R   0.730094 0.952710 0.477823 -0.031867
C118  C     C_R   0.268151 0.958348 0.521494 -0.033821
C119  C     C_R   0.230133 0.452649 0.477808 -0.031878
C120  C     C_R   0.768403 0.458214 0.521497 -0.034355
C121  C     C_R   0.719141 0.051510 0.458101 0.320816
C122  C     C_R   0.288269 0.052291 0.542177 0.291627
C123  C     C_R   0.219114 0.551435 0.458095 0.320777
C124  C     C_R   0.788051 0.552472 0.542164 0.292052
C125  C     C_R   0.722407 0.065173 0.407385 0.365329
C126  C     C_R   0.286879 0.064301 0.593207 0.368615
C127  C     C_R   0.222357 0.565116 0.407379 0.365325
C128  C     C_R   0.786551 0.564536 0.593186 0.368910
C129  C     C_R   0.780939 0.989917 0.557582 0.420702
C130  C     C_R   0.219589 0.996374 0.441054 0.400614
C131  C     C_R   0.280947 0.489887 0.557574 0.421054
C132  C     C_R   0.719602 0.496105 0.441136 0.400933
C133  C     C_R   0.721652 0.348413 0.321598 0.628034
C134  C     C_R   0.278459 0.347782 0.678241 0.634346
C135  C     C_R   0.221651 0.848417 0.321597 0.628085
C136  C     C_R   0.778451 0.847806 0.678250 0.634537
C137  C     C_R   0.791042 0.967509 0.607205 0.375738
C138  C     C_R   0.209555 0.971899 0.391549 0.369634
C139  C     C_R   0.291041 0.467483 0.607198 0.376063
C140  C     C_R   0.709497 0.471675 0.391636 0.369654
C141  C     C_R   0.708480 0.844492 0.604997 0.216774
C142  C     C_R   0.291782 0.848956 0.394852 0.233932
C143  C     C_R   0.208540 0.344343 0.604961 0.216165
C144  C     C_R   0.791922 0.349112 0.394768 0.233923
C145  C     C_R   0.699005 0.868108 0.554933 -0.150849
C146  C     C_R   0.300788 0.873898 0.444895 -0.151132
C147  C     C_R   0.199068 0.367969 0.554898 -0.151238
C148  C     C_R   0.801000 0.374005 0.444809 -0.151219
C149  C     C_R   0.736273 0.937581 0.531106 -0.060179
C150  C     C_R   0.263440 0.944043 0.468098 -0.069019
C151  C     C_R   0.236309 0.437505 0.531087 -0.060370
C152  C     C_R   0.763599 0.443943 0.468098 -0.068831
C153  C     C_R   0.757194 0.890667 0.630727 0.028146
C154  C     C_R   0.243127 0.893682 0.368725 0.033821
C155  C     C_R   0.257215 0.390597 0.630708 0.027884
C156  C     C_R   0.743143 0.393666 0.368727 0.033916
C157  C     C_R   0.580493 0.155807 0.327069 0.599843
C158  C     C_R   0.445974 0.158442 0.678654 0.613438
C159  C     C_R   0.080502 0.655804 0.327069 0.599959
C160  C     C_R   0.945977 0.658445 0.678656 0.613043
C161  C     C_R   0.731558 0.002910 0.323219 0.630888
C162  C     C_R   0.268565 0.003503 0.676581 0.639049
C163  C     C_R   0.231561 0.502900 0.323213 0.630958
C164  C     C_R   0.768570 0.503506 0.676578 0.638844
C165  C     C_R   0.513838 0.070552 0.102663 -0.073968
C166  C     C_R   0.486407 0.071030 0.897135 -0.073340
C167  C     C_R   0.013838 0.570552 0.102663 -0.073967
C168  C     C_R   0.986407 0.571030 0.897135 -0.073334
C169  C     C_R   0.505395 0.070680 0.051575 0.016850
C170  C     C_R   0.494774 0.070949 0.948226 0.017238
C171  C     C_R   0.005396 0.570680 0.051575 0.016849
C172  C     C_R   0.994775 0.570949 0.948226 0.017237
C173  C     C_R   0.498222 0.977478 0.974029 -0.051521
C174  C     C_R   0.502194 0.977335 0.025520 -0.051414
C175  C     C_R   0.998222 0.477478 0.974029 -0.051518
C176  C     C_R   0.002195 0.477335 0.025519 -0.051414
Cr1   Cr    Cr6+3 0.756570 0.170940 0.251190 1.179767
Cr2   Cr    Cr6+3 0.243430 0.170940 0.748810 1.184392
Cr3   Cr    Cr6+3 0.256570 0.670940 0.251190 1.179716
Cr4   Cr    Cr6+3 0.743430 0.670940 0.748810 1.184328
Cr5   Cr    Cr6+3 0.623740 0.299110 0.249580 1.134665
Cr6   Cr    Cr6+3 0.376260 0.299110 0.750420 1.139668
Cr7   Cr    Cr6+3 0.123740 0.799110 0.249580 1.134687
Cr8   Cr    Cr6+3 0.876260 0.799110 0.750420 1.139565
Cr9   Cr    Cr6+3 0.625990 0.036240 0.250480 1.119103
Cr10  Cr    Cr6+3 0.374010 0.036240 0.749520 1.127016
Cr11  Cr    Cr6+3 0.125990 0.536240 0.250480 1.119131
Cr12  Cr    Cr6+3 0.874010 0.536240 0.749520 1.127098
H1    H     H_    0.483820 0.997741 0.877838 0.192675
H2    H     H_    0.516696 0.997194 0.121768 0.193842
H3    H     H_    0.983820 0.497741 0.877838 0.192685
H4    H     H_    0.016696 0.497194 0.121768 0.193845
H5    H     H_    0.807789 0.025358 0.866674 0.177265
H6    H     H_    0.192938 0.025563 0.133713 0.177560
H7    H     H_    0.307789 0.525358 0.866674 0.177258
H8    H     H_    0.692938 0.525563 0.133713 0.177542
H9    H     H_    0.417421 0.039426 0.602942 0.136266
H10   H     H_    0.589207 0.002805 0.392229 0.119365
H11   H     H_    0.917162 0.539842 0.602865 0.135808
H12   H     H_    0.089046 0.502704 0.392205 0.119471
H13   H     H_    0.523565 0.326817 0.472331 0.130805
H14   H     H_    0.574935 0.290202 0.559225 0.123773
H15   H     H_    0.023800 0.826885 0.472380 0.130752
H16   H     H_    0.075158 0.789841 0.559303 0.123367
H17   H     H_    0.496360 0.904469 0.954474 0.177249
H18   H     H_    0.504270 0.904226 0.044877 0.178050
H19   H     H_    0.996360 0.404469 0.954474 0.177255
H20   H     H_    0.004270 0.404227 0.044877 0.178053
H21   H     H_    0.747983 0.792635 0.461884 0.194282
H22   H     H_    0.233254 0.806341 0.535637 0.189245
H23   H     H_    0.248142 0.292616 0.461861 0.194033
H24   H     H_    0.734363 0.305616 0.535681 0.189932
H25   H     H_    0.663660 0.830272 0.534053 0.165655
H26   H     H_    0.335616 0.836245 0.466304 0.162448
H27   H     H_    0.163745 0.330095 0.534007 0.165727
H28   H     H_    0.835935 0.336481 0.466150 0.162286
H29   H     H_    0.471504 0.329853 0.877657 0.154835
H30   H     H_    0.527846 0.329505 0.122819 0.154548
H31   H     H_    0.971504 0.829853 0.877657 0.154848
H32   H     H_    0.027846 0.829505 0.122819 0.154547
H33   H     H_    0.491005 0.425943 0.955345 0.173971
H34   H     H_    0.507974 0.425778 0.045416 0.174140
H35   H     H_    0.991005 0.925943 0.955345 0.173977
H36   H     H_    0.007975 0.925778 0.045416 0.174141
H37   H     H_    0.704220 0.777191 0.975607 0.188152
H38   H     H_    0.295366 0.777366 0.024163 0.187665
H39   H     H_    0.204220 0.277191 0.975607 0.188153
H40   H     H_    0.795367 0.277366 0.024163 0.187666
O1    O     O_R   0.769900 0.064540 0.196060 -0.410385
O2    O     O_R   0.230100 0.064540 0.803940 -0.410568
O3    O     O_R   0.269900 0.564540 0.196060 -0.410391
O4    O     O_R   0.730100 0.564540 0.803940 -0.410605
O5    O     O_R   0.574760 0.239320 0.300850 -0.421757
O6    O     O_R   0.425240 0.239320 0.699150 -0.432827
O7    O     O_R   0.074760 0.739320 0.300850 -0.421833
O8    O     O_R   0.925240 0.739320 0.699150 -0.433101
O9    O     O_R   0.566290 0.069580 0.305400 -0.521529
O10   O     O_R   0.433710 0.069580 0.694600 -0.527312
O11   O     O_R   0.066290 0.569580 0.305400 -0.521588
O12   O     O_R   0.933710 0.569580 0.694600 -0.527240
O13   O     O_R   0.680760 0.993330 0.302620 -0.514871
O14   O     O_R   0.319240 0.993330 0.697380 -0.495391
O15   O     O_R   0.180760 0.493330 0.302620 -0.514866
O16   O     O_R   0.819240 0.493330 0.697380 -0.495340
O17   O     O_3   0.668770 0.168760 0.250420 -0.326167
O18   O     O_3   0.331230 0.168760 0.749580 -0.303655
O19   O     O_3   0.168770 0.668760 0.250420 -0.326140
O20   O     O_3   0.831230 0.668760 0.749580 -0.303767
O21   O     O_R   0.750800 0.274080 0.199250 -0.440601
O22   O     O_R   0.249200 0.274080 0.800750 -0.441948
O23   O     O_R   0.250800 0.774080 0.199250 -0.440627
O24   O     O_R   0.749200 0.774080 0.800750 -0.441973
O25   O     O_R   0.669990 0.371670 0.194150 -0.527829
O26   O     O_R   0.330010 0.371670 0.805850 -0.529390
O27   O     O_R   0.169990 0.871670 0.194150 -0.527796
O28   O     O_R   0.830010 0.871670 0.805850 -0.529378
O29   O     O_R   0.574600 0.238480 0.197800 -0.503113
O30   O     O_R   0.425400 0.238480 0.802200 -0.505688
O31   O     O_R   0.074600 0.738480 0.197800 -0.503128
O32   O     O_R   0.925400 0.738480 0.802200 -0.505627
O33   O     O_R   0.566130 0.068680 0.194240 -0.467065
O34   O     O_R   0.433870 0.068680 0.805760 -0.472361
O35   O     O_R   0.066130 0.568680 0.194240 -0.467063
O36   O     O_R   0.933870 0.568680 0.805760 -0.472315
O37   O     O_R   0.680610 0.992490 0.199570 -0.449548
O38   O     O_R   0.319390 0.992490 0.800430 -0.451881
O39   O     O_R   0.180610 0.492490 0.199570 -0.449547
O40   O     O_R   0.819390 0.492490 0.800430 -0.451829
O41   O     O_R   0.770060 0.065440 0.307230 -0.455286
O42   O     O_R   0.229940 0.065440 0.692770 -0.463332
O43   O     O_R   0.270060 0.565440 0.307230 -0.455271
O44   O     O_R   0.729940 0.565440 0.692770 -0.463343
O45   O     O_R   0.750960 0.274920 0.302300 -0.430425
O46   O     O_R   0.249040 0.274920 0.697700 -0.434038
O47   O     O_R   0.250960 0.774920 0.302300 -0.430545
O48   O     O_R   0.749040 0.774920 0.697700 -0.433733
O49   O     O_R   0.670160 0.372580 0.305320 -0.434282
O50   O     O_R   0.329840 0.372580 0.694680 -0.438501
O51   O     O_R   0.170160 0.872580 0.305320 -0.434177
O52   O     O_R   0.829840 0.872580 0.694680 -0.438610
O53   O     O_3   0.635325 0.928184 0.022489 -0.642505
H41   H     H_    0.640888 0.953002 0.988195 0.320890
O54   O     O_3   0.364778 0.928434 0.977439 -0.641884
H42   H     H_    0.359355 0.953034 0.011808 0.320952
O55   O     O_3   0.135325 0.428184 0.022489 -0.642503
H43   H     H_    0.140888 0.453002 0.988195 0.320893
O56   O     O_3   0.864779 0.428434 0.977439 -0.641884
H44   H     H_    0.859355 0.453035 0.011808 0.320951
F1    F     F_    0.631066 0.938052 0.120648 -0.581101
F2    F     F_    0.368874 0.938504 0.879297 -0.580833
F3    F     F_    0.131066 0.438052 0.120648 -0.581096
F4    F     F_    0.868874 0.438504 0.879297 -0.580826
O57   O     O_3   0.547755 0.346631 0.376606 -0.611943
H45   H     H_    0.537220 0.404585 0.398822 0.355465
O58   O     O_3   0.536766 0.305543 0.652939 -0.649961
H46   H     H_    0.567701 0.350407 0.638310 0.347881
O59   O     O_3   0.048043 0.846709 0.376663 -0.612080
H47   H     H_    0.037590 0.904683 0.398895 0.355450
O60   O     O_3   0.037019 0.805139 0.653029 -0.649921
H48   H     H_    0.068044 0.849861 0.638430 0.348070
O61   O     O_3   0.450528 0.030466 0.509279 -0.646320
H49   H     H_    0.418949 0.986862 0.523826 0.323414
O62   O     O_3   0.571743 0.987810 0.489245 -0.666728
H50   H     H_    0.586875 0.931159 0.468181 0.325044
O63   O     O_3   0.950296 0.530880 0.509200 -0.646599
H51   H     H_    0.918645 0.487397 0.523721 0.323247
O64   O     O_3   0.071535 0.487677 0.489215 -0.666608
H52   H     H_    0.086629 0.431004 0.468144 0.325120
O65   O     O_3   0.750586 0.800955 0.362549 -0.652908
H53   H     H_    0.754622 0.736509 0.382066 0.354351
O66   O     O_3   0.228904 0.812634 0.634866 -0.665158
H54   H     H_    0.217305 0.751824 0.614562 0.340142
O67   O     O_3   0.250731 0.300974 0.362526 -0.652794
H55   H     H_    0.254812 0.236531 0.382038 0.354444
O68   O     O_3   0.729979 0.311914 0.634908 -0.664762
H56   H     H_    0.718843 0.250802 0.614625 0.340619
F5    F     F_    0.816840 0.058831 0.534598 -0.561959
F6    F     F_    0.184322 0.066948 0.463450 -0.586190
F7    F     F_    0.316827 0.558851 0.534601 -0.561787
F8    F     F_    0.684259 0.566457 0.463612 -0.585850
F9    F     F_    0.836099 0.017344 0.631303 -0.547338
F10   F     F_    0.164848 0.021088 0.366912 -0.550351
F11   F     F_    0.336066 0.517374 0.631311 -0.547292
F12   F     F_    0.664652 0.520692 0.367092 -0.550298
O69   O     O_3   0.672456 0.773608 0.628426 -0.631421
H57   H     H_    0.641443 0.748495 0.604844 0.343497
O70   O     O_3   0.327908 0.777656 0.371939 -0.618829
H58   H     H_    0.358837 0.753591 0.395766 0.344675
O71   O     O_3   0.172548 0.273383 0.628371 -0.631629
H59   H     H_    0.141566 0.248211 0.604775 0.343525
O72   O     O_3   0.828114 0.278033 0.371770 -0.619012
H60   H     H_    0.859135 0.254074 0.395540 0.344624
O73   O     O_3   0.704426 0.135983 0.486660 -0.646699
H61   H     H_    0.691651 0.112737 0.519786 0.319180
O74   O     O_3   0.309798 0.133487 0.514440 -0.633316
H62   H     H_    0.315531 0.111320 0.479753 0.327758
O75   O     O_3   0.204370 0.635880 0.486664 -0.646678
H63   H     H_    0.191618 0.612609 0.519791 0.319176
O76   O     O_3   0.809234 0.633928 0.514411 -0.633281
H64   H     H_    0.815272 0.611677 0.479772 0.327647
F13   F     F_    0.710646 0.159903 0.388406 -0.625979
F14   F     F_    0.306852 0.154202 0.613382 -0.615933
F15   F     F_    0.210534 0.659826 0.388405 -0.625973
F16   F     F_    0.806160 0.654692 0.613341 -0.615699
F17   F     F_    0.843934 0.976171 0.132400 -0.536195
F18   F     F_    0.156097 0.977061 0.867896 -0.534098
F19   F     F_    0.343934 0.476171 0.132401 -0.536189
F20   F     F_    0.656097 0.477061 0.867896 -0.534140
F21   F     F_    0.710086 0.718798 0.885257 -0.589540
F22   F     F_    0.289265 0.718547 0.114407 -0.590630
F23   F     F_    0.210086 0.218798 0.885257 -0.589539
F24   F     F_    0.789266 0.218547 0.114407 -0.590626
F25   F     F_    0.850977 0.946338 0.032970 -0.567957
F26   F     F_    0.149178 0.947273 0.967301 -0.567189
F27   F     F_    0.350977 0.446338 0.032970 -0.567958
F28   F     F_    0.649178 0.447273 0.967301 -0.567192
O77   O     O_3   0.797634 0.091732 0.956378 -0.638480
H65   H     H_    0.781643 0.106434 0.989603 0.340506
O78   O     O_3   0.203269 0.092254 0.044142 -0.638612
H66   H     H_    0.219318 0.107046 0.010950 0.339984
O79   O     O_3   0.297634 0.591732 0.956378 -0.638482
H67   H     H_    0.281644 0.606433 0.989603 0.340507
O80   O     O_3   0.703269 0.592254 0.044142 -0.638617
H68   H     H_    0.719318 0.607046 0.010950 0.339984

loop_
_geom_bond_atom_site_label_1
_geom_bond_atom_site_label_2
_ccdc_geom_bond_type
C9    H30   S    
C99   C103  A    
C7    C168  A    
O77   H65   S    
C55   C59   A    
C142  C146  A    
C77   C101  A    
C19   C20   A    
C175  H19   S    
C53   C69   A    
C38   C70   S    
O75   H63   S    
C36   F28   S    
C136  O48   A    
O61   H49   S    
C108  C164  S    
Cr12  O40   S    
C60   F24   S    
Cr7   O27   S    
C31   F19   S    
C26   C50   A    
C95   C99   A    
C111  O67   S    
Cr5   O29   S    
C92   O4    A    
C29   C33   A    
C100  C104  A    
C133  O49   A    
C3    C74   S    
C9    C13   A    
C53   H37   S    
Cr2   O18   S    
C131  C151  A    
C12   C16   A    
C56   C72   A    
C169  C174  A    
C99   O64   S    
C97   O62   S    
C144  O72   S    
C142  O70   S    
C86   H14   S    
C161  O13   A    
C172  C175  A    
C141  C145  A    
C138  C154  A    
C6    C165  A    
C21   C22   A    
Cr8   O20   S    
C91   O39   A    
C2    O26   A    
C41   C49   A    
C34   F26   S    
C18   C170  A    
C25   C29   A    
C22   H33   S    
C56   H40   S    
C27   C31   A    
C28   C32   A    
C4    O24   A    
Cr10  O14   S    
C30   C34   A    
C167  C171  A    
C126  F14   S    
O73   H61   S    
C60   C76   A    
C51   F3    S    
Cr12  O12   S    
C78   C82   A    
O62   H50   S    
C54   C70   A    
Cr3   O47   S    
C16   C20   A    
C165  H2    S    
C137  C153  A    
Cr6   O26   S    
C146  H26   S    
C158  O10   A    
Cr4   O20   S    
C20   C172  A    
C138  F10   S    
C132  C152  A    
C62   H6    S    
Cr3   O3    S    
C130  C138  A    
C123  C127  A    
C48   O32   A    
C84   C88   A    
Cr7   O51   S    
C119  C123  A    
C26   C90   S    
C5    C46   S    
C105  C125  A    
C7    C48   S    
C176  H20   S    
C8    C47   S    
C107  C127  A    
C136  C153  S    
C131  F7    S    
C66   C70   A    
C59   F23   S    
C35   F27   S    
C143  O71   S    
Cr5   O17   S    
Cr6   O6    S    
O74   H62   S    
C92   O40   A    
C61   C65   A    
C129  C137  A    
C160  O8    A    
C163  O43   A    
O78   H66   S    
C174  H18   S    
C39   C71   S    
C117  C149  S    
C122  O74   S    
C55   C71   A    
C2    C75   S    
C46   O30   A    
C6    C9    A    
C42   O54   S    
Cr9   O37   S    
Cr6   O50   S    
Cr10  O34   S    
C121  C125  A    
C141  O69   S    
C64   C68   A    
C3    O23   A    
Cr2   O2    S    
C147  H27   S    
C137  F9    S    
C118  C122  A    
C55   H39   S    
Cr11  O19   S    
C85   C93   A    
C78   C158  S    
Cr9   O9    S    
C87   C95   A    
C130  C150  A    
C23   C24   A    
C27   C91   S    
C65   O77   S    
C110  C114  A    
C135  O47   A    
C121  O73   S    
C44   C52   A    
C112  O68   S    
C58   F22   S    
C146  C150  A    
C79   C103  A    
C11   C15   A    
C148  H28   S    
C27   C51   A    
C7    C12   A    
Cr6   O30   S    
C133  O45   A    
C62   C66   A    
C10   C14   A    
C102  H9    S    
C108  C128  A    
C116  C120  A    
C91   O3    A    
C144  C156  A    
C147  C151  A    
C129  C149  A    
O57   H45   S    
C37   C69   S    
C45   O33   A    
C139  C155  A    
C17   C18   A    
C5    C166  A    
C88   H16   S    
C127  F15   S    
C4    C73   S    
C42   C50   A    
C113  C117  A    
C100  O63   S    
C123  O75   S    
C107  C163  S    
C166  C170  A    
C115  C119  A    
C105  C161  S    
C4    O28   A    
C61   H5    S    
Cr10  O18   S    
C58   C74   A    
C24   H35   S    
C44   O56   S    
C105  C109  A    
C40   C72   S    
C1    C76   S    
C107  C111  A    
C148  C152  A    
Cr1   O41   S    
C26   C30   A    
Cr3   O43   S    
Cr8   O52   S    
C171  C176  A    
C115  H23   S    
C166  H1    S    
C14   C22   A    
C113  H21   S    
C57   F21   S    
C158  O6    A    
Cr4   O24   S    
C141  C153  A    
C63   C75   A    
C64   H8    S    
C89   O37   A    
C103  H12   S    
Cr8   O28   S    
C37   C41   A    
C131  C139  A    
C40   C44   A    
C56   C60   A    
O54   H42   S    
C90   O2    A    
C142  C154  A    
C81   C85   A    
C10   H29   S    
Cr7   O7    S    
C83   C87   A    
C88   C96   A    
C6    C45   S    
C93   C97   A    
C78   C102  A    
C133  C156  S    
C140  F12   S    
C132  F8    S    
C112  C116  A    
C80   C84   A    
Cr1   O45   S    
C15   C19   A    
Cr8   O32   S    
C135  C154  S    
C80   C104  A    
C135  O51   A    
C136  O52   A    
C82   O58   S    
Cr6   O18   S    
C79   C159  S    
C80   C160  S    
C94   C98   A    
O59   H47   S    
C118  C150  S    
Cr8   O8    S    
Cr1   O17   S    
C47   O31   A    
O80   H68   S    
C162  O14   A    
C85   H13   S    
C124  C128  A    
C84   O60   S    
Cr10  O38   S    
O68   H56   S    
C165  C169  A    
C159  O7    A    
C128  F16   S    
C87   H15   S    
C1    O25   A    
C33   F25   S    
C21   H34   S    
O64   H52   S    
C134  O50   A    
Cr11  O15   S    
C1    O21   A    
O58   H46   S    
C53   C57   A    
Cr9   O13   S    
C61   C73   A    
C173  C174  A    
C125  F13   S    
C33   C37   A    
C108  C112  A    
C35   C39   A    
O60   H48   S    
O55   H43   S    
C124  O76   S    
Cr3   O23   S    
O76   H64   S    
C77   C81   A    
Cr1   O21   S    
C29   F17   S    
Cr7   O19   S    
Cr4   O44   S    
Cr5   O25   S    
C145  H25   S    
C83   O59   S    
C157  O9    A    
C139  F11   S    
Cr7   O31   S    
C63   H7    S    
Cr12  O16   S    
C164  O16   A    
C32   C36   A    
C90   O38   A    
Cr11  O11   S    
C45   O29   A    
C13   C17   A    
C132  C140  A    
C106  C126  A    
C25   C89   S    
C143  C155  A    
C161  O41   A    
O70   H58   S    
C116  H24   S    
O72   H60   S    
C98   C102  A    
C79   C83   A    
C43   C51   A    
O67   H55   S    
C65   C69   A    
C110  O66   S    
C67   C71   A    
C106  C162  S    
O69   H57   S    
C25   C49   A    
Cr5   O5    S    
C168  C172  A    
O63   H51   S    
C159  O11   A    
C62   C74   A    
C173  H17   S    
C145  C149  A    
Cr2   O42   S    
C170  C173  A    
C129  F5    S    
O66   H54   S    
C93   C94   S    
O71   H59   S    
C14   C18   A    
C49   F1    S    
C95   C96   S    
C144  C148  A    
Cr9   O33   S    
O65   H53   S    
C143  C147  A    
C167  H4    S    
C168  H3    S    
C8    C167  A    
C19   C171  A    
C38   C42   A    
C41   O53   S    
C2    O22   A    
Cr1   O1    S    
C17   C169  A    
C57   C73   A    
C96   C100  A    
C98   O61   S    
C81   O57   S    
C54   H38   S    
C117  C121  A    
C86   C94   A    
Cr10  O10   S    
C66   O78   S    
C175  C176  A    
Cr2   O22   S    
C50   F2    S    
C12   H31   S    
C68   C72   A    
Cr2   O46   S    
C15   C23   A    
C164  O44   A    
C16   C24   A    
C32   F20   S    
C52   F4    S    
C119  C151  S    
C63   C67   A    
C120  C152  S    
C13   C21   A    
C130  F6    S    
C36   C40   A    
C101  H10   S    
C39   C43   A    
C47   O35   A    
O53   H41   S    
C48   O36   A    
C122  C126  A    
Cr11  O39   S    
C64   C76   A    
C28   C92   S    
C163  O15   A    
C114  C118  A    
C140  C156  A    
O56   H44   S    
C134  O46   A    
C104  H11   S    
C59   C75   A    
Cr9   O17   S    
C54   C58   A    
C134  C155  S    
Cr4   O4    S    
C160  O12   A    
C34   C38   A    
C67   O79   S    
Cr3   O19   S    
C68   O80   S    
C109  C113  A    
C46   O34   A    
C162  O42   A    
O79   H67   S    
Cr12  O36   S    
C82   C86   A    
C114  H22   S    
C5    C10   A    
Cr4   O48   S    
Cr5   O49   S    
C28   C52   A    
C157  O5    A    
C8    C11   A    
Cr11  O35   S    
Cr12  O20   S    
C31   C35   A    
C3    O27   A    
C23   H36   S    
C106  C110  A    
C109  O65   S    
C111  C115  A    
C89   O1    A    
C11   H32   S    
C97   C101  A    
C120  C124  A    
C77   C157  S    
C30   F18   S    
C43   O55   S    
