data_mof_unit_11007.cif
_audit_creation_date              2012-12-11T15:26:47-0500
_audit_creation_method            fapswitch 2.2
_symmetry_space_group_name_H-M    P1
_symmetry_Int_Tables_number       1
_space_group_crystal_system       triclinic
_cell_length_a                    8.620744
_cell_length_b                    15.198882
_cell_length_c                    19.155016
_cell_angle_alpha                 99.140826
_cell_angle_beta                  94.151727
_cell_angle_gamma                 98.646634
_cell_volume                      2437.81605901

loop_
_atom_site_label
_atom_site_type_symbol
_atom_type_description
_atom_site_fract_x
_atom_site_fract_y
_atom_site_fract_z
_atom_type_partial_charge
Ba1   Ba    Ba6+2 0.161750 0.544670 0.467760 1.842542
Ba2   Ba    Ba6+2 0.648430 0.455320 0.532180 1.847229
C1    C     C_3   0.320507 0.755701 0.208097 0.375468
C2    C     C_3   0.345576 0.736185 0.285699 0.403155
C3    C     C_3   0.570512 0.726737 0.649236 0.275879
C4    C     C_3   0.614358 0.827515 0.676043 -0.263506
C5    C     C_3   0.744138 0.209990 0.687940 0.252500
C6    C     C_3   0.645402 0.142746 0.725689 0.394591
C7    C     C_3   0.238850 0.223064 0.694818 0.324368
C8    C     C_3   0.254507 0.216586 0.773284 -0.264782
C9    C     C_R   0.636343 0.829053 0.466807 0.091512
C10   C     C_R   0.883266 0.790240 0.517142 0.009070
C11   C     C_R   0.077411 0.222721 0.498303 -0.117070
C12   C     C_3   0.928938 0.776123 0.262255 0.711394
C13   C     C_R   0.164041 0.165821 0.528161 -0.009863
C14   C     C_R   0.096199 0.076179 0.527244 -0.108782
C15   C     C_R   0.939191 0.042290 0.497438 0.051409
C16   C     C_R   0.848163 0.105527 0.471495 -0.048364
C17   C     C_R   0.869202 0.948113 0.494319 0.047084
C18   C     C_R   0.707935 0.920368 0.468856 -0.022894
C19   C     C_R   0.623190 0.983441 0.443479 -0.008896
C20   C     C_R   0.692639 0.072469 0.442899 -0.016101
C21   C     C_R   0.955130 0.879748 0.513498 -0.020639
C22   C     C_R   0.722417 0.767076 0.493518 -0.218468
C23   C     C_3   0.947634 0.829983 0.200913 -0.283709
C24   C     C_R   0.917622 0.199143 0.473732 -0.013476
C25   C     C_R   0.616965 0.515989 0.297402 -0.174658
C26   C     C_R   0.462119 0.475592 0.273693 0.000764
C27   C     C_R   0.411170 0.459494 0.200511 -0.146032
C28   C     C_R   0.516666 0.483784 0.150830 -0.009247
C29   C     C_R   0.674601 0.520853 0.176281 -0.000963
C30   C     C_R   0.722778 0.539211 0.249378 0.154433
C31   C     C_R   0.519427 0.542066 0.034751 -0.048187
C32   C     C_R   0.469755 0.535341 0.962589 -0.036912
C33   C     C_R   0.362254 0.460438 0.925976 0.055445
C34   C     C_3   0.923853 0.259739 0.315488 0.273044
C35   C     C_R   0.306189 0.392186 0.964308 -0.052502
C36   C     C_R   0.355550 0.399221 0.036992 -0.040866
C37   C     C_R   0.463070 0.474394 0.073281 0.037925
C38   C     C_R   0.143670 0.422639 0.824335 -0.148338
C39   C     C_R   0.082275 0.434055 0.757002 0.024347
C40   C     C_R   0.343135 0.507552 0.735431 -0.019415
C41   C     C_R   0.404065 0.495262 0.802606 -0.159872
C42   C     C_R   0.303400 0.457555 0.849666 -0.002168
C43   C     C_R   0.178832 0.483854 0.717433 0.185125
C44   C     C_3   0.896947 0.206788 0.239566 0.463786
C45   C     C_3   0.114208 0.807289 0.699510 0.617506
C46   C     C_3   0.055061 0.834499 0.772782 0.230347
C47   C     C_3   0.407249 0.266974 0.320642 0.212830
C48   C     C_3   0.364258 0.176444 0.271192 -0.285298
H1    H     H_    0.233802 0.703353 0.301126 0.002794
H2    H     H_    0.013397 0.193712 0.222994 -0.008568
H3    H     H_    0.223985 0.781795 0.711427 0.050438
H4    H     H_    0.955940 0.872321 0.767229 0.083974
H5    H     H_    0.150603 0.879957 0.809147 0.073844
H6    H     H_    0.426658 0.252802 0.374894 0.093813
H7    H     H_    0.516027 0.305122 0.305630 0.098348
H8    H     H_    0.195845 0.742512 0.188825 0.008809
H9    H     H_    0.253478 0.138463 0.285120 0.115799
H10   H     H_    0.459467 0.135896 0.276986 0.161301
H11   H     H_    0.347473 0.186784 0.215159 0.152496
H12   H     H_    0.422875 0.684430 0.286079 0.065419
H13   H     H_    0.364471 0.704644 0.170196 0.030353
H14   H     H_    0.678610 0.700346 0.633823 0.044178
H15   H     H_    0.483101 0.716415 0.601937 0.006349
H16   H     H_    0.701836 0.839824 0.722864 0.158403
H17   H     H_    0.664071 0.862303 0.633966 0.073263
H18   H     H_    0.509059 0.855716 0.692344 0.186397
H19   H     H_    0.873504 0.883820 0.203706 0.189400
H20   H     H_    0.661835 0.244500 0.659405 0.057139
H21   H     H_    0.811336 0.173461 0.648640 0.004504
H22   H     H_    0.562263 0.093820 0.685646 0.045580
H23   H     H_    0.577527 0.179825 0.764104 0.054657
H24   H     H_    0.125386 0.181063 0.670206 0.061964
H25   H     H_    0.237411 0.294915 0.690056 -0.077297
H26   H     H_    0.151376 0.238008 0.798319 0.126279
H27   H     H_    0.362954 0.261202 0.800310 0.081865
H28   H     H_    0.259779 0.145965 0.780056 0.205339
H29   H     H_    0.664077 0.698987 0.493902 0.033346
H30   H     H_    0.500630 0.964884 0.423006 0.124912
H31   H     H_    0.080087 0.894648 0.523453 0.174958
H32   H     H_    0.168491 0.034943 0.551066 0.132333
H33   H     H_    0.621513 0.115229 0.419880 0.104877
H34   H     H_    0.528019 0.518789 0.819237 0.125850
H35   H     H_    0.512651 0.590621 0.936008 0.102505
H36   H     H_    0.599789 0.601812 0.060787 0.087807
H37   H     H_    0.290399 0.428533 0.182729 0.119522
H38   H     H_    0.224660 0.332950 0.938137 0.096740
H39   H     H_    0.310876 0.345273 0.064584 0.095340
H40   H     H_    0.065486 0.389524 0.857413 0.113693
H41   H     H_    0.759078 0.539078 0.139722 0.074653
H42   H     H_    0.656572 0.528369 0.353558 0.046288
H43   H     H_    0.069597 0.865122 0.203032 0.158894
H44   H     H_    0.918333 0.784918 0.148517 0.120626
H45   H     H_    0.992342 0.326207 0.314701 0.113884
H46   H     H_    0.994998 0.220837 0.346022 -0.086864
O1    O     O_2   0.164990 0.721870 0.541490 -0.454749
O2    O     O_3   0.279007 0.312980 0.317767 -0.643764
O3    O     O_3   0.983417 0.693028 0.241735 -0.669636
O4    O     O_2   0.645300 0.278070 0.458480 -0.485179
O5    O     O_3   0.917280 0.391520 0.460790 -0.420818
O6    O     O_3   0.421200 0.332510 0.586090 -0.453145
O7    O     O_3   0.782419 0.273028 0.344912 -0.636998
O8    O     O_3   0.383620 0.545480 0.584560 -0.465455
O9    O     O_3   0.845920 0.377940 0.622610 -0.436971
O10   O     O_2   0.752762 0.427164 0.752687 -0.452049
O11   O     O_3   0.849427 0.270885 0.738703 -0.623466
O12   O     O_3   0.893010 0.608480 0.539150 -0.423428
O13   O     O_3   0.426680 0.454510 0.415380 -0.471076
O14   O     O_2   0.638220 0.542340 0.670930 -0.390414
O15   O     O_3   0.506569 0.685264 0.703654 -0.584561
O16   O     O_2   0.495603 0.168401 0.543924 -0.521447
O17   O     O_3   0.366047 0.190804 0.663048 -0.624330
O18   O     O_3   0.389100 0.667490 0.413860 -0.502171
O19   O     O_2   0.310573 0.824231 0.465124 -0.462190
O20   O     O_3   0.993218 0.739532 0.656505 -0.591394
O21   O     O_3   0.404813 0.813857 0.336886 -0.513502
O22   O     O_2   0.172070 0.457600 0.329050 -0.430405
O23   O     O_3   0.964370 0.622050 0.377340 -0.464480
O24   O     O_2   0.033893 0.536592 0.253888 -0.458193
P1    P     P_3+3 0.990670 0.707470 0.561860 1.139293
P2    P     P_3+3 0.340140 0.430100 0.338890 1.019118
P3    P     P_3+3 0.921635 0.599807 0.283505 1.063066
P4    P     P_3+3 0.819620 0.292520 0.438080 1.017269
P5    P     P_3+3 0.879815 0.379180 0.716283 1.045832
P6    P     P_3+3 0.435137 0.784080 0.421876 1.067600
P7    P     P_3+3 0.468941 0.568019 0.675191 1.089774
P8    P     P_3+3 0.362271 0.213814 0.576682 0.947543
I1    I     I_    0.758703 0.077203 0.235430 -0.241723
S1    S     S_3+6 0.816934 0.266966 0.176340 -0.059688
O25   O     O_2   0.920840 0.356572 0.179823 -0.315601
O26   O     O_2   0.811998 0.212429 0.103210 -0.236495
O27   O     O_3   0.633789 0.283784 0.192417 -0.561496
H47   H     H_    0.585580 0.295760 0.146749 0.352476
S2    S     S_3+6 0.185151 0.910554 0.669128 -0.161898
O28   O     O_2   0.051019 0.956919 0.649638 -0.327396
O29   O     O_2   0.289235 0.972397 0.729154 -0.319763
O30   O     O_3   0.297396 0.891925 0.602016 -0.570453
H48   H     H_    0.364117 0.950942 0.601647 0.346386
S3    S     S_3+6 0.993570 0.741531 0.816623 -0.018210
O31   O     O_2   0.971015 0.777507 0.892364 -0.254108
O32   O     O_2   0.839260 0.689166 0.780458 -0.228109
O33   O     O_3   0.129900 0.673212 0.816056 -0.471928
H49   H     H_    0.230377 0.713515 0.834610 0.327236
S4    S     S_3+6 0.393949 0.866725 0.190594 0.002697
O34   O     O_2   0.393413 0.938265 0.254478 -0.257015
O35   O     O_2   0.557164 0.870590 0.167643 -0.220942
O36   O     O_3   0.277317 0.887601 0.122949 -0.511817
H50   H     H_    0.315212 0.951373 0.119211 0.378443
S5    S     S_3+6 0.759721 0.078980 0.773171 -0.041052
O37   O     O_2   0.832577 0.017820 0.720424 -0.299269
O38   O     O_2   0.886639 0.139896 0.824477 -0.251700
O39   O     O_3   0.639039 0.016411 0.818393 -0.473652
H51   H     H_    0.704895 0.976561 0.838413 0.370749
I2    I     I_    0.062501 0.861234 0.351397 -0.361911
I3    I     I_    0.206813 0.333986 0.472595 -0.265816
S6    S     S_3+6 0.730198 0.763861 0.278797 -0.124234
O40   O     O_2   0.705499 0.716838 0.341040 -0.412219
O41   O     O_2   0.685162 0.855998 0.295308 -0.235470
O42   O     O_3   0.625390 0.701838 0.205678 -0.609040
H52   H     H_    0.667386 0.725785 0.164578 0.338823
S7    S     S_3+6 0.086317 0.540651 0.660298 -0.032475
O43   O     O_2   0.071118 0.487733 0.586909 -0.294209
O44   O     O_2   0.929039 0.558218 0.680939 -0.193257
O45   O     O_3   0.197583 0.639582 0.668670 -0.571194
H53   H     H_    0.231350 0.643908 0.622007 0.348705

loop_
_geom_bond_atom_site_label_1
_geom_bond_atom_site_label_2
_ccdc_geom_bond_type
C46   H5    S    
Ba2   O13   S    
C23   H43   S    
O45   H53   S    
C6    S5    S    
C2    H12   S    
C12   I2    S    
S2    O30   S    
C35   H38   S    
C17   C21   A    
C17   C18   A    
C16   C24   A    
S3    O33   S    
O12   P1    S    
C41   C42   A    
C44   I1    S    
S4    O34   D    
C8    H28   S    
S2    O28   D    
O17   P8    S    
C46   H4    S    
C10   C21   A    
C31   C37   A    
O19   P6    D    
C34   O7    S    
C48   H9    S    
C26   C27   A    
C33   C35   A    
C35   C36   A    
S3    O32   D    
C32   C33   A    
O6    P8    S    
C5    H21   S    
C3    C4    S    
O18   P6    S    
C26   P2    S    
O13   P2    S    
Ba2   O6    S    
O33   H49   S    
C44   H2    S    
C9    C22   A    
C47   H7    S    
O2    P2    S    
Ba1   Ba2   S    
O22   P2    D    
Ba1   P2    S    
O1    P1    D    
Ba1   O13   S    
C47   O2    S    
C8    H26   S    
S6    O40   D    
C10   P1    S    
C29   C30   A    
C40   C41   A    
C14   C15   A    
S5    O39   S    
C34   C44   S    
C7    C8    S    
C38   C42   A    
O24   P3    D    
O14   P7    D    
C45   H3    S    
C4    H18   S    
Ba2   O4    S    
C23   H44   S    
S6    O41   D    
C19   C20   A    
C41   H34   S    
C30   P3    S    
C24   P4    S    
C5    H20   S    
O7    P4    S    
S4    O35   D    
C8    H27   S    
C31   C32   A    
S7    O44   D    
C45   O20   S    
C9    C18   A    
C6    H22   S    
O5    P4    S    
C27   H37   S    
O20   P1    S    
C46   S3    S    
C12   S6    S    
C39   P5    S    
C12   O3    S    
C9    P6    S    
S3    O31   D    
O11   P5    S    
C3    H15   S    
Ba1   O1    S    
C3    O15   S    
Ba2   O5    S    
C3    H14   S    
O4    P4    D    
C32   H35   S    
S1    O26   D    
C43   S7    S    
C11   I3    S    
Ba1   O23   S    
C27   C28   A    
S7    O45   S    
C34   H46   S    
C22   H29   S    
C45   C46   S    
C36   H39   S    
Ba2   O8    S    
C28   C29   A    
C14   H32   S    
C15   C16   A    
C25   H42   S    
O36   H50   S    
C33   C42   S    
Ba1   O8    S    
C40   P7    S    
C38   C39   A    
C1    S4    S    
S6    O42   S    
O23   P3    S    
C13   P8    S    
C11   C13   A    
O15   P7    S    
O27   H47   S    
S5    O38   D    
C11   C24   A    
S1    O27   S    
C23   H19   S    
Ba1   O18   S    
C1    C2    S    
Ba1   O5    S    
S4    O36   S    
O3    P3    S    
S7    O43   D    
O21   P6    S    
S2    O29   D    
Ba2   O14   S    
Ba2   P4    S    
C21   H31   S    
C45   S2    S    
C25   C30   A    
C16   C20   A    
C44   S1    S    
C1    H13   S    
C47   H6    S    
C10   C22   A    
Ba2   O9    S    
C29   H41   S    
O9    P5    S    
C2    H1    S    
C7    O17   S    
C20   H33   S    
S1    O25   D    
C48   H10   S    
C4    H17   S    
O42   H52   S    
C34   H45   S    
C36   C37   A    
O8    P7    S    
C19   H30   S    
Ba2   O12   S    
C6    H23   S    
C15   C17   A    
C28   C37   S    
C5    O11   S    
Ba1   O22   S    
C12   C23   S    
C2    O21   S    
O10   P5    D    
Ba1   P1    S    
O16   P8    D    
C5    C6    S    
O30   H48   S    
Ba1   O12   S    
C1    H8    S    
C4    H16   S    
C18   C19   A    
C47   C48   S    
C7    H24   S    
C25   C26   A    
C48   H11   S    
C39   C43   A    
S5    O37   D    
C7    H25   S    
C38   H40   S    
O39   H51   S    
C40   C43   A    
C31   H36   S    
C13   C14   A    
