data_mof_unit_22777.cif
_audit_creation_date              2012-12-10T16:48:46-0500
_audit_creation_method            fapswitch 2.2
_symmetry_space_group_name_H-M    P1
_symmetry_Int_Tables_number       1
_space_group_crystal_system       triclinic
_cell_length_a                    17.174931
_cell_length_b                    8.687875
_cell_length_c                    7.443128
_cell_angle_alpha                 102.958475
_cell_angle_beta                  90.16897
_cell_angle_gamma                 92.908467
_cell_volume                      1080.82077089

loop_
_atom_site_label
_atom_site_type_symbol
_atom_type_description
_atom_site_fract_x
_atom_site_fract_y
_atom_site_fract_z
_atom_type_partial_charge
C1    C     C_R   0.497654 0.199748 0.453632 0.885861
C2    C     C_R   0.502346 0.800252 0.546368 0.885861
C3    C     C_2   0.496512 0.031883 0.427501 -0.369223
C4    C     C_2   0.503488 0.968117 0.572498 -0.369222
C5    C     C_R   0.350891 0.497323 0.525539 0.810979
C6    C     C_R   0.649109 0.502678 0.474461 0.810981
C7    C     C_R   0.266231 0.480998 0.539576 -0.133035
C8    C     C_R   0.733769 0.519010 0.460424 -0.133038
C9    C     C_R   0.222671 0.399076 0.385369 -0.178151
C10   C     C_R   0.777328 0.600935 0.614630 -0.178152
C11   C     C_R   0.141975 0.385511 0.390988 0.148611
C12   C     C_R   0.858023 0.614509 0.609009 0.148611
C13   C     C_R   0.103516 0.458241 0.552935 0.111772
C14   C     C_R   0.896483 0.541785 0.447062 0.111773
C15   C     C_R   0.147212 0.534074 0.712401 0.200090
C16   C     C_R   0.852788 0.465950 0.287596 0.200094
C17   C     C_R   0.228716 0.544039 0.704279 -0.198115
C18   C     C_R   0.771284 0.455975 0.295720 -0.198114
C19   C     C_2   0.018305 0.460224 0.553203 -0.231621
C20   C     C_2   0.981694 0.539806 0.446794 -0.231617
Cu1   Cu    Cu3+1 0.508700 0.517250 0.683000 0.950520
Cu2   Cu    Cu3+1 0.491300 0.482750 0.317000 0.950520
H1    H     H_    0.251421 0.344443 0.259387 0.174499
H2    H     H_    0.748576 0.655564 0.740613 0.174500
H3    H     H_    0.737196 0.394923 0.175724 0.162194
H4    H     H_    0.262805 0.605090 0.824275 0.162192
H5    H     H_    0.014109 0.598074 0.353397 0.163218
H6    H     H_    0.985890 0.401955 0.646599 0.163217
H7    H     H_    0.489925 0.960410 0.287723 0.179317
H8    H     H_    0.510075 0.039590 0.712277 0.179317
H9    H     H_    0.439049 0.378974 0.958265 0.225586
H10   H     H_    0.560951 0.621026 0.041735 0.225586
N1    N     N_2   0.478180 0.456750 0.041980 -0.218419
N2    N     N_2   0.521820 0.543250 0.958020 -0.218419
O1    O     O_R   0.505650 0.286040 0.618880 -0.582495
O2    O     O_R   0.494350 0.713960 0.381120 -0.582495
O3    O     O_R   0.490960 0.256910 0.309800 -0.587606
O4    O     O_R   0.509040 0.743090 0.690200 -0.587606
O5    O     O_R   0.394600 0.516230 0.672450 -0.589624
O6    O     O_R   0.605400 0.483770 0.327550 -0.589625
O7    O     O_R   0.379910 0.487100 0.363380 -0.584619
O8    O     O_R   0.620090 0.512900 0.636620 -0.584619
C21   C     C_3   0.107867 0.609690 0.888486 -0.887799
H11   H     H_    0.073284 0.708099 0.865178 0.238115
H12   H     H_    0.068691 0.520721 0.933876 0.220664
H13   H     H_    0.150763 0.658385 0.001469 0.236667
C22   C     C_3   0.892134 0.390342 0.111509 -0.887819
H14   H     H_    0.926718 0.291936 0.134810 0.238117
H15   H     H_    0.849239 0.341650 0.998525 0.236670
H16   H     H_    0.931307 0.479316 0.066124 0.220668
N3    N     N_3   0.899351 0.705618 0.768409 -0.597375
H17   H     H_    0.936820 0.789744 0.727663 0.227675
H18   H     H_    0.932438 0.630608 0.825309 0.222315
N4    N     N_3   0.100646 0.294404 0.231589 -0.597375
H19   H     H_    0.067564 0.369416 0.174684 0.222315
H20   H     H_    0.063171 0.210287 0.272340 0.227675

loop_
_geom_bond_atom_site_label_1
_geom_bond_atom_site_label_2
_ccdc_geom_bond_type
C7    C17   A    
C2    C4    S    
C21   H11   S    
H9    N1    S    
C15   C17   A    
Cu1   O1    S    
C20   H5    S    
C8    C18   A    
C9    C11   A    
C2    O4    A    
C19   C20   D    
Cu1   O5    S    
C1    O3    A    
Cu2   O6    S    
C5    O5    A    
N1    N2    D    
C3    C4    D    
C15   C21   S    
N3    H17   S    
C22   H15   S    
C16   C18   A    
Cu1   Cu2   S    
C19   H6    S    
C11   C13   A    
C3    H7    S    
C6    O6    A    
C18   H3    S    
C10   C12   A    
C17   H4    S    
C16   C22   S    
C8    C10   A    
C12   C14   A    
C22   H16   S    
C14   C16   A    
C13   C15   A    
C21   H13   S    
N4    H20   S    
Cu2   O7    S    
C13   C19   S    
N3    H18   S    
Cu1   O8    S    
C14   C20   S    
C12   N3    S    
Cu2   O2    S    
C1    O1    A    
C7    C9    A    
C6    O8    A    
C11   N4    S    
C2    O2    A    
C5    C7    S    
Cu2   N1    S    
C5    O7    A    
N4    H19   S    
C9    H1    S    
C6    C8    S    
Cu1   N2    S    
C10   H2    S    
Cu2   O3    S    
C21   H12   S    
C4    H8    S    
Cu1   O4    S    
C22   H14   S    
C1    C3    S    
H10   N2    S    
