data_mof_unit_31990.cif
_audit_creation_date              2012-12-11T17:02:16-0500
_audit_creation_method            fapswitch 2.2
_symmetry_space_group_name_H-M    P1
_symmetry_Int_Tables_number       1
_space_group_crystal_system       triclinic
_cell_length_a                    21.64246
_cell_length_b                    7.058611
_cell_length_c                    14.882462
_cell_angle_alpha                 89.869811
_cell_angle_beta                  106.441018
_cell_angle_gamma                 89.980446
_cell_volume                      2180.56204514

loop_
_atom_site_label
_atom_site_type_symbol
_atom_type_description
_atom_site_fract_x
_atom_site_fract_y
_atom_site_fract_z
_atom_type_partial_charge
O1    O     O_R   0.585850 0.505770 0.002130 -0.538663
O2    O     O_R   0.414150 0.005770 0.997870 -0.538207
O3    O     O_R   0.467530 0.173560 0.861970 -0.540669
O4    O     O_R   0.532470 0.673560 0.138030 -0.538699
C1    C     C_R   0.454460 0.344785 0.825501 0.705831
C2    C     C_R   0.545810 0.844525 0.174779 0.698276
O5    O     O_R   0.588690 0.175900 0.993250 -0.529560
O6    O     O_R   0.411310 0.675900 0.006750 -0.529186
O7    O     O_R   0.536170 0.007950 0.130090 -0.539022
O8    O     O_R   0.463830 0.507950 0.869910 -0.537493
C3    C     C_R   0.615064 0.344306 0.998132 0.733229
C4    C     C_R   0.384926 0.844376 0.002005 0.730871
O9    O     O_3   0.482630 0.339970 0.044740 -0.353300
O10   O     O_3   0.517370 0.839970 0.955260 -0.353219
V1    V     V_3+5 0.503220 0.064200 0.991700 1.526907
V2    V     V_3+5 0.496780 0.564200 0.008300 1.523508
C5    C     C_R   0.293913 0.995128 0.049799 0.093223
C6    C     C_R   0.705973 0.495455 0.950447 0.094786
C7    C     C_R   0.316813 0.850959 0.003455 -0.177479
C8    C     C_R   0.683148 0.350791 0.996830 -0.178334
C9    C     C_R   0.272485 0.712010 0.957392 -0.198887
C10   C     C_R   0.727481 0.211732 0.043340 -0.193551
H1    H     H_    0.288371 0.598158 0.920794 0.154424
H2    H     H_    0.711607 0.098442 0.080747 0.146770
C11   C     C_R   0.206297 0.727951 0.950598 0.374341
C12   C     C_R   0.793603 0.226794 0.049494 0.375494
C13   C     C_R   0.183442 0.877306 0.996298 -0.170870
C14   C     C_R   0.816521 0.376932 0.004024 -0.167983
C15   C     C_R   0.229087 0.006380 0.047954 0.005826
C16   C     C_R   0.770914 0.507083 0.952809 0.007463
C17   C     C_3   0.229636 0.217589 0.039110 -0.137367
C18   C     C_3   0.770376 0.717674 0.963456 -0.148872
C19   C     C_3   0.300647 0.204008 0.041821 0.261941
C20   C     C_3   0.699146 0.704127 0.959133 0.260552
H3    H     H_    0.198512 0.264264 0.970050 0.194081
H4    H     H_    0.800975 0.760396 0.033348 0.195599
H5    H     H_    0.309799 0.246849 0.974792 0.064963
H6    H     H_    0.689284 0.745366 0.025826 0.064790
C21   C     C_R   0.928550 0.889022 0.722048 -0.124570
C22   C     C_R   0.070142 0.383855 0.277042 -0.127765
C23   C     C_R   0.573956 0.859171 0.276777 -0.042089
C24   C     C_R   0.423257 0.355466 0.724604 -0.034100
C25   C     C_R   0.940867 0.911993 0.565484 -0.185083
C26   C     C_R   0.058522 0.332670 0.431966 -0.182306
C27   C     C_R   0.968412 0.902244 0.662452 0.388828
C28   C     C_R   0.030582 0.355984 0.335988 0.386854
C29   C     C_R   0.861573 0.893126 0.683782 -0.202145
C30   C     C_R   0.136598 0.403452 0.315373 -0.211224
C31   C     C_R   0.833015 0.921616 0.587057 0.141246
C32   C     C_R   0.165222 0.399206 0.412895 0.134329
C33   C     C_R   0.873636 0.918631 0.527435 0.047049
C34   C     C_R   0.125487 0.347269 0.470149 0.051695
C35   C     C_R   0.765031 0.944433 0.547436 -0.030680
C36   C     C_R   0.232793 0.427044 0.454327 -0.021258
C37   C     C_R   0.738111 0.910895 0.449959 -0.008320
C38   C     C_R   0.259976 0.377887 0.550191 -0.000961
C39   C     C_R   0.780049 0.918366 0.392450 -0.136877
C40   C     C_R   0.219620 0.301438 0.600808 -0.134408
C41   C     C_R   0.846606 0.924749 0.430580 -0.098349
C42   C     C_R   0.153268 0.298123 0.563451 -0.101379
C43   C     C_R   0.724272 0.016347 0.599237 0.354105
C44   C     C_R   0.274526 0.500973 0.404303 0.347685
C45   C     C_R   0.656736 0.015510 0.560497 0.084159
C46   C     C_R   0.341359 0.465777 0.437199 0.067440
C47   C     C_R   0.629589 0.959648 0.466015 0.035529
C48   C     C_R   0.367905 0.405415 0.530990 0.043974
C49   C     C_R   0.669910 0.895073 0.411394 0.045866
C50   C     C_R   0.327610 0.394054 0.591276 0.048628
C51   C     C_R   0.562690 0.977202 0.423224 -0.143237
C52   C     C_R   0.434292 0.367265 0.567866 -0.140256
C53   C     C_R   0.536226 0.937286 0.328985 -0.188148
C54   C     C_R   0.460729 0.332570 0.663070 -0.188335
C55   C     C_R   0.639794 0.820672 0.319688 0.102199
C56   C     C_R   0.357101 0.399486 0.689838 0.101457
H7    H     H_    0.877015 0.930074 0.383918 0.184833
H8    H     H_    0.123819 0.246552 0.606348 0.180228
H9    H     H_    0.485613 0.966500 0.296521 0.153135
H10   H     H_    0.511722 0.301905 0.689786 0.137900
H11   H     H_    0.972040 0.916252 0.519890 0.163628
H12   H     H_    0.028016 0.299681 0.476482 0.164173
H13   H     H_    0.832084 0.872170 0.730217 0.157971
H14   H     H_    0.165476 0.412299 0.267529 0.164123
H15   H     H_    0.761872 0.929026 0.317189 0.162993
H16   H     H_    0.238949 0.240731 0.669757 0.157182
H17   H     H_    0.530272 0.032752 0.460221 0.133521
H18   H     H_    0.466521 0.364730 0.524068 0.128585
O11   O     O_R   0.036080 0.231270 0.130120 -0.538552
O12   O     O_R   0.963920 0.731270 0.869880 -0.538978
O13   O     O_R   0.911300 0.558970 0.006750 -0.549725
O14   O     O_R   0.088700 0.058970 0.993250 -0.547551
C57   C     C_R   0.885162 0.389707 0.003889 0.798771
C58   C     C_R   0.114836 0.889797 0.996263 0.798688
O15   O     O_R   0.032450 0.561140 0.138040 -0.534324
O16   O     O_R   0.967550 0.061140 0.861960 -0.531003
O17   O     O_R   0.085870 0.728910 0.002130 -0.522143
O18   O     O_R   0.914130 0.228910 0.997870 -0.519805
C59   C     C_R   0.043603 0.392241 0.175217 0.760903
C60   C     C_R   0.955437 0.892955 0.824521 0.765435
O19   O     O_3   0.017320 0.394650 0.955270 -0.363796
O20   O     O_3   0.982680 0.894650 0.044730 -0.364047
V3    V     V_3+5 0.996780 0.670490 0.008300 1.586598
V4    V     V_3+5 0.003220 0.170490 0.991700 1.594100
C61   C     C_3   0.613427 0.076853 0.619601 -0.635013
H19   H     H_    0.576432 0.966558 0.617296 0.201988
H20   H     H_    0.639175 0.095020 0.694746 0.281768
H21   H     H_    0.589536 0.212977 0.592570 0.187725
C62   C     C_3   0.384572 0.504722 0.374993 -0.617508
H22   H     H_    0.410849 0.373522 0.367121 0.208327
H23   H     H_    0.357675 0.549654 0.303259 0.282374
H24   H     H_    0.419680 0.617819 0.406317 0.194536
Cl1   Cl    Cl    0.052900 0.906183 0.707135 -0.610773
Cl2   Cl    Cl    0.946284 0.345141 0.291743 -0.602496
Cl3   Cl    Cl    0.756867 0.163039 0.698419 -0.702506
Cl4   Cl    Cl    0.247100 0.675832 0.315883 -0.694177
Cl5   Cl    Cl    0.152578 0.576270 0.871985 -0.616492
Cl6   Cl    Cl    0.847115 0.071354 0.126380 -0.625695
C63   C     C_3   0.214518 0.318920 0.121057 -0.563955
H25   H     H_    0.228016 0.470619 0.121059 0.244544
H26   H     H_    0.162031 0.310582 0.112545 0.175338
H27   H     H_    0.240620 0.253653 0.189295 0.246007
C64   C     C_3   0.786406 0.823391 0.883309 -0.543574
H28   H     H_    0.772839 0.974727 0.884649 0.249981
H29   H     H_    0.838994 0.815633 0.892591 0.176137
H30   H     H_    0.760631 0.761188 0.814367 0.245401
Cl7   Cl    Cl    0.358348 0.297217 0.143034 -0.659787
Cl8   Cl    Cl    0.642384 0.800344 0.857265 -0.640621
C65   C     C_3   0.673072 0.681895 0.271055 -0.777033
H31   H     H_    0.683361 0.749922 0.209480 0.186362
H32   H     H_    0.717754 0.622312 0.318945 0.232572
H33   H     H_    0.641535 0.557387 0.246509 0.216058
C66   C     C_3   0.322443 0.479612 0.756987 -0.781234
H34   H     H_    0.275609 0.546081 0.720795 0.240393
H35   H     H_    0.315617 0.367405 0.805711 0.187109
H36   H     H_    0.350823 0.596994 0.798114 0.210334

loop_
_geom_bond_atom_site_label_1
_geom_bond_atom_site_label_2
_ccdc_geom_bond_type
C48   C50   A    
C1    C24   S    
C45   C47   A    
C28   Cl2   S    
C13   C15   A    
C5    C15   A    
O1    C3    A    
C66   H36   S    
O2    C4    A    
C2    O7    A    
O12   V3    S    
O3    V1    S    
C29   C31   A    
C66   H35   S    
O5    C3    A    
C32   C36   A    
C18   H4    S    
C7    C9    A    
C44   Cl4   S    
O18   V4    S    
C11   Cl5   S    
C31   C35   A    
C39   C41   A    
O16   C60   A    
C50   C56   A    
C43   C45   A    
C14   C57   S    
C51   C53   A    
O14   V4    S    
C64   H30   S    
C44   C46   A    
C34   C42   A    
C57   O18   A    
C35   C43   A    
C17   C63   S    
C38   C40   A    
C14   C16   A    
C47   C49   A    
C2    C23   S    
C32   C34   A    
C62   H22   S    
C17   C19   S    
C6    C16   A    
O13   C57   A    
C6    C8    A    
C20   Cl8   S    
C23   C53   A    
C26   C34   A    
O5    V1    S    
O6    V2    S    
C56   C66   S    
C62   H23   S    
C41   H7    S    
C5    C19   S    
O20   V4    S    
C26   C28   A    
C35   C37   A    
C36   C38   A    
C3    C8    S    
C24   C56   A    
C52   C54   A    
C26   H12   S    
C45   C61   S    
C39   H15   S    
C63   H27   S    
O15   V3    S    
C22   C59   S    
C21   C60   S    
C36   C44   A    
C31   C33   A    
C55   C65   S    
C42   H8    S    
C58   O17   A    
C19   H5    S    
C46   C48   A    
O4    V2    S    
C22   C28   A    
C65   H32   S    
C37   C39   A    
C40   H16   S    
O11   V4    S    
C6    C20   S    
O14   C58   A    
O6    C4    A    
C19   Cl7   S    
C13   C58   S    
C61   H20   S    
O1    V2    S    
O2    V1    S    
C25   C27   A    
C64   H28   S    
C25   H11   S    
C49   C55   A    
O4    C2    A    
O19   V3    S    
C8    C10   A    
C9    H1    S    
C43   Cl3   S    
C62   H24   S    
C17   H3    S    
C33   C41   A    
C66   H34   S    
C52   H18   S    
O15   C59   A    
C53   H9    S    
C51   H17   S    
C46   C62   S    
C21   C29   A    
C22   C30   A    
C9    C11   A    
O13   V3    S    
C20   H6    S    
C18   C64   S    
O3    C1    A    
C37   C49   A    
C27   Cl1   S    
C11   C13   A    
C12   C14   A    
C21   C27   A    
C63   H26   S    
O7    V1    S    
C65   H33   S    
C1    O8    A    
C15   C17   S    
C38   C50   A    
C63   H25   S    
C16   C18   S    
C25   C33   A    
C48   C52   A    
C47   C51   A    
C4    C7    S    
C30   C32   A    
O20   V3    S    
C5    C7    A    
C30   H14   S    
C61   H21   S    
C10   H2    S    
C29   H13   S    
C12   Cl6   S    
C64   H29   S    
C23   C55   A    
O17   V3    S    
O19   V4    S    
O16   V4    S    
C10   C12   A    
O9    V2    S    
C54   H10   S    
C61   H19   S    
O10   V1    S    
O8    V2    S    
C24   C54   A    
C40   C42   A    
O12   C60   A    
C65   H31   S    
C18   C20   S    
O11   C59   A    
