data_mof_unit_61500.cif
_audit_creation_date              2012-12-10T17:53:01-0500
_audit_creation_method            fapswitch 2.2
_symmetry_space_group_name_H-M    P1
_symmetry_Int_Tables_number       1
_space_group_crystal_system       triclinic
_cell_length_a                    19.611708
_cell_length_b                    19.611952
_cell_length_c                    43.087068
_cell_angle_alpha                 89.999569
_cell_angle_beta                  89.999596
_cell_angle_gamma                 90.094026
_cell_volume                      16572.2927806

loop_
_atom_site_label
_atom_site_type_symbol
_atom_type_description
_atom_site_fract_x
_atom_site_fract_y
_atom_site_fract_z
_atom_type_partial_charge
C1    C     C_R   0.999970 0.500013 0.531682 0.326437
C2    C     C_R   0.500000 0.000000 0.334382 0.505875
C3    C     C_R   0.560443 0.015348 0.582461 -0.031060
C4    C     C_R   0.984817 0.439539 0.417542 -0.031118
C5    C     C_R   0.025655 0.556921 0.582573 -0.028317
C6    C     C_R   0.556887 0.025822 0.417418 -0.028323
C7    C     C_R   0.439529 0.984964 0.582454 -0.031169
C8    C     C_R   0.499991 0.999999 0.934292 0.016728
C9    C     C_R   0.499986 1.000000 0.065972 0.017768
C10   C     C_R   0.999996 0.500061 0.934027 0.017751
C11   C     C_R   0.999993 0.500092 0.065709 0.016719
C12   C     C_R   0.999961 0.500006 0.434292 0.016780
C13   C     C_R   0.000000 0.500000 0.665618 0.505881
C14   C     C_R   0.999975 0.500013 0.565967 0.017792
C15   C     C_R   0.500009 0.000097 0.434033 0.017792
C16   C     C_R   0.499984 0.000180 0.565707 0.016773
C17   C     C_R   0.537282 0.124037 0.933004 0.046767
C18   C     C_R   0.602257 0.128616 0.946513 -0.072034
C19   C     C_R   0.624384 0.190141 0.959486 -0.097228
C20   C     C_R   0.581404 0.246914 0.959581 -0.091757
C21   C     C_R   0.516483 0.242503 0.946337 -0.100172
C22   C     C_R   0.494598 0.181421 0.932833 -0.075875
C23   C     C_R   0.439951 0.885295 0.066843 0.044936
C24   C     C_R   0.999999 0.500000 0.334412 0.506531
C25   C     C_R   0.464911 0.818699 0.070542 -0.080993
C26   C     C_R   0.430970 0.763684 0.056773 -0.100911
C27   C     C_R   0.371507 0.774683 0.039622 -0.095219
C28   C     C_R   0.346166 0.840777 0.036027 -0.102227
C29   C     C_R   0.380357 0.895983 0.049432 -0.069606
C30   C     C_R   0.885337 0.439941 0.933162 0.044960
C31   C     C_R   0.818727 0.464875 0.929476 -0.080964
C32   C     C_R   0.763735 0.430886 0.943241 -0.100902
C33   C     C_R   0.774772 0.371402 0.960370 -0.095250
C34   C     C_R   0.840881 0.346089 0.963952 -0.102275
C35   C     C_R   0.000001 0.500001 0.165589 0.506506
C36   C     C_R   0.896065 0.380331 0.950554 -0.069625
C37   C     C_R   0.123949 0.537670 0.067000 0.046773
C38   C     C_R   0.128316 0.602639 0.053469 -0.072010
C39   C     C_R   0.189780 0.624967 0.040506 -0.097219
C40   C     C_R   0.246710 0.582195 0.040443 -0.091735
C41   C     C_R   0.242513 0.517279 0.053707 -0.100195
C42   C     C_R   0.181489 0.495195 0.067201 -0.075942
C43   C     C_R   0.462703 0.875961 0.933005 0.046763
C44   C     C_R   0.397720 0.871374 0.946506 -0.072047
C45   C     C_R   0.375598 0.809850 0.959483 -0.097239
C46   C     C_R   1.000000 0.500002 0.834380 0.505832
C47   C     C_R   0.418590 0.753086 0.959589 -0.091755
C48   C     C_R   0.483519 0.757506 0.946353 -0.100162
C49   C     C_R   0.505400 0.818586 0.932846 -0.075859
C50   C     C_R   0.560020 0.114704 0.066839 0.044938
C51   C     C_R   0.535046 0.181297 0.070531 -0.080980
C52   C     C_R   0.568984 0.236313 0.056760 -0.100904
C53   C     C_R   0.628457 0.225317 0.039616 -0.095234
C54   C     C_R   0.653811 0.159226 0.036028 -0.102246
C55   C     C_R   0.619622 0.104020 0.049434 -0.069616
C56   C     C_R   0.114657 0.560174 0.933149 0.044952
C57   C     C_R   0.499999 1.000000 0.165619 0.505832
C58   C     C_R   0.181263 0.535220 0.929478 -0.080958
C59   C     C_R   0.236255 0.569217 0.943239 -0.100897
C60   C     C_R   0.225222 0.628728 0.960349 -0.095206
C61   C     C_R   0.159116 0.654061 0.963915 -0.102242
C62   C     C_R   0.103932 0.619812 0.950522 -0.069644
C63   C     C_R   0.876010 0.462616 0.066995 0.046774
C64   C     C_R   0.871520 0.397659 0.053463 -0.072007
C65   C     C_R   0.810018 0.375462 0.040492 -0.097198
C66   C     C_R   0.753179 0.418355 0.040421 -0.091740
C67   C     C_R   0.757500 0.483258 0.053689 -0.100193
C68   C     C_R   0.499999 1.000000 0.834411 0.506506
C69   C     C_R   0.818559 0.505211 0.067191 -0.075909
C70   C     C_R   0.036432 0.624283 0.433011 0.046732
C71   C     C_R   0.101424 0.629363 0.446467 -0.072166
C72   C     C_R   0.123102 0.691037 0.459450 -0.097309
C73   C     C_R   0.079661 0.747459 0.459605 -0.091726
C74   C     C_R   0.014719 0.742544 0.446416 -0.100130
C75   C     C_R   0.993277 0.681314 0.432904 -0.075753
C76   C     C_R   0.940974 0.384769 0.566838 0.044952
C77   C     C_R   0.966596 0.318418 0.570511 -0.080970
C78   C     C_R   0.933156 0.263087 0.556749 -0.100934
C79   C     C_R   0.370683 0.129317 0.750000 0.506669
C80   C     C_R   0.873537 0.273519 0.539637 -0.095177
C81   C     C_R   0.847542 0.339365 0.536067 -0.102155
C82   C     C_R   0.881233 0.394891 0.549461 -0.069610
C83   C     C_R   0.384830 0.940938 0.433180 0.044956
C84   C     C_R   0.318423 0.966377 0.429444 -0.081051
C85   C     C_R   0.263135 0.932879 0.443214 -0.100981
C86   C     C_R   0.273666 0.873382 0.460402 -0.095260
C87   C     C_R   0.339566 0.847568 0.464037 -0.102115
C88   C     C_R   0.395046 0.881314 0.450630 -0.069516
C89   C     C_R   0.624219 0.036830 0.567001 0.046760
C90   C     C_R   0.629317 0.870683 0.250000 0.506816
C91   C     C_R   0.629055 0.101742 0.553445 -0.071987
C92   C     C_R   0.690684 0.123611 0.540482 -0.097191
C93   C     C_R   0.747310 0.080438 0.540445 -0.091739
C94   C     C_R   0.742645 0.015577 0.553733 -0.100224
C95   C     C_R   0.681458 0.993950 0.567226 -0.075980
C96   C     C_R   0.963464 0.375735 0.433010 0.046738
C97   C     C_R   0.898485 0.370708 0.446484 -0.072125
C98   C     C_R   0.876762 0.309042 0.459462 -0.097298
C99   C     C_R   0.920144 0.252576 0.459593 -0.091742
C100  C     C_R   0.985073 0.257438 0.446386 -0.100148
C101  C     C_R   0.870704 0.370704 0.750000 0.505744
C102  C     C_R   0.006560 0.318659 0.432880 -0.075805
C103  C     C_R   0.058950 0.615273 0.566836 0.044951
C104  C     C_R   0.033312 0.681614 0.570522 -0.080977
C105  C     C_R   0.066724 0.736965 0.556762 -0.100940
C106  C     C_R   0.126332 0.726564 0.539638 -0.095234
C107  C     C_R   0.152342 0.660727 0.536054 -0.102165
C108  C     C_R   0.118679 0.605181 0.549446 -0.069591
C109  C     C_R   0.615190 0.059228 0.433144 0.044958
C110  C     C_R   0.681559 0.033630 0.429502 -0.080918
C111  C     C_R   0.736862 0.067150 0.443249 -0.100892
C112  C     C_R   0.999959 0.500007 0.468728 0.330788
C113  C     C_R   0.129296 0.629296 0.250000 0.506031
C114  C     C_R   0.726384 0.126827 0.460313 -0.095216
C115  C     C_R   0.660519 0.152800 0.463850 -0.102275
C116  C     C_R   0.605021 0.119026 0.450474 -0.069674
C117  C     C_R   0.375706 0.963692 0.566981 0.046734
C118  C     C_R   0.370536 0.898654 0.553578 -0.072254
C119  C     C_R   0.308846 0.877032 0.540588 -0.097352
C120  C     C_R   0.252501 0.920572 0.540374 -0.091704
C121  C     C_R   0.257508 0.985558 0.553511 -0.100090
C122  C     C_R   0.318751 0.006947 0.567029 -0.075642
C123  C     C_R   0.629317 0.870683 0.750000 0.506672
C124  C     C_R   0.370683 0.129317 0.250000 0.506819
C125  C     C_R   0.129296 0.629296 0.750000 0.505743
C126  C     C_R   0.870704 0.370704 0.250000 0.506031
C127  C     C_R   0.370704 0.870704 0.250000 0.505744
C128  C     C_R   0.629296 0.129296 0.750000 0.506032
C129  C     C_R   0.870683 0.629317 0.250000 0.506670
C130  C     C_R   0.129317 0.370683 0.750000 0.506815
C131  C     C_R   0.629296 0.129296 0.250000 0.505743
C132  C     C_R   0.499997 0.000182 0.531271 0.330757
C133  C     C_R   0.370704 0.870704 0.750000 0.506030
C134  C     C_R   0.129317 0.370683 0.250000 0.506674
C135  C     C_R   0.870683 0.629317 0.750000 0.506818
C136  C     C_1   0.681053 0.181052 0.750000 0.009964
C137  C     C_1   0.318947 0.818948 0.250000 0.009787
C138  C     C_1   0.818926 0.681074 0.750000 0.009915
C139  C     C_1   0.181074 0.318926 0.250000 0.009673
C140  C     C_1   0.318947 0.818947 0.750000 0.009962
C141  C     C_1   0.681052 0.181052 0.250000 0.009788
C142  C     C_1   0.181074 0.318926 0.750000 0.009916
C143  C     C_R   0.500014 0.000149 0.468317 0.326416
C144  C     C_1   0.818926 0.681073 0.250000 0.009672
C145  C     C_1   0.681074 0.818926 0.250000 0.009918
C146  C     C_1   0.318926 0.181074 0.750000 0.009672
C147  C     C_1   0.818948 0.318947 0.250000 0.009964
C148  C     C_1   0.181052 0.681052 0.750000 0.009786
C149  C     C_1   0.318926 0.181074 0.250000 0.009917
C150  C     C_1   0.681074 0.818926 0.750000 0.009669
C151  C     C_1   0.181053 0.681052 0.250000 0.009963
C152  C     C_1   0.818947 0.318948 0.750000 0.009789
C153  C     C_1   0.724540 0.224539 0.750000 -0.035730
C154  C     C_R   0.499986 0.999999 0.031686 0.326369
C155  C     C_1   0.275461 0.775461 0.250000 -0.035807
C156  C     C_1   0.775460 0.724540 0.750000 -0.035460
C157  C     C_1   0.224540 0.275460 0.250000 -0.035564
C158  C     C_1   0.275460 0.775461 0.750000 -0.035732
C159  C     C_1   0.724539 0.224539 0.250000 -0.035806
C160  C     C_1   0.224540 0.275460 0.750000 -0.035460
C161  C     C_1   0.775460 0.724540 0.250000 -0.035565
C162  C     C_1   0.724540 0.775460 0.250000 -0.035458
C163  C     C_1   0.275460 0.224540 0.750000 -0.035566
C164  C     C_1   0.775461 0.275460 0.250000 -0.035730
C165  C     C_R   0.499989 0.999999 0.968731 0.330686
C166  C     C_1   0.224539 0.724539 0.750000 -0.035809
C167  C     C_1   0.275460 0.224540 0.250000 -0.035458
C168  C     C_1   0.724540 0.775460 0.750000 -0.035567
C169  C     C_1   0.224539 0.724539 0.250000 -0.035731
C170  C     C_1   0.775461 0.275461 0.750000 -0.035806
C171  C     C_R   0.499996 0.999999 0.868642 0.007126
C172  C     C_R   0.499994 1.000000 0.131445 0.009935
C173  C     C_R   0.000000 0.500018 0.868554 0.009942
C174  C     C_R   0.000003 0.500022 0.131358 0.007145
C175  C     C_R   0.999991 0.500000 0.368644 0.007068
C176  C     C_R   0.999996 0.500096 0.031270 0.330645
C177  C     C_R   0.999995 0.500003 0.631441 0.009799
C178  C     C_R   0.500004 0.000022 0.368559 0.009815
C179  C     C_R   0.499999 0.000036 0.631355 0.007071
C180  C     C_R   0.514233 0.059921 0.885047 -0.137367
C181  C     C_R   0.475611 0.943353 0.115085 -0.135630
C182  C     C_R   0.943367 0.475615 0.884917 -0.135633
C183  C     C_R   0.059900 0.514381 0.114954 -0.137349
C184  C     C_R   0.485756 0.940076 0.885047 -0.137367
C185  C     C_R   0.524371 0.056647 0.115083 -0.135633
C186  C     C_R   0.056631 0.524443 0.884912 -0.135634
C187  C     C_R   0.999997 0.500078 0.968314 0.326396
C188  C     C_R   0.940102 0.485705 0.114953 -0.137365
C189  C     C_R   0.013864 0.560009 0.385050 -0.137389
C190  C     C_R   0.976093 0.443154 0.615078 -0.135691
C191  C     C_R   0.443183 0.976068 0.384928 -0.135682
C192  C     C_R   0.559993 0.013997 0.614953 -0.137379
C193  C     C_R   0.986102 0.439994 0.385050 -0.137387
C194  C     C_R   0.023885 0.556858 0.615078 -0.135692
C195  C     C_R   0.556829 0.024003 0.384915 -0.135683
C196  C     C_R   0.439995 0.986156 0.614946 -0.137396
C197  C     C_R   0.515518 0.060369 0.917540 -0.031084
C198  C     C_R   0.500000 0.000000 0.665588 0.506528
C199  C     C_R   0.473809 0.943319 0.082580 -0.028253
C200  C     C_R   0.943334 0.473836 0.917422 -0.028265
C201  C     C_R   0.060339 0.515715 0.082461 -0.031043
C202  C     C_R   0.484466 0.939629 0.917540 -0.031087
C203  C     C_R   0.526166 0.056681 0.082579 -0.028257
C204  C     C_R   0.056660 0.526263 0.917416 -0.028267
C205  C     C_R   0.939652 0.484449 0.082460 -0.031079
C206  C     C_R   0.015116 0.560470 0.417542 -0.031135
C207  C     C_R   0.974300 0.443103 0.582574 -0.028308
C208  C     C_R   0.443129 0.974319 0.417434 -0.028274
H1    H     H_    0.526404 0.106338 0.872529 0.140360
H2    H     H_    0.956180 0.399594 0.627675 0.135764
H3    H     H_    0.399650 0.956083 0.372335 0.135697
H4    H     H_    0.606476 0.025902 0.627473 0.140419
H5    H     H_    0.974221 0.393501 0.372534 0.140459
H6    H     H_    0.043800 0.600417 0.627675 0.135765
H7    H     H_    0.600364 0.043958 0.372313 0.135763
H8    H     H_    0.393508 0.974230 0.627459 0.140479
H9    H     H_    0.636047 0.084986 0.946489 0.107270
H10   H     H_    0.674987 0.193946 0.969336 0.093428
H11   H     H_    0.598536 0.294381 0.969782 0.092734
H12   H     H_    0.455321 0.899972 0.127686 0.135545
H13   H     H_    0.483345 0.286576 0.946300 0.104881
H14   H     H_    0.444546 0.178755 0.922274 0.110772
H15   H     H_    0.510536 0.809489 0.084061 0.109810
H16   H     H_    0.450490 0.712469 0.059581 0.103413
H17   H     H_    0.345016 0.732027 0.029151 0.088964
H18   H     H_    0.299853 0.849249 0.022942 0.095029
H19   H     H_    0.359830 0.946868 0.046696 0.113710
H20   H     H_    0.809490 0.510512 0.915970 0.109813
H21   H     H_    0.712509 0.450384 0.940442 0.103416
H22   H     H_    0.732131 0.344872 0.970836 0.089014
H23   H     H_    0.899999 0.455288 0.872319 0.135537
H24   H     H_    0.849383 0.299759 0.977020 0.095029
H25   H     H_    0.946963 0.359827 0.953279 0.113682
H26   H     H_    0.084565 0.636273 0.053470 0.107300
H27   H     H_    0.193419 0.675569 0.030642 0.093467
H28   H     H_    0.294132 0.599482 0.030252 0.092625
H29   H     H_    0.286707 0.484303 0.053768 0.104855
H30   H     H_    0.178991 0.445151 0.077776 0.110768
H31   H     H_    0.363921 0.914996 0.946473 0.107267
H32   H     H_    0.324989 0.806038 0.969327 0.093412
H33   H     H_    0.401462 0.705621 0.969793 0.092732
H34   H     H_    0.106294 0.526628 0.127474 0.140319
H35   H     H_    0.516667 0.713441 0.946326 0.104876
H36   H     H_    0.555459 0.821259 0.922294 0.110773
H37   H     H_    0.489414 0.190504 0.084046 0.109817
H38   H     H_    0.549454 0.287525 0.059563 0.103419
H39   H     H_    0.654946 0.267975 0.029144 0.088997
H40   H     H_    0.700132 0.150757 0.022949 0.095034
H41   H     H_    0.640159 0.053137 0.046704 0.113706
H42   H     H_    0.190497 0.489560 0.915988 0.109818
H43   H     H_    0.287478 0.549702 0.940452 0.103421
H44   H     H_    0.267862 0.655266 0.970811 0.089030
H45   H     H_    0.473587 0.893659 0.872529 0.140360
H46   H     H_    0.150618 0.700415 0.976966 0.095023
H47   H     H_    0.053037 0.640331 0.953234 0.113670
H48   H     H_    0.915202 0.363937 0.053468 0.107289
H49   H     H_    0.806282 0.324871 0.030627 0.093456
H50   H     H_    0.705731 0.401171 0.030222 0.092706
H51   H     H_    0.713377 0.516328 0.053745 0.104868
H52   H     H_    0.821156 0.555246 0.077770 0.110768
H53   H     H_    0.135568 0.586011 0.446394 0.107286
H54   H     H_    0.173711 0.695233 0.469261 0.093429
H55   H     H_    0.096450 0.795043 0.469810 0.092786
H56   H     H_    0.544664 0.100028 0.127683 0.135547
H57   H     H_    0.981220 0.786343 0.446430 0.104829
H58   H     H_    0.943202 0.678260 0.422389 0.110770
H59   H     H_    0.012344 0.309643 0.584003 0.109778
H60   H     H_    0.953185 0.212064 0.559537 0.103373
H61   H     H_    0.847430 0.230612 0.529176 0.089061
H62   H     H_    0.801107 0.347392 0.523013 0.094965
H63   H     H_    0.860202 0.445575 0.546746 0.113650
H64   H     H_    0.309568 0.012029 0.415895 0.109766
H65   H     H_    0.212069 0.952767 0.440376 0.103387
H66   H     H_    0.230792 0.847231 0.470871 0.089077
H67   H     H_    0.100001 0.544754 0.872310 0.135543
H68   H     H_    0.347672 0.801228 0.477152 0.095025
H69   H     H_    0.445772 0.860413 0.453394 0.113700
H70   H     H_    0.585546 0.135687 0.553428 0.107300
H71   H     H_    0.694687 0.174168 0.530599 0.093478
H72   H     H_    0.794860 0.097372 0.530254 0.092700
H73   H     H_    0.786605 0.982289 0.553813 0.104817
H74   H     H_    0.678600 0.943945 0.577821 0.110737
H75   H     H_    0.864384 0.414094 0.446430 0.107283
H76   H     H_    0.826161 0.304888 0.469286 0.093399
H77   H     H_    0.903321 0.204999 0.469794 0.092752
H78   H     H_    0.893705 0.473450 0.127470 0.140334
H79   H     H_    0.018527 0.213604 0.446382 0.104822
H80   H     H_    0.056623 0.321671 0.422350 0.110763
H81   H     H_    0.987573 0.690368 0.584024 0.109789
H82   H     H_    0.046683 0.787981 0.559562 0.103399
H83   H     H_    0.152420 0.769487 0.529180 0.089096
H84   H     H_    0.198768 0.652722 0.522990 0.094971
H85   H     H_    0.139722 0.554505 0.546721 0.113647
H86   H     H_    0.690372 0.987840 0.416044 0.109797
H87   H     H_    0.787900 0.047139 0.440485 0.103386
H88   H     H_    0.769269 0.152996 0.470762 0.089106
H89   H     H_    0.025750 0.606502 0.372534 0.140470
H90   H     H_    0.652456 0.199282 0.476865 0.094947
H91   H     H_    0.554322 0.140038 0.453164 0.113626
H92   H     H_    0.413830 0.864435 0.553695 0.107259
H93   H     H_    0.304579 0.826392 0.530815 0.093410
H94   H     H_    0.204905 0.903827 0.530164 0.092817
H95   H     H_    0.213768 0.019136 0.553450 0.104816
H96   H     H_    0.321876 0.057060 0.577502 0.110781
N1    N     N_R   0.526113 0.946517 0.984801 -0.219765
N2    N     N_R   0.973541 0.553376 0.515689 -0.221014
N3    N     N_R   0.553407 0.973796 0.484316 -0.221045
N4    N     N_R   0.446700 0.026666 0.515196 -0.219860
N5    N     N_R   0.973412 0.553280 0.484797 -0.219799
N6    N     N_R   0.026392 0.446646 0.515689 -0.221019
N7    N     N_R   0.446615 0.026524 0.484304 -0.220997
N8    N     N_R   0.553305 0.973688 0.515208 -0.219712
N9    N     N_R   0.473990 0.053575 0.015693 -0.221019
N10   N     N_R   0.053613 0.474170 0.984309 -0.221011
N11   N     N_R   0.946472 0.526132 0.015198 -0.219766
N12   N     N_R   0.473864 0.053481 0.984801 -0.219758
N13   N     N_R   0.525985 0.946424 0.015694 -0.221018
N14   N     N_R   0.946380 0.525996 0.984306 -0.221005
N15   N     N_R   0.053520 0.474052 0.015201 -0.219746
N16   N     N_R   0.026512 0.446736 0.484797 -0.219780
O1    O     O_3   0.500000 0.000000 0.750000 -0.433167
O2    O     O_R   0.555780 0.000000 0.319360 -0.542442
O3    O     O_R   1.000000 0.444220 0.680640 -0.542446
O4    O     O_R   0.000000 0.555780 0.319360 -0.543321
O5    O     O_R   0.055780 0.500000 0.180640 -0.543288
O6    O     O_R   0.944220 0.500000 0.819360 -0.542386
O7    O     O_R   0.500000 0.055780 0.180640 -0.542389
O8    O     O_R   0.500000 0.944220 0.819360 -0.543296
O9    O     O_R   0.944220 0.500000 0.180640 -0.543289
O10   O     O_R   0.055780 0.500000 0.819360 -0.542386
O11   O     O_R   0.500000 0.944220 0.180640 -0.542389
O12   O     O_3   0.500000 0.000000 0.250000 -0.433522
O13   O     O_R   0.500000 0.055780 0.819360 -0.543295
O14   O     O_R   0.365890 0.078400 0.731800 -0.534874
O15   O     O_R   0.634110 0.921600 0.268200 -0.534624
O16   O     O_R   0.921600 0.365890 0.731800 -0.535955
O17   O     O_R   0.078400 0.634110 0.268200 -0.535650
O18   O     O_R   0.634110 0.921600 0.731800 -0.534879
O19   O     O_R   0.365890 0.078400 0.268200 -0.534627
O20   O     O_R   0.078400 0.634110 0.731800 -0.535958
O21   O     O_R   0.921600 0.365890 0.268200 -0.535651
O22   O     O_R   0.365890 0.921600 0.268200 -0.535961
O23   O     O_3   0.000000 0.500000 0.750000 -0.433521
O24   O     O_R   0.634110 0.078400 0.731800 -0.535657
O25   O     O_R   0.921600 0.634110 0.268200 -0.534875
O26   O     O_R   0.078400 0.365890 0.731800 -0.534628
O27   O     O_R   0.634110 0.078400 0.268200 -0.535958
O28   O     O_R   0.365890 0.921600 0.731800 -0.535652
O29   O     O_R   0.078400 0.365890 0.268200 -0.534875
O30   O     O_R   0.921600 0.634110 0.731800 -0.534628
O31   O     O_R   0.865890 0.578400 0.231800 -0.534854
O32   O     O_R   0.134110 0.421600 0.768200 -0.534596
O33   O     O_R   0.421600 0.865890 0.231800 -0.535968
O34   O     O_3   1.000000 0.500000 0.250000 -0.433169
O35   O     O_R   0.578400 0.134110 0.768200 -0.535664
O36   O     O_R   0.134110 0.421600 0.231800 -0.534852
O37   O     O_R   0.865890 0.578400 0.768200 -0.534596
O38   O     O_R   0.578400 0.134110 0.231800 -0.535970
O39   O     O_R   0.421600 0.865890 0.768200 -0.535667
O40   O     O_R   0.865890 0.421600 0.768200 -0.535972
O41   O     O_R   0.134110 0.578400 0.231800 -0.535674
O42   O     O_R   0.421600 0.134110 0.768200 -0.534854
O43   O     O_R   0.578400 0.865890 0.231800 -0.534597
O44   O     O_R   0.134110 0.578400 0.768200 -0.535972
O45   O     O_R   0.555780 1.000000 0.680640 -0.543322
O46   O     O_R   0.865890 0.421600 0.231800 -0.535670
O47   O     O_R   0.578400 0.865890 0.768200 -0.534852
O48   O     O_R   0.421600 0.134110 0.231800 -0.534596
O49   O     O_R   0.444220 0.000000 0.319360 -0.542435
O50   O     O_R   0.000000 0.555780 0.680640 -0.542451
O51   O     O_R   1.000000 0.444220 0.319360 -0.543322
O52   O     O_R   0.444220 1.000000 0.680640 -0.543311
Zn1   Zn    Zn3+2 0.500000 0.079610 0.775930 0.946756
Zn2   Zn    Zn3+2 1.000000 0.420390 0.724070 0.946707
Zn3   Zn    Zn3+2 0.420390 0.000000 0.275930 0.946708
Zn4   Zn    Zn3+2 0.579610 0.000000 0.724070 0.946741
Zn5   Zn    Zn3+2 0.000000 0.420390 0.275930 0.946748
Zn6   Zn    Zn3+2 0.000000 0.579610 0.724070 0.946704
Zn7   Zn    Zn3+2 0.579610 0.000000 0.275930 0.946711
Zn8   Zn    Zn3+2 0.420390 0.000000 0.724070 0.946753
Zn9   Zn    Zn3+2 0.500000 0.920390 0.224070 0.946731
Zn10  Zn    Zn3+2 0.920390 0.500000 0.775930 0.946735
Zn11  Zn    Zn3+2 0.079610 0.500000 0.224070 0.946757
Zn12  Zn    Zn3+2 0.500000 0.920390 0.775930 0.946755
Zn13  Zn    Zn3+2 0.500000 0.079610 0.224070 0.946733
Zn14  Zn    Zn3+2 0.079610 0.500000 0.775930 0.946732
Zn15  Zn    Zn3+2 0.920390 0.500000 0.224070 0.946756
Zn16  Zn    Zn3+2 0.000000 0.579610 0.275930 0.946747

loop_
_geom_bond_atom_site_label_1
_geom_bond_atom_site_label_2
_ccdc_geom_bond_type
O9    Zn15  S    
C96   C102  A    
C113  C151  S    
C19   C20   A    
C130  O32   A    
C114  C115  A    
C100  H79   S    
C121  H95   S    
O25   Zn16  S    
C21   H13   S    
O8    Zn12  S    
C122  H96   S    
C101  O40   A    
C147  C164  T    
O28   Zn8   S    
C106  C107  A    
C73   C74   A    
C37   C42   A    
O4    Zn16  S    
C110  C111  A    
C4    C96   S    
C47   C48   A    
C55   H41   S    
C17   C197  S    
C183  H34   S    
C4    C12   A    
C88   H69   S    
C15   C208  A    
C91   C92   A    
N4    N7    A    
C57   O11   A    
C83   C88   A    
C132  N4    A    
C59   C60   A    
C21   C22   A    
O31   Zn15  S    
C48   H35   S    
C104  C105  A    
C45   C47   A    
C188  C205  A    
C24   O4    A    
C51   C52   A    
C183  C201  A    
C160  C163  S    
N1    N13   A    
O17   Zn16  S    
C50   C203  S    
O15   Zn7   S    
O11   Zn9   S    
C91   H70   S    
C65   H49   S    
C43   C44   A    
C53   H39   S    
C127  O22   A    
C194  H6    S    
C37   C38   A    
C143  N3    A    
C22   H14   S    
C155  C169  S    
C189  C206  A    
C108  H85   S    
C150  C168  T    
C181  H12   S    
C76   C77   A    
C24   O51   A    
C69   H52   S    
C126  O21   A    
C173  C182  A    
O10   Zn14  S    
C26   H16   S    
C2    O49   A    
C56   C62   A    
C134  C139  S    
C130  O26   A    
C176  N15   A    
C72   C73   A    
C125  C148  S    
C126  C147  S    
C193  H5    S    
C101  O16   A    
C118  H92   S    
C13   O50   A    
C30   C36   A    
C97   H75   S    
C190  H2    S    
C64   C65   A    
C136  C153  T    
C81   H62   S    
O50   Zn6   S    
O40   Zn10  S    
C20   C21   A    
O5    Zn11  S    
C98   C99   A    
C7    C196  A    
C175  C193  A    
C191  H3    S    
C5    C194  A    
O34   Zn5   S    
C30   C200  S    
C1    N6    A    
C5    C103  S    
C112  N5    A    
C7    C117  S    
O38   Zn13  S    
O18   Zn4   S    
C97   C98   A    
C42   H30   S    
C113  O17   A    
C125  O44   A    
C85   C86   A    
C11   C176  S    
C23   C29   A    
O23   Zn14  S    
C51   H37   S    
C80   H61   S    
O13   Zn1   S    
C135  O37   A    
C38   C39   A    
C68   C171  S    
C78   C80   A    
C156  C168  S    
O20   Zn6   S    
C115  C116  A    
C137  C155  T    
C187  N10   A    
N3    N8    A    
C102  H80   S    
C192  H4    S    
C140  C158  T    
C172  C181  A    
C141  C159  T    
C31   C32   A    
C153  C170  S    
C107  C108  A    
O48   Zn13  S    
C89   C91   A    
O14   Zn8   S    
C131  C141  S    
C66   C67   A    
C123  C150  S    
C31   H20   S    
C113  O41   A    
C94   C95   A    
O37   Zn10  S    
C79   C146  S    
C62   H47   S    
O12   Zn3   S    
C111  H87   S    
O23   Zn2   S    
C131  O27   A    
C178  C195  A    
C76   C82   A    
C39   C40   A    
C27   H17   S    
C25   C26   A    
C119  H93   S    
C82   H63   S    
C117  C122  A    
C124  C149  S    
O12   Zn13  S    
C83   C84   A    
C172  C185  A    
C133  O39   A    
C17   C18   A    
C52   C53   A    
O39   Zn12  S    
C139  C157  T    
O22   Zn3   S    
C15   C143  S    
O34   Zn11  S    
C188  H78   S    
C59   H43   S    
C6    C109  S    
C90   O15   A    
C181  C199  A    
C12   C112  S    
C120  C121  A    
N10   N15   A    
C54   C55   A    
N11   N14   A    
C37   C201  S    
C177  C190  A    
C198  O52   A    
O12   Zn7   S    
O44   Zn14  S    
C66   H50   S    
C143  N7    A    
O23   Zn6   S    
C179  C198  S    
C112  N16   A    
C165  N1    A    
C72   H54   S    
C151  C169  T    
C129  O31   A    
C71   C72   A    
C117  C118  A    
C20   H11   S    
O1    Zn4   S    
C56   C58   A    
C34   C36   A    
C61   C62   A    
C130  C142  S    
C8    C165  S    
C63   C64   A    
C190  C207  A    
C176  N11   A    
C70   C75   A    
C159  C164  S    
C1    C14   S    
C11   C205  A    
C67   H51   S    
C3    C16   A    
C73   H55   S    
C87   C88   A    
C114  H88   S    
O51   Zn5   S    
C144  C161  T    
O36   Zn11  S    
C148  C166  T    
C41   C42   A    
C149  C167  T    
C68   O8    A    
C157  C167  S    
C161  C162  S    
C41   H29   S    
C77   C78   A    
C107  H84   S    
C110  H86   S    
C26   C27   A    
C93   C94   A    
C28   C29   A    
O29   Zn5   S    
C90   C145  S    
C128  C136  S    
C30   C31   A    
C196  H8    S    
C74   H57   S    
C98   H76   S    
C46   O10   A    
C18   C19   A    
C13   O3    A    
O1    Zn8   S    
C68   O13   A    
C109  C116  A    
C116  H91   S    
O21   Zn5   S    
C70   C71   A    
C54   H40   S    
C195  H7    S    
C57   C172  S    
O6    Zn10  S    
O27   Zn7   S    
C14   C207  A    
O12   Zn9   S    
C128  O24   A    
C120  H94   S    
C6    C195  A    
C154  N13   A    
C179  C196  A    
C4    C193  A    
N2    N5    A    
C177  C194  A    
O41   Zn11  S    
C171  C184  A    
C182  C200  A    
C84   C85   A    
O43   Zn9   S    
C129  C144  S    
C86   C87   A    
C58   C59   A    
C53   C54   A    
C134  O36   A    
C60   C61   A    
C12   C206  A    
C89   C95   A    
C124  O19   A    
O35   Zn1   S    
C43   C202  S    
C50   C51   A    
C46   C173  S    
O46   Zn15  S    
C19   H10   S    
C35   O5    A    
C5    C14   A    
C94   H73   S    
O30   Zn6   S    
C7    C16   A    
C125  O20   A    
C90   O43   A    
O26   Zn2   S    
C44   C45   A    
C158  C166  S    
C146  C163  T    
C32   H21   S    
C186  H67   S    
C34   H24   S    
C10   C200  A    
C174  C183  A    
C38   H26   S    
C119  C120  A    
C185  H56   S    
C198  O45   A    
C105  C106  A    
C101  C152  S    
C17   C22   A    
C3    C89   S    
C134  O29   A    
C32   C33   A    
C185  C203  A    
C109  C110  A    
N6    N16   A    
C13   C177  S    
C131  O38   A    
C92   C93   A    
C154  N9    A    
C111  C114  A    
C180  H1    S    
C16   C132  S    
O3    Zn2   S    
C126  O46   A    
C182  H23   S    
C133  C140  S    
C63   C205  S    
O34   Zn16  S    
C103  C104  A    
C135  O30   A    
O1    Zn1   S    
O2    Zn7   S    
C3    C192  A    
C24   C175  S    
O23   Zn10  S    
O45   Zn4   S    
C75   H58   S    
C71   H53   S    
C135  C138  S    
C61   H46   S    
C79   O14   A    
C40   H28   S    
C81   C82   A    
C57   O7    A    
C115  H90   S    
C86   H66   S    
C123  O47   A    
C165  N12   A    
C189  H89   S    
C145  C162  T    
O19   Zn3   S    
C23   C199  S    
C152  C170  T    
C11   C201  A    
C105  H82   S    
C93   H72   S    
C180  C197  A    
C9    C203  A    
C174  C188  A    
C6    C15   A    
C118  C119  A    
C35   O9    A    
C179  C192  A    
C85   H65   S    
C2    O2    A    
C10   C187  S    
C103  C108  A    
O24   Zn4   S    
C76   C207  S    
C104  H81   S    
O49   Zn3   S    
C8    C197  A    
C99   H77   S    
O16   Zn2   S    
C173  C186  A    
C46   O6    A    
C184  C202  A    
C74   C75   A    
C84   H64   S    
O1    Zn12  S    
C63   C69   A    
C133  O28   A    
O33   Zn9   S    
C28   H18   S    
C47   H33   S    
C43   C49   A    
N9    N12   A    
C36   H25   S    
C77   H59   S    
C67   C69   A    
C78   H60   S    
O34   Zn15  S    
C83   C208  S    
O7    Zn13  S    
C99   C100  A    
C95   H74   S    
C96   C97   A    
C100  C102  A    
C33   C34   A    
C121  C122  A    
C186  C204  A    
C184  H45   S    
C132  N8    A    
C40   C41   A    
C9    C154  S    
C128  O35   A    
O42   Zn1   S    
C171  C180  A    
C58   H42   S    
C87   H68   S    
C29   H19   S    
C33   H22   S    
C44   H31   S    
O47   Zn12  S    
C49   H36   S    
O32   Zn14  S    
C138  C156  T    
C127  O33   A    
C48   C49   A    
O52   Zn8   S    
C35   C174  S    
C142  C160  T    
C80   C81   A    
C52   H38   S    
C175  C189  A    
C56   C204  S    
C70   C206  S    
C2    C178  S    
C1    N2    A    
C50   C55   A    
C92   H71   S    
C8    C202  A    
C45   H32   S    
C106  H83   S    
C39   H27   S    
C178  C191  A    
C25   H15   S    
C191  C208  A    
C23   C25   A    
C124  O48   A    
C123  O18   A    
C9    C199  A    
C65   C66   A    
C27   C28   A    
C60   H44   S    
C187  N14   A    
C129  O25   A    
C127  C137  S    
C18   H9    S    
C10   C204  A    
C79   O42   A    
C64   H48   S    
