data_mof_unit_39514.cif
_audit_creation_date              2013-03-05T15:57:41-0500
_audit_creation_method            fapswitch 2.2
_symmetry_space_group_name_H-M    P1
_symmetry_Int_Tables_number       1
_space_group_crystal_system       triclinic
_cell_length_a                    18.978785
_cell_length_b                    17.870678
_cell_length_c                    12.614344
_cell_angle_alpha                 89.777626
_cell_angle_beta                  99.195216
_cell_angle_gamma                 88.907642
_cell_volume                      4222.47854957

loop_
_atom_site_label
_atom_site_type_symbol
_atom_site_description
_atom_site_fract_x
_atom_site_fract_y
_atom_site_fract_z
_atom_type_partial_charge
O1    O     O_R   0.448200 0.076800 0.373930 -0.551261
O2    O     O_R   0.448200 0.923200 0.373930 -0.568338
O3    O     O_R   0.948200 0.576800 0.373930 -0.569084
O4    O     O_R   0.948200 0.423200 0.373930 -0.565115
O5    O     O_R   0.414750 0.076790 0.542400 -0.630856
O6    O     O_R   0.414750 0.923210 0.542400 -0.634819
O7    O     O_R   0.914750 0.576790 0.542400 -0.625293
O8    O     O_R   0.914750 0.423210 0.542400 -0.626805
C1    C     C_R   0.420033 0.110146 0.451098 0.935129
C2    C     C_R   0.413597 0.894400 0.445892 0.924217
C3    C     C_R   0.919465 0.609876 0.450098 0.919982
C4    C     C_R   0.911679 0.396965 0.444570 0.904337
Zn1   Zn    Zn3+2 0.522330 0.000000 0.387520 1.034608
Zn2   Zn    Zn3+2 0.022330 0.500000 0.387520 1.042519
Zn3   Zn    Zn3+2 0.477660 1.000000 0.612480 0.994654
Zn4   Zn    Zn3+2 0.977660 0.500000 0.612480 0.999063
O9    O     O_R   0.585240 0.923200 0.457600 -0.611653
O10   O     O_R   0.585240 0.076800 0.457600 -0.628542
O11   O     O_R   0.085240 0.423200 0.457600 -0.612571
O12   O     O_R   0.085240 0.576800 0.457600 -0.582608
O13   O     O_R   0.551780 0.923190 0.626070 -0.569612
O14   O     O_R   0.551780 0.076810 0.626070 -0.618879
O15   O     O_R   0.051780 0.423190 0.626070 -0.560327
O16   O     O_R   0.051780 0.576810 0.626070 -0.630212
C5    C     C_R   0.590305 0.897043 0.555840 0.911454
C6    C     C_R   0.588497 0.102570 0.555393 0.912234
C7    C     C_R   0.091087 0.397753 0.556167 0.934686
C8    C     C_R   0.088918 0.602983 0.556245 0.903147
C9    C     C_R   0.636457 0.296830 0.638912 0.330706
C10   C     C_R   0.722212 0.770022 0.729755 0.333881
C11   C     C_R   0.224125 0.715446 0.736822 0.322257
C12   C     C_R   0.217319 0.262974 0.726463 0.326894
H1    H     H_    0.561956 0.218269 0.683631 0.179788
H2    H     H_    0.614455 0.806118 0.735687 0.220152
H3    H     H_    0.131825 0.654428 0.761938 0.183911
H4    H     H_    0.108523 0.298270 0.724627 0.211951
C13   C     C_R   0.630664 0.168054 0.582026 -0.082663
C14   C     C_R   0.649072 0.843678 0.590741 -0.130570
C15   C     C_R   0.141827 0.659267 0.593925 -0.110199
C16   C     C_R   0.150973 0.345633 0.591784 -0.115353
C17   C     C_R   0.358832 0.797131 0.312137 0.201419
C18   C     C_R   0.400324 0.233571 0.346376 0.194861
C19   C     C_R   0.904590 0.265512 0.381617 0.162037
C20   C     C_R   0.893835 0.728715 0.336033 0.200833
C21   C     C_R   0.314046 0.735902 0.289472 0.290152
C22   C     C_R   0.371340 0.306948 0.337691 0.274533
C23   C     C_R   0.885223 0.193968 0.410851 0.297038
C24   C     C_R   0.857399 0.798152 0.318404 0.274866
C25   C     C_R   0.277774 0.707687 0.368599 0.174981
C26   C     C_R   0.331505 0.333945 0.414958 0.161617
C27   C     C_R   0.832879 0.186543 0.476861 0.174684
C28   C     C_R   0.817484 0.826389 0.394680 0.160306
C29   C     C_R   0.286784 0.739815 0.472115 -0.006898
C30   C     C_R   0.321248 0.287488 0.501629 -0.010078
C31   C     C_R   0.788604 0.249450 0.493559 -0.014252
C32   C     C_R   0.814850 0.784811 0.490082 -0.005611
C33   C     C_R   0.343812 0.787840 0.500935 -0.040341
C34   C     C_R   0.366093 0.224620 0.524178 -0.040188
C35   C     C_R   0.809315 0.321093 0.466712 -0.028516
C36   C     C_R   0.863543 0.725274 0.516175 -0.041406
C37   C     C_R   0.725665 0.243755 0.538959 0.063077
C38   C     C_R   0.765273 0.798077 0.560944 0.079966
C39   C     C_R   0.244368 0.721768 0.550543 0.078427
C40   C     C_R   0.269173 0.300366 0.568820 0.074390
C41   C     C_R   0.691932 0.307978 0.577162 -0.059556
C42   C     C_R   0.778267 0.768312 0.667395 -0.048438
C43   C     C_R   0.269428 0.733901 0.661527 -0.046221
C44   C     C_R   0.276557 0.264280 0.670793 -0.048725
C45   C     C_R   0.338154 0.763634 0.691016 0.282931
C46   C     C_R   0.341912 0.227167 0.708874 0.283254
C47   C     C_R   0.712087 0.379352 0.545752 0.286697
C48   C     C_R   0.845322 0.733822 0.703255 0.285019
C49   C     C_R   0.373324 0.792209 0.610891 -0.189274
C50   C     C_R   0.384172 0.203564 0.633441 -0.188002
C51   C     C_R   0.769386 0.384696 0.489617 -0.193086
C52   C     C_R   0.885327 0.708465 0.626108 -0.177630
C53   C     C_R   0.689868 0.176706 0.532923 -0.118634
C54   C     C_R   0.699552 0.832225 0.523592 -0.152883
C55   C     C_R   0.176003 0.694381 0.519723 -0.166050
C56   C     C_R   0.206242 0.340366 0.531108 -0.148711
C57   C     C_R   0.606897 0.226134 0.641792 -0.235911
C58   C     C_R   0.658067 0.807395 0.690186 -0.113813
C59   C     C_R   0.162980 0.674083 0.703091 -0.154130
C60   C     C_R   0.154865 0.302718 0.685246 -0.114069
C61   C     C_R   0.372583 0.825455 0.418857 -0.236648
C62   C     C_R   0.395094 0.189812 0.439119 -0.249674
C63   C     C_R   0.871211 0.328926 0.420212 -0.184101
C64   C     C_R   0.892170 0.688492 0.433102 -0.244077
H5    H     H_    0.704500 0.132284 0.482092 0.196648
H6    H     H_    0.685926 0.847773 0.440055 0.202461
H7    H     H_    0.150384 0.696290 0.436789 0.201165
H8    H     H_    0.198458 0.364876 0.451639 0.192675
H9    H     H_    0.426929 0.812053 0.635221 0.197971
H10   H     H_    0.433692 0.173684 0.661773 0.192933
H11   H     H_    0.781791 0.439481 0.461238 0.182793
H12   H     H_    0.935974 0.680184 0.652960 0.196195
C65   C     C_R   0.635849 0.053954 0.139687 0.250783
C66   C     C_R   0.142275 0.509611 0.128107 0.247863
H13   H     H_    0.655310 0.031217 0.308866 0.191337
H14   H     H_    0.160653 0.476145 0.294732 0.195606
H15   H     H_    0.654887 0.088752 0.941087 0.225768
H16   H     H_    0.162579 0.568114 0.943278 0.224152
N1    N     N_R   0.552340 0.000000 0.237260 -0.146266
N2    N     N_R   0.052340 0.500000 0.237260 -0.139599
C67   C     C_R   0.378079 0.985816 0.759468 -0.055702
C68   C     C_R   0.877081 0.491990 0.759184 -0.076121
C69   C     C_R   0.347240 0.990330 0.851725 0.221874
C70   C     C_R   0.846278 0.502698 0.850643 0.200614
C71   C     C_R   0.389411 0.008469 0.949770 0.297652
C72   C     C_R   0.889189 0.519963 0.948194 0.274138
C73   C     C_R   0.464380 0.018017 0.953918 -0.079257
C74   C     C_R   0.964749 0.523259 0.953424 -0.091445
C75   C     C_R   0.492131 0.016954 0.855698 0.112297
C76   C     C_R   0.992753 0.516539 0.855234 0.103105
C77   C     C_R   0.514469 0.024396 0.050571 0.006171
C78   C     C_R   0.015461 0.525026 0.050571 -0.001370
C79   C     C_R   0.584038 0.051373 0.045966 -0.013670
C80   C     C_R   0.088751 0.533424 0.043527 -0.005502
C81   C     C_R   0.602194 0.068704 0.946539 -0.171116
C82   C     C_R   0.107381 0.555347 0.946851 -0.173214
C83   C     C_R   0.564709 0.034954 0.856674 0.307579
C84   C     C_R   0.066699 0.527445 0.855960 0.289123
C85   C     C_R   0.500712 0.999019 0.150305 0.077601
C86   C     C_R   0.999246 0.510338 0.153083 0.059985
C87   C     C_R   0.617856 0.027551 0.234989 -0.005713
C88   C     C_R   0.121845 0.493690 0.226521 -0.002399
N3    N     N_R   0.448170 1.000000 0.762060 -0.147089
N4    N     N_R   0.948170 0.500000 0.762060 -0.147771
H17   H     H_    0.449888 0.978311 0.161693 0.194501
H18   H     H_    0.946002 0.504960 0.169692 0.189891
H19   H     H_    0.345031 0.974196 0.683562 0.182086
H20   H     H_    0.843480 0.481427 0.683360 0.194911
N5    N     N_R   0.707003 0.079721 0.139309 0.219762
O17   O     O_R   0.748698 0.044499 0.082897 -0.272501
O18   O     O_R   0.735024 0.125793 0.213187 -0.344297
N6    N     N_R   0.213538 0.490797 0.109946 0.226914
O19   O     O_R   0.222976 0.452236 0.025849 -0.265112
O20   O     O_R   0.267869 0.499899 0.185083 -0.246016
N7    N     N_R   0.354132 0.028148 0.038388 0.208334
O21   O     O_R   0.311151 0.981740 0.073854 -0.282375
O22   O     O_R   0.360991 0.094869 0.078909 -0.274612
N8    N     N_R   0.854354 0.543025 0.035455 0.205140
O23   O     O_R   0.814518 0.496608 0.077765 -0.321599
O24   O     O_R   0.853442 0.613324 0.061239 -0.254274
Br1   Br    Br    0.245988 0.977716 0.837077 -0.269500
Br2   Br    Br    0.744424 0.499383 0.837300 -0.218891
N9    N     N_R   0.608596 0.989455 0.800718 0.238714
O25   O     O_R   0.616425 0.920095 0.832107 -0.366102
O26   O     O_R   0.661106 0.019725 0.762168 -0.356774
N10   N     N_R   0.106381 0.477067 0.800875 0.240230
O27   O     O_R   0.108670 0.407823 0.833307 -0.360938
O28   O     O_R   0.160177 0.501566 0.759299 -0.372694
N11   N     N_R   0.376106 0.758883 0.798818 0.241985
O29   O     O_R   0.383164 0.694451 0.848208 -0.251060
O30   O     O_R   0.415839 0.813830 0.838354 -0.356575
N12   N     N_R   0.369013 0.220331 0.821740 0.243387
O31   O     O_R   0.356129 0.273585 0.886533 -0.232479
O32   O     O_R   0.418704 0.170957 0.855850 -0.400079
N13   N     N_R   0.668385 0.445062 0.552065 0.245291
O33   O     O_R   0.698367 0.509074 0.575821 -0.347932
O34   O     O_R   0.601649 0.444777 0.507014 -0.284313
N14   N     N_R   0.875919 0.730156 0.815042 0.242145
O35   O     O_R   0.867857 0.786834 0.876791 -0.244274
O36   O     O_R   0.924000 0.679145 0.849417 -0.387114
Br3   Br    Br    0.600543 0.371849 0.726363 -0.251586
Br4   Br    Br    0.723484 0.713244 0.859953 -0.210732
Br5   Br    Br    0.235564 0.751712 0.881444 -0.262837
Br6   Br    Br    0.212086 0.197888 0.846725 -0.247360
Br7   Br    Br    0.404594 0.833085 0.195995 -0.305310
Br8   Br    Br    0.456855 0.201596 0.239403 -0.281131
Br9   Br    Br    0.983559 0.274754 0.303082 -0.347944
Br10  Br    Br    0.956137 0.699254 0.235552 -0.297897
Br11  Br    Br    0.837788 0.096691 0.564797 -0.319316
Br12  Br    Br    0.786340 0.930326 0.381395 -0.359988
Br13  Br    Br    0.235056 0.612081 0.343497 -0.382131
Br14  Br    Br    0.315261 0.440110 0.424360 -0.307951
Br15  Br    Br    0.303115 0.688902 0.150119 -0.172569
Br16  Br    Br    0.387468 0.371175 0.221003 -0.117657
Br17  Br    Br    0.934932 0.106281 0.369442 -0.196106
Br18  Br    Br    0.861375 0.854716 0.188628 -0.140494

loop_
_geom_bond_atom_site_label_1
_geom_bond_atom_site_label_2
_geom_bond_distance
_ccdc_geom_bond_type
C20   C24   1.408343 A    
C2    C61   1.481631 S    
C10   C58   1.396223 A    
C31   C35   1.402411 A    
C69   C71   1.404244 A    
C16   C60   1.395183 A    
N9    O25   1.298303 A    
O10   C6    1.311028 A    
C65   N5    1.435778 S    
C48   C52   1.398318 A    
N1    C85   1.349388 A    
C74   C76   1.428347 A    
C36   C64   1.413881 A    
C51   H11   1.084017 S    
C67   H19   1.080701 S    
C39   C55   1.392346 A    
C54   H6    1.078146 S    
O7    C3    1.320319 A    
C67   C69   1.385649 A    
C53   H5    1.082077 S    
C26   C30   1.410526 A    
O13   C5    1.317172 A    
Zn1   O10   1.955824 S    
C46   N12   1.438295 S    
C84   N10   1.416604 S    
N12   O31   1.301752 A    
N9    O26   1.302173 A    
O12   C8    1.322951 A    
C24   C28   1.405846 A    
C79   C81   1.388121 A    
C69   Br1   1.918602 S    
C9    Br3   1.922431 S    
C75   N3    1.371335 A    
C68   N4    1.354207 A    
C11   C59   1.396945 A    
C26   Br14  1.923484 S    
C18   C22   1.409326 A    
C33   C49   1.413456 A    
C27   Br11  1.940328 S    
O2    Zn1   1.972508 S    
C50   H10   1.080824 S    
C29   C39   1.411648 A    
C66   N6    1.441200 S    
C23   Br17  1.930270 S    
C18   Br8   1.934888 S    
C72   C74   1.427327 A    
O6    Zn3   1.955698 S    
H1    C57   1.083343 S    
Zn3   O14   1.972497 S    
C42   C48   1.409974 A    
C22   Br16  1.929241 S    
C37   C53   1.385022 A    
C77   C79   1.423958 A    
H3    C59   1.081754 S    
C46   C50   1.400269 A    
C16   C56   1.395830 A    
C45   C49   1.397298 A    
C18   C62   1.422324 A    
O15   C7    1.319499 A    
Zn1   N1    2.064480 S    
O11   C7    1.309449 A    
O4    C4    1.304144 A    
C7    C16   1.467785 S    
C55   H7    1.080990 S    
C21   Br15  1.933930 S    
C12   C44   1.418051 A    
C32   C38   1.415080 A    
C68   C70   1.386504 A    
O8    Zn4   1.955698 S    
Zn3   N3    2.052066 S    
C14   C58   1.394338 A    
C65   C79   1.413256 A    
C40   C56   1.395348 A    
C13   C57   1.394990 A    
C34   C62   1.421965 A    
C82   C84   1.376769 A    
C66   C80   1.408863 A    
N14   O36   1.300190 A    
C81   C83   1.385228 A    
C12   C60   1.395636 A    
C39   C43   1.423610 A    
C24   Br18  1.933124 S    
C77   C85   1.400593 A    
C76   N4    1.370803 A    
C67   N3    1.354202 A    
C28   Br12  1.936900 S    
H15   C81   1.081029 S    
Zn2   O12   1.955824 S    
O1    C1    1.321774 A    
C10   Br4   1.923776 S    
C35   C63   1.403365 A    
H13   C87   1.080996 S    
C38   C42   1.424964 A    
C23   C27   1.402264 A    
C14   C54   1.389406 A    
C8    C15   1.461385 S    
C41   C47   1.411850 A    
C17   Br7   1.932398 S    
C36   C52   1.411739 A    
C45   N11   1.434899 S    
C32   C36   1.398917 A    
C43   C45   1.412415 A    
C15   C55   1.376803 A    
C56   H8    1.079532 S    
C68   H20   1.080832 S    
C47   N13   1.434532 S    
C20   Br10  1.934500 S    
O5    C1    1.313654 A    
N10   O28   1.302117 A    
C5    C14   1.465109 S    
C72   N8    1.429793 S    
Zn2   N2    2.064480 S    
N13   O33   1.301984 A    
C21   C25   1.397613 A    
C3    C64   1.490816 S    
O8    C4    1.314843 A    
C83   N9    1.421118 S    
C86   H18   1.070266 S    
C73   C75   1.421682 A    
C1    C62   1.491150 S    
Zn4   N4    2.052066 S    
N11   O30   1.301314 A    
C10   C42   1.420536 A    
O3    Zn2   1.933880 S    
C9    C41   1.422616 A    
C65   C87   1.384710 A    
O7    Zn4   1.918586 S    
C11   Br5   1.919178 S    
C9    C57   1.394774 A    
Zn4   O15   1.933870 S    
C12   Br6   1.924307 S    
N5    O17   1.301228 A    
H14   C88   1.080610 S    
O1    Zn1   1.933880 S    
O2    C2    1.311485 A    
C40   C44   1.422197 A    
C35   C51   1.410455 A    
C74   C78   1.433025 A    
N8    O24   1.299428 A    
H16   C82   1.084273 S    
C34   C50   1.413816 A    
N6    O20   1.297397 A    
N14   O35   1.301664 A    
C30   C34   1.396862 A    
C13   C53   1.377830 A    
C19   Br9   1.933282 S    
C78   C86   1.401202 A    
C4    C63   1.458008 S    
N8    O23   1.301509 A    
Zn2   O11   1.918711 S    
C38   C54   1.389634 A    
O16   C8    1.303508 A    
N6    O19   1.301557 A    
C29   C33   1.397226 A    
O6    C2    1.320741 A    
N7    O21   1.301112 A    
C70   C72   1.401757 A    
C6    C13   1.440702 S    
N2    C86   1.351446 A    
C75   C83   1.418619 A    
C17   C61   1.426398 A    
C22   C26   1.406965 A    
C48   N14   1.437378 S    
Zn1   O9    1.918711 S    
C71   N7    1.433482 S    
O9    C5    1.311173 A    
C71   C73   1.428912 A    
N13   O34   1.302847 A    
C19   C63   1.413540 A    
C70   Br2   1.915473 S    
C52   H12   1.081750 S    
C47   C51   1.393795 A    
N7    O22   1.299746 A    
Zn3   O13   1.933870 S    
C30   C40   1.417286 A    
H4    C60   1.081032 S    
C25   C29   1.414980 A    
C49   H9    1.081567 S    
C31   C37   1.409963 A    
N12   O32   1.299511 A    
C78   C80   1.418644 A    
C27   C31   1.427112 A    
O4    Zn2   1.972508 S    
N1    C87   1.350531 A    
C80   C82   1.380247 A    
O5    Zn3   1.918586 S    
O3    C3    1.315113 A    
C11   C43   1.421089 A    
C15   C59   1.399192 A    
C76   C84   1.419126 A    
C37   C41   1.426269 A    
C66   C88   1.388427 A    
N2    C88   1.350069 A    
Zn4   O16   1.972497 S    
O14   C6    1.303828 A    
N5    O18   1.301319 A    
C44   C46   1.408842 A    
C17   C21   1.400612 A    
N10   O27   1.299559 A    
C73   C77   1.427574 A    
H2    C58   1.080508 S    
N11   O29   1.301472 A    
C20   C64   1.422471 A    
C19   C23   1.401190 A    
C33   C61   1.418188 A    
C85   H17   1.070269 S    
C28   C32   1.420047 A    
C25   Br13  1.910933 S    
