data_mof_unit_7209.cif
_audit_creation_date              2013-03-05T16:54:28-0500
_audit_creation_method            fapswitch 2.2
_symmetry_space_group_name_H-M    P1
_symmetry_Int_Tables_number       1
_space_group_crystal_system       triclinic
_cell_length_a                    17.532377
_cell_length_b                    16.669419
_cell_length_c                    10.573535
_cell_angle_alpha                 88.29721
_cell_angle_beta                  90.162601
_cell_angle_gamma                 90.483357
_cell_volume                      3088.67875735

loop_
_atom_site_label
_atom_site_type_symbol
_atom_site_description
_atom_site_fract_x
_atom_site_fract_y
_atom_site_fract_z
_atom_type_partial_charge
O1    O     O_R   0.389110 0.566570 0.499990 -0.624633
O2    O     O_R   0.610890 0.566570 0.500010 -0.633256
O3    O     O_R   0.389090 0.433480 0.499980 -0.614440
O4    O     O_R   0.610910 0.433480 0.500020 -0.628750
C1    C     C_R   0.353277 0.499619 0.501605 0.895431
C2    C     C_R   0.646951 0.500456 0.496522 0.876789
O5    O     O_R   0.500000 0.566560 0.316760 -0.622117
O6    O     O_R   0.500000 0.566560 0.683240 -0.621456
O7    O     O_R   0.499970 0.433470 0.316760 -0.620925
O8    O     O_R   0.500030 0.433470 0.683240 -0.612545
C3    C     C_R   0.515799 0.501681 0.262600 0.893366
C4    C     C_R   0.493001 0.498788 0.742295 0.882928
Zn1   Zn    Zn3+2 0.500000 0.588860 0.500000 0.913451
Zn2   Zn    Zn3+2 0.500000 0.411140 0.500000 0.918581
C5    C     C_R   0.534715 0.654637 0.109038 -0.142530
C6    C     C_R   0.453165 0.642020 0.885702 -0.145945
H1    H     H_    0.567926 0.662010 0.194247 0.153491
H2    H     H_    0.417145 0.639396 0.802819 0.158408
C7    C     C_R   0.507697 0.723659 0.047229 -0.187957
C8    C     C_R   0.463950 0.716980 0.938315 -0.168573
H3    H     H_    0.518812 0.782022 0.085967 0.145679
H4    H     H_    0.439463 0.769984 0.893269 0.143536
C9    C     C_R   0.487385 0.572244 0.940543 0.073727
C10   C     C_R   0.519814 0.577765 0.060331 0.094363
C11   C     C_R   0.534659 0.506080 0.129147 -0.237645
C12   C     C_R   0.489898 0.497364 0.879986 -0.223502
C13   C     C_R   0.543527 0.433312 0.068083 0.065299
C14   C     C_R   0.509410 0.425617 0.949060 0.084042
C15   C     C_R   0.849861 0.552991 0.407089 -0.240310
C16   C     C_R   0.146398 0.538788 0.563547 -0.235944
H5    H     H_    0.884731 0.598789 0.360612 0.151475
H6    H     H_    0.108751 0.573828 0.620572 0.151534
C17   C     C_R   0.770577 0.561024 0.416152 0.088466
C18   C     C_R   0.225790 0.544117 0.576975 0.090664
C19   C     C_R   0.729584 0.499978 0.484693 -0.155715
C20   C     C_R   0.270895 0.497784 0.496220 -0.149270
C21   C     C_R   0.767286 0.432830 0.536801 -0.313485
C22   C     C_R   0.237431 0.446362 0.409038 -0.306405
H7    H     H_    0.736136 0.386420 0.589482 0.165922
H8    H     H_    0.272565 0.411477 0.347177 0.160859
C23   C     C_R   0.845002 0.424012 0.521015 0.527138
C24   C     C_R   0.158863 0.439581 0.400298 0.524532
C25   C     C_R   0.886025 0.485758 0.459641 -0.016229
C26   C     C_R   0.113993 0.487661 0.475742 -0.014373
C27   C     C_1   0.966347 0.484132 0.459705 -0.004899
C28   C     C_1   0.033904 0.484938 0.464828 -0.001644
C29   C     C_R   0.453581 0.833291 0.412289 0.016864
C30   C     C_R   0.545794 0.831257 0.586878 0.014698
C31   C     C_R   0.455220 0.748327 0.415780 -0.043430
C32   C     C_R   0.544526 0.746376 0.584016 -0.039198
H9    H     H_    0.421134 0.713775 0.351585 0.147190
H10   H     H_    0.578734 0.710339 0.648474 0.145860
N1    N     N_R   0.500000 0.707230 0.500000 -0.121127
C33   C     C_R   0.499957 0.875242 0.498916 0.056710
C34   C     C_1   0.500286 0.963488 0.497895 -0.076442
C35   C     C_1   0.500574 0.036608 0.497235 -0.075678
C36   C     C_R   0.453524 0.169261 0.412147 0.015275
C37   C     C_R   0.549388 0.166375 0.581127 0.019290
C38   C     C_R   0.453933 0.254051 0.417716 -0.035097
C39   C     C_R   0.548062 0.251323 0.578388 -0.046509
H11   H     H_    0.418151 0.290416 0.356235 0.136440
H12   H     H_    0.585236 0.285556 0.638157 0.123771
N2    N     N_R   0.500000 0.292770 0.500000 -0.113632
C40   C     C_R   0.501017 0.124836 0.496990 0.055937
C41   C     C_3   0.591893 0.367006 0.130194 -0.384837
C42   C     C_3   0.660121 0.345505 0.047303 -0.364797
C43   C     C_3   0.710547 0.283056 0.114008 -0.882520
H13   H     H_    0.732597 0.306192 0.204673 0.264550
H14   H     H_    0.677703 0.226741 0.133208 0.265293
H15   H     H_    0.759873 0.269514 0.052834 0.251789
H16   H     H_    0.640573 0.321304 0.956104 0.216062
H17   H     H_    0.694830 0.400426 0.026406 0.230590
H18   H     H_    0.616660 0.387615 0.220636 0.215884
H19   H     H_    0.556630 0.313194 0.154792 0.197055
C44   C     C_3   0.488491 0.341949 0.903233 -0.394870
C45   C     C_3   0.402456 0.333577 0.877828 -0.316581
C46   C     C_3   0.382718 0.250994 0.827670 -0.877517
H20   H     H_    0.410773 0.242683 0.735052 0.272630
H21   H     H_    0.401516 0.202961 0.895539 0.259414
H22   H     H_    0.320048 0.245701 0.814485 0.248584
H23   H     H_    0.370846 0.341936 0.967459 0.212822
H24   H     H_    0.382800 0.379898 0.807799 0.227892
H25   H     H_    0.522570 0.326551 0.819921 0.210196
H26   H     H_    0.502494 0.294414 0.974435 0.186480
C47   C     C_3   0.403801 0.124700 0.318238 -0.411729
C48   C     C_3   0.361563 0.177623 0.219797 -0.372738
C49   C     C_3   0.315479 0.126672 0.128967 -0.882103
H27   H     H_    0.353787 0.086781 0.076383 0.257782
H28   H     H_    0.272604 0.089566 0.181826 0.264164
H29   H     H_    0.285099 0.166463 0.059828 0.255491
H30   H     H_    0.321680 0.217824 0.268216 0.218296
H31   H     H_    0.403332 0.214682 0.164152 0.221602
H32   H     H_    0.440841 0.083200 0.266022 0.208547
H33   H     H_    0.361285 0.087804 0.372489 0.206674
C50   C     C_3   0.601416 0.118527 0.670538 -0.409304
C51   C     C_3   0.649706 0.167966 0.761933 -0.371665
C52   C     C_3   0.698466 0.113555 0.847326 -0.870722
H34   H     H_    0.661631 0.072511 0.905551 0.259271
H35   H     H_    0.737588 0.077580 0.789582 0.259000
H36   H     H_    0.733195 0.150675 0.911572 0.254862
H37   H     H_    0.688245 0.209444 0.707587 0.217315
H38   H     H_    0.611660 0.203354 0.822512 0.215006
H39   H     H_    0.565316 0.076131 0.727916 0.207730
H40   H     H_    0.640460 0.082525 0.612460 0.207239
C53   C     C_3   0.729382 0.631924 0.352514 -0.373452
C54   C     C_3   0.778690 0.689011 0.269398 -0.377477
C55   C     C_3   0.730355 0.754028 0.204484 -0.893588
H41   H     H_    0.690605 0.726972 0.135533 0.262617
H42   H     H_    0.697197 0.787029 0.275369 0.263745
H43   H     H_    0.768147 0.797378 0.152612 0.251341
H44   H     H_    0.822153 0.718881 0.329051 0.223354
H45   H     H_    0.807844 0.654769 0.195207 0.229192
H46   H     H_    0.683353 0.607489 0.291853 0.193936
H47   H     H_    0.703225 0.668197 0.427226 0.219880
C56   C     C_3   0.263267 0.595788 0.677007 -0.395741
C57   C     C_3   0.208691 0.633805 0.771419 -0.365340
C58   C     C_3   0.252405 0.678555 0.873011 -0.880951
H48   H     H_    0.287890 0.636120 0.930258 0.267946
H49   H     H_    0.289517 0.725912 0.829012 0.256755
H50   H     H_    0.211466 0.707431 0.937033 0.252369
H51   H     H_    0.170963 0.677287 0.720474 0.221583
H52   H     H_    0.173124 0.586310 0.818780 0.232536
H53   H     H_    0.303951 0.557472 0.731963 0.181051
H54   H     H_    0.296119 0.644889 0.628380 0.217281
O9    O     O_3   0.881196 0.357924 0.575115 -0.648473
C59   C     C_3   0.891760 0.299402 0.482461 0.070188
H55   H     H_    0.943180 0.264382 0.509801 0.163255
H56   H     H_    0.903383 0.325787 0.386006 0.121375
C60   C     C_3   0.823129 0.241806 0.478903 -0.363712
H57   H     H_    0.813001 0.215357 0.575185 0.233991
H58   H     H_    0.771279 0.274991 0.448319 0.213352
C61   C     C_3   0.836420 0.174369 0.387272 -0.961145
H59   H     H_    0.845573 0.199485 0.289947 0.266914
H60   H     H_    0.785676 0.134054 0.386545 0.267459
H61   H     H_    0.886958 0.138676 0.416992 0.263718
O10   O     O_3   0.126553 0.390769 0.310673 -0.647765
C62   C     C_3   0.104328 0.316426 0.368213 0.076175
H62   H     H_    0.052720 0.295010 0.317700 0.162057
H63   H     H_    0.087829 0.320764 0.469756 0.123936
C63   C     C_3   0.167571 0.254517 0.354483 -0.361126
H64   H     H_    0.182930 0.250517 0.252954 0.237081
H65   H     H_    0.218896 0.273684 0.407905 0.211695
C64   C     C_3   0.142461 0.171770 0.404794 -0.960962
H66   H     H_    0.127787 0.174135 0.506745 0.264771
H67   H     H_    0.189703 0.128584 0.393728 0.266898
H68   H     H_    0.092078 0.150228 0.351211 0.262779
C65   C     C_3   0.404046 0.880768 0.318368 -0.422382
C66   C     C_3   0.350593 0.830947 0.235418 -0.366017
C67   C     C_3   0.303489 0.884996 0.146793 -0.877649
H69   H     H_    0.267567 0.925781 0.202122 0.260867
H70   H     H_    0.341529 0.921321 0.083257 0.257890
H71   H     H_    0.265677 0.847494 0.087788 0.252337
H72   H     H_    0.384344 0.790197 0.176742 0.230632
H73   H     H_    0.311078 0.794556 0.296421 0.225633
H74   H     H_    0.368217 0.922414 0.372514 0.212027
H75   H     H_    0.442256 0.917638 0.255704 0.203734
C68   C     C_3   0.594231 0.876489 0.681757 -0.419554
C69   C     C_3   0.642701 0.824342 0.772770 -0.364486
C70   C     C_3   0.687463 0.876026 0.864295 -0.880654
H76   H     H_    0.725951 0.918228 0.811408 0.262609
H77   H     H_    0.647838 0.910657 0.923184 0.257936
H78   H     H_    0.722576 0.836905 0.927669 0.253238
H79   H     H_    0.605296 0.782800 0.829020 0.236258
H80   H     H_    0.683782 0.788761 0.717975 0.221377
H81   H     H_    0.633154 0.918004 0.628129 0.209421
H82   H     H_    0.555494 0.913393 0.738970 0.206387

loop_
_geom_bond_atom_site_label_1
_geom_bond_atom_site_label_2
_geom_bond_distance
_ccdc_geom_bond_type
C64   H68   1.110904 S    
C16   H6    1.081698 S    
C49   H27   1.110874 S    
O6    Zn1   1.961953 S    
C64   H67   1.110661 S    
C51   H38   1.111178 S    
C50   C51   1.536481 S    
C55   H42   1.111156 S    
C65   C66   1.537113 S    
C63   C64   1.525398 S    
O7    Zn2   1.962034 S    
C52   H34   1.110834 S    
C29   C31   1.416228 A    
C54   H45   1.111871 S    
C47   C48   1.536928 S    
C57   C58   1.526770 S    
C30   C33   1.419016 A    
C62   H63   1.117316 S    
C59   H55   1.111050 S    
C57   H52   1.111891 S    
C39   N2    1.358740 A    
O1    C1    1.275784 A    
C53   H46   1.111580 S    
C7    H3    1.082712 S    
C63   H65   1.110794 S    
C22   C24   1.384202 A    
C48   H30   1.109253 S    
C58   H49   1.110940 S    
C31   N1    1.359242 A    
C44   H26   1.105313 S    
C36   C38   1.416335 A    
C54   C55   1.527050 S    
C3    C11   1.449798 S    
C37   C39   1.415862 A    
C56   C57   1.538484 S    
C1    C20   1.445412 S    
C15   C17   1.401404 A    
C41   H18   1.111630 S    
C2    C19   1.454607 S    
C24   O10   1.384197 S    
C9    C12   1.420753 A    
O2    Zn1   1.982426 S    
C5    C7    1.392133 A    
C47   H32   1.112391 S    
C68   C69   1.536862 S    
C42   H17   1.112042 S    
C7    C8    1.388537 A    
C50   H39   1.112317 S    
C61   H59   1.110958 S    
C31   H9    1.079217 S    
C32   H10   1.079118 S    
C55   H41   1.109941 S    
C70   H77   1.110941 S    
C65   H74   1.112341 S    
C6    C8    1.394033 A    
C60   C61   1.525495 S    
C30   C32   1.416130 A    
C42   C43   1.526780 S    
C62   H62   1.111107 S    
C21   C23   1.382794 A    
C51   H37   1.111526 S    
C15   C25   1.392768 A    
C15   H5    1.081484 S    
C23   C25   1.395817 A    
C16   C26   1.395325 A    
O2    C2    1.276707 A    
C24   C26   1.396329 A    
C52   H35   1.110832 S    
C26   C28   1.409018 S    
Zn1   N1    1.973159 S    
C54   H44   1.111728 S    
C46   H21   1.110683 S    
C37   C40   1.418627 A    
C62   C63   1.531215 S    
C29   C65   1.525373 S    
C38   H11   1.079030 S    
C32   N1    1.358785 A    
C56   H53   1.112504 S    
C57   H51   1.111722 S    
C16   C18   1.401081 A    
C43   H13   1.111096 S    
C37   C50   1.524649 S    
C23   O9    1.384131 S    
C53   H47   1.111337 S    
C17   C53   1.528267 S    
C10   C11   1.406261 A    
O4    C2    1.277835 A    
O8    Zn2   1.983756 S    
C67   H71   1.110562 S    
C68   H81   1.112223 S    
C48   C49   1.526098 S    
C59   C60   1.534089 S    
C18   C56   1.527408 S    
C27   C28   1.185506 T    
C41   H19   1.110050 S    
C4    C12   1.456526 S    
C43   H14   1.110964 S    
C68   H82   1.112271 S    
O5    C3    1.271635 A    
C44   C45   1.537298 S    
C42   H16   1.108596 S    
C13   C41   1.530197 S    
O7    C3    1.286356 A    
C47   H33   1.112063 S    
C70   H76   1.110717 S    
O6    C4    1.279604 A    
C51   C52   1.526025 S    
C34   C35   1.218649 T    
C35   C40   1.470586 S    
C70   H78   1.109824 S    
C45   C46   1.526567 S    
C65   H75   1.112160 S    
C25   C27   1.408723 S    
O3    Zn2   1.982937 S    
O8    C4    1.278173 A    
C69   H79   1.110597 S    
C29   C33   1.418922 A    
C61   H60   1.110565 S    
C5    C10   1.417150 A    
C8    H4    1.082607 S    
C6    C9    1.420828 A    
C49   H28   1.110857 S    
C69   C70   1.525945 S    
C55   H43   1.110155 S    
C58   H50   1.110440 S    
O1    Zn1   1.976271 S    
C66   H72   1.109233 S    
C45   H24   1.110084 S    
C52   H36   1.109660 S    
C50   H40   1.112229 S    
C36   C40   1.418861 A    
C60   H57   1.111463 S    
C30   C68   1.524931 S    
C46   H22   1.110283 S    
C66   H73   1.111842 S    
C33   C34   1.470693 S    
C59   H56   1.117186 S    
C56   H54   1.111194 S    
C19   C21   1.402543 A    
C12   C14   1.426327 A    
O10   C62   1.416380 S    
O3    C1    1.273929 A    
C45   H23   1.112141 S    
C5    H1    1.080870 S    
C69   H80   1.111844 S    
C11   C13   1.400959 A    
C53   C54   1.538163 S    
C38   N2    1.358830 A    
C43   H15   1.110127 S    
C67   H70   1.110994 S    
C21   H7    1.084455 S    
C48   H31   1.112334 S    
C67   H69   1.110885 S    
C39   H12   1.078249 S    
C22   H8    1.084604 S    
C44   H25   1.103571 S    
O9    C59   1.416547 S    
C61   H61   1.110867 S    
C63   H64   1.111575 S    
Zn2   N2    1.973159 S    
C20   C22   1.401483 A    
C17   C19   1.422698 A    
C36   C47   1.525021 S    
C18   C20   1.415731 A    
C66   C67   1.526386 S    
O4    Zn2   1.976766 S    
C9    C10   1.392092 A    
O5    Zn1   1.983650 S    
C6    H2    1.080473 S    
C41   C42   1.536030 S    
C49   H29   1.110409 S    
C13   C14   1.400744 A    
C46   H20   1.110007 S    
C58   H48   1.110694 S    
C14   C44   1.531328 S    
C64   H66   1.110886 S    
C60   H58   1.110465 S    
