data_mof_unit_37352.cif
_audit_creation_date              2012-12-10T17:33:45-0500
_audit_creation_method            fapswitch 2.2
_symmetry_space_group_name_H-M    P1
_symmetry_Int_Tables_number       1
_space_group_crystal_system       triclinic
_cell_length_a                    11.68422
_cell_length_b                    12.39919
_cell_length_c                    13.054354
_cell_angle_alpha                 116.889988
_cell_angle_beta                  76.754232
_cell_angle_gamma                 101.015275
_cell_volume                      1633.53589908

loop_
_atom_site_label
_atom_site_type_symbol
_atom_type_description
_atom_site_fract_x
_atom_site_fract_y
_atom_site_fract_z
_atom_type_partial_charge
C1    C     C_R   0.504928 0.855623 0.285855 0.768863
C2    C     C_R   0.481329 0.227089 0.840960 -0.141431
C3    C     C_R   0.535371 0.817945 0.072544 -0.017729
C4    C     C_R   0.545737 0.734454 0.955490 -0.160753
C5    C     C_R   0.522412 0.610499 0.924312 -0.122811
C6    C     C_R   0.484559 0.565590 0.009481 0.103048
C7    C     C_R   0.453851 0.650204 0.125972 0.047140
C8    C     C_R   0.467261 0.439126 0.981464 0.000554
C9    C     C_R   0.397544 0.399285 0.065267 0.037968
C10   C     C_R   0.346990 0.485476 0.174409 -0.019700
C11   C     C_R   0.375411 0.608808 0.202766 -0.218795
C12   C     C_R   0.715688 0.999684 0.499692 0.815517
C13   C     C_R   0.519010 0.351013 0.873902 0.326385
C14   C     C_R   0.424898 0.188150 0.928451 -0.152426
C15   C     C_R   0.495506 0.775254 0.160704 -0.167234
C16   C     C_R   0.699011 0.349991 0.335533 -0.254587
C17   C     C_R   0.340113 0.756884 0.647707 0.208733
C18   C     C_R   0.326934 0.676784 0.698022 -0.220450
C19   C     C_R   0.399415 0.584453 0.651415 -0.208170
C20   C     C_R   0.477146 0.561922 0.546124 0.017138
C21   C     C_R   0.501936 0.656657 0.508268 0.280023
C22   C     C_R   0.535863 0.452690 0.481672 -0.059751
C23   C     C_R   0.490321 0.144767 0.714728 0.882163
C24   C     C_R   0.633761 0.450890 0.394377 0.157569
C25   C     C_R   0.664111 0.548702 0.364502 -0.228889
C26   C     C_R   0.597429 0.647618 0.417645 -0.160736
C27   C     C_R   0.498399 0.342533 0.495491 0.148462
C28   C     C_R   0.665718 0.249801 0.361107 0.086664
C29   C     C_R   0.284304 0.000379 0.500428 0.830110
C30   C     C_1   0.837417 0.999657 0.499980 -0.128024
C31   C     C_1   0.940007 0.999907 0.500217 0.035019
C32   C     C_1   0.059944 0.000319 0.500405 0.036903
C33   C     C_1   0.162559 0.000527 0.500451 -0.116096
C34   C     C_R   0.381358 0.274626 0.038400 -0.259036
Cu1   Cu    Cu3+1 0.526510 0.098270 0.475420 1.028688
Cu2   Cu    Cu3+1 0.473490 0.901730 0.524580 0.989935
H1    H     H_    0.738173 0.547099 0.296516 0.165815
H2    H     H_    0.775679 0.348689 0.270115 0.167269
H3    H     H_    0.393472 0.532485 0.699857 0.173590
H4    H     H_    0.259120 0.684767 0.772633 0.172216
H5    H     H_    0.624833 0.715753 0.385964 0.198303
H6    H     H_    0.336861 0.243320 0.103490 0.195111
H7    H     H_    0.526969 0.551256 0.832678 0.191944
H8    H     H_    0.571436 0.765556 0.887274 0.190337
H9    H     H_    0.331339 0.672473 0.284652 0.191924
H10   H     H_    0.717579 0.173010 0.317155 0.149905
N1    N     N_R   0.566700 0.246290 0.438210 -0.216219
N2    N     N_R   0.434010 0.754320 0.561170 -0.248653
O1    O     O_R   0.533340 0.972510 0.318140 -0.562753
O2    O     O_R   0.488570 0.806530 0.359650 -0.613575
O3    O     O_R   0.685190 0.083000 0.479260 -0.566482
O4    O     O_R   0.640410 0.917020 0.520770 -0.588321
O5    O     O_R   0.511430 0.193470 0.640350 -0.508653
O6    O     O_R   0.466660 0.027490 0.681860 -0.547534
O7    O     O_R   0.359590 0.082980 0.479230 -0.550412
O8    O     O_R   0.314810 0.917000 0.520740 -0.581008
C35   C     C_2   0.424104 0.061764 0.914069 0.973622
O9    O     O_2   0.511922 0.007758 0.862941 -0.530713
O10   O     O_R   0.327567 0.005123 0.963668 -0.713866
H11   H     H_    0.255481 0.051857 0.996564 0.313449
C36   C     C_2   0.376266 0.321774 0.551123 0.882070
O11   O     O_2   0.294202 0.307317 0.501193 -0.584872
O12   O     O_R   0.353482 0.321871 0.661023 -0.774192
H12   H     H_    0.266041 0.307390 0.689042 0.326251
C37   C     C_2   0.243240 0.833084 0.682988 0.889351
O13   O     O_2   0.253275 0.940165 0.750930 -0.601648
O14   O     O_R   0.137106 0.779831 0.640513 -0.737792
H13   H     H_    0.076204 0.840045 0.670466 0.339599
C38   C     C_2   0.262946 0.452026 0.261748 0.831780
O15   O     O_2   0.167259 0.493545 0.300509 -0.564122
O16   O     O_R   0.294467 0.378373 0.303909 -0.752765
H14   H     H_    0.227793 0.361158 0.361200 0.379325
Cl1   Cl    Cl    0.654403 0.387061 0.795083 -0.597737
C39   C     C_2   0.558174 0.948253 0.096940 0.900439
O17   O     O_2   0.651023 0.985951 0.052494 -0.580967
O18   O     O_R   0.470837 0.026468 0.165356 -0.710950
H15   H     H_    0.495811 0.112608 0.173663 0.336670

loop_
_geom_bond_atom_site_label_1
_geom_bond_atom_site_label_2
_ccdc_geom_bond_type
C16   C28   A    
C21   C26   A    
C28   N1    A    
C8    C13   A    
Cu1   O5    S    
C19   C20   A    
C34   H6    S    
C17   N2    A    
Cu1   N1    S    
C3    C15   A    
C7    C11   A    
C28   H10   S    
C39   O18   S    
C5    C6    A    
C35   O10   S    
C29   C33   S    
C36   O12   S    
C18   C19   A    
C38   O16   S    
C3    C39   S    
C18   H4    S    
C27   C36   S    
C25   H1    S    
Cu1   Cu2   S    
C8    C9    A    
C37   O14   S    
Cu1   O1    S    
C1    C15   S    
C1    O2    A    
Cu2   O4    S    
C21   N2    A    
C7    C15   A    
C5    H7    S    
O10   H11   S    
C16   C24   A    
C38   O15   D    
C12   O4    A    
C23   O5    A    
C39   O17   D    
Cu1   O7    S    
O14   H13   S    
O18   H15   S    
C6    C8    A    
C4    H8    S    
C25   C26   A    
Cu2   O8    S    
C31   C32   S    
C17   C18   A    
C24   C25   A    
C2    C13   A    
C19   H3    S    
C13   Cl1   S    
C22   C27   A    
Cu1   O3    S    
C9    C34   A    
C22   C24   A    
C11   H9    S    
C3    C4    A    
C12   O3    A    
Cu2   O2    S    
C23   O6    A    
C9    C10   A    
C27   N1    A    
C14   C35   S    
C12   C30   S    
C20   C22   A    
C4    C5    A    
C14   C34   A    
C6    C7    A    
C29   O8    A    
C29   O7    A    
C17   C37   S    
C32   C33   T    
O16   H14   S    
C35   O9    D    
C30   C31   T    
Cu2   N2    S    
C36   O11   D    
C2    C14   A    
Cu2   O6    S    
C10   C11   A    
O12   H12   S    
C10   C38   S    
C20   C21   A    
C37   O13   D    
C2    C23   S    
C1    O1    A    
C26   H5    S    
C16   H2    S    
