data_mof_unit_55830.cif
_audit_creation_date              2012-12-11T15:27:42-0500
_audit_creation_method            fapswitch 2.2
_symmetry_space_group_name_H-M    P1
_symmetry_Int_Tables_number       1
_space_group_crystal_system       triclinic
_cell_length_a                    23.090674
_cell_length_b                    7.315093
_cell_length_c                    15.048961
_cell_angle_alpha                 89.99987
_cell_angle_beta                  108.062393
_cell_angle_gamma                 90.000043
_cell_volume                      2416.6588921

loop_
_atom_site_label
_atom_site_type_symbol
_atom_type_description
_atom_site_fract_x
_atom_site_fract_y
_atom_site_fract_z
_atom_type_partial_charge
O1    O     O_R   0.711000 0.648610 0.341170 -0.526850
O2    O     O_R   0.289000 0.351390 0.658830 -0.526852
O3    O     O_R   0.789000 0.148610 0.158830 -0.526852
O4    O     O_R   0.211000 0.851390 0.841170 -0.526853
O5    O     O_R   0.829650 0.322030 0.336650 -0.548850
O6    O     O_R   0.170350 0.677970 0.663350 -0.548851
O7    O     O_R   0.670350 0.822030 0.163350 -0.548852
O8    O     O_R   0.329650 0.177970 0.836650 -0.548852
C1    C     C_R   0.854194 0.485828 0.356766 0.750135
C2    C     C_R   0.145806 0.514171 0.643233 0.750154
C3    C     C_R   0.645806 0.985828 0.143234 0.750151
C4    C     C_R   0.354194 0.014171 0.856766 0.750162
O9    O     O_R   0.713950 0.319280 0.352070 -0.530650
O10   O     O_R   0.286050 0.680720 0.647930 -0.530648
O11   O     O_R   0.786050 0.819280 0.147930 -0.530657
O12   O     O_R   0.213950 0.180720 0.852070 -0.530652
O13   O     O_R   0.672470 0.142870 0.174360 -0.528014
O14   O     O_R   0.327530 0.857130 0.825640 -0.528010
O15   O     O_R   0.827530 0.642870 0.325640 -0.528010
O16   O     O_R   0.172470 0.357130 0.674360 -0.528008
C5    C     C_R   0.701883 0.487884 0.376469 0.852621
C6    C     C_R   0.298117 0.512116 0.623531 0.852607
C7    C     C_R   0.798117 0.987884 0.123531 0.852670
C8    C     C_R   0.201883 0.012116 0.876469 0.852631
O17   O     O_3   0.736530 0.478650 0.191680 -0.382450
O18   O     O_3   0.263470 0.521350 0.808320 -0.382449
O19   O     O_3   0.763470 0.978650 0.308320 -0.382442
O20   O     O_3   0.236530 0.021350 0.691680 -0.382446
V1    V     V_3+5 0.752500 0.206170 0.260820 1.539940
V2    V     V_3+5 0.247500 0.793830 0.739180 1.539935
V3    V     V_3+5 0.747500 0.706170 0.239180 1.539932
V4    V     V_3+5 0.252500 0.293830 0.760820 1.539931
C9    C     C_R   0.826764 0.000656 0.049447 -0.304350
C10   C     C_R   0.173235 0.999345 0.950553 -0.304330
C11   C     C_R   0.673236 0.500656 0.450553 -0.304331
C12   C     C_R   0.326765 0.499345 0.549447 -0.304321
C13   C     C_R   0.823658 0.093264 0.892529 0.387325
C14   C     C_R   0.176341 0.906746 0.107471 0.387325
C15   C     C_R   0.676342 0.593278 0.607468 0.387319
C16   C     C_R   0.323659 0.406736 0.392530 0.387319
C17   C     C_R   0.796032 0.084015 0.964230 0.370900
C18   C     C_R   0.203967 0.915987 0.035770 0.370905
C19   C     C_R   0.703967 0.584026 0.535767 0.370916
C20   C     C_R   0.296033 0.415981 0.464231 0.370915
C21   C     C_R   0.887377 0.948062 0.068171 0.581736
C22   C     C_R   0.112623 0.051946 0.931829 0.581704
C23   C     C_R   0.612624 0.448050 0.431833 0.581698
C24   C     C_R   0.387376 0.551953 0.568168 0.581685
C25   C     C_R   0.920376 0.000245 0.007632 -0.120320
C26   C     C_R   0.079623 0.999767 0.992367 -0.120310
C27   C     C_R   0.579624 0.500244 0.492368 -0.120304
C28   C     C_R   0.420377 0.499766 0.507632 -0.120300
C29   C     C_R   0.886608 0.049007 0.914935 -0.240662
C30   C     C_R   0.113392 0.951008 0.085065 -0.240649
C31   C     C_R   0.613392 0.549021 0.585063 -0.240665
C32   C     C_R   0.386609 0.450996 0.414935 -0.240658
C33   C     C_R   0.985353 0.997234 0.035249 -0.080903
C34   C     C_R   0.014646 0.002782 0.964751 -0.080909
C35   C     C_R   0.514647 0.497226 0.464750 -0.080910
C36   C     C_R   0.485353 0.502786 0.535249 -0.080911
C37   C     C_R   0.978474 0.000303 0.868668 0.397966
C38   C     C_R   0.021525 0.999721 0.131331 0.397981
C39   C     C_R   0.521525 0.500325 0.631332 0.397959
C40   C     C_R   0.478475 0.499692 0.368667 0.397960
C41   C     C_R   0.915275 0.038746 0.845231 0.532575
C42   C     C_R   0.084725 0.961280 0.154769 0.532548
C43   C     C_R   0.584724 0.538774 0.654767 0.532590
C44   C     C_R   0.415276 0.461254 0.345231 0.532580
C45   C     C_1   0.416663 0.006711 0.918816 -0.155056
C46   C     C_1   0.583337 0.993287 0.081186 -0.155063
C47   C     C_1   0.083337 0.506711 0.581184 -0.155080
C48   C     C_1   0.916663 0.493287 0.418814 -0.155095
C49   C     C_1   0.469122 0.002200 0.970047 0.005303
C50   C     C_1   0.530877 0.997798 0.029956 0.005316
C51   C     C_1   0.030878 0.502200 0.529954 0.005332
C52   C     C_1   0.969123 0.497798 0.470045 0.005359
F1    F     F_    0.880068 0.046943 0.754503 -0.688406
F2    F     F_    0.119932 0.953095 0.245497 -0.688417
F3    F     F_    0.619930 0.546988 0.745495 -0.688399
F4    F     F_    0.380069 0.453064 0.254503 -0.688401
F5    F     F_    0.087452 0.163717 0.857995 -0.691356
F6    F     F_    0.912550 0.836301 0.142008 -0.691337
F7    F     F_    0.412545 0.663739 0.641995 -0.691367
F8    F     F_    0.587455 0.336261 0.358008 -0.691362
F9    F     F_    0.260907 0.849083 0.048991 -0.698779
F10   F     F_    0.739091 0.150915 0.951010 -0.698780
F11   F     F_    0.239094 0.349074 0.451012 -0.698781
F12   F     F_    0.760907 0.650931 0.548986 -0.698775
O21   O     O_3   0.793524 0.165140 0.804373 -0.526978
C53   C     C_3   0.732765 0.102350 0.766892 0.184618
H1    H     H_    0.701171 0.203854 0.781678 0.197341
H2    H     H_    0.724977 0.967244 0.795012 0.168566
C54   C     C_3   0.716819 0.084362 0.661167 -0.593578
H3    H     H_    0.749339 0.990888 0.643172 0.279753
H4    H     H_    0.669965 0.029050 0.631685 0.186533
H5    H     H_    0.718728 0.219146 0.628762 0.179928
O22   O     O_3   0.206474 0.834871 0.195628 -0.526978
C55   C     C_3   0.267234 0.897659 0.233108 0.184614
H6    H     H_    0.275022 0.032765 0.204989 0.168557
H7    H     H_    0.298827 0.796154 0.218324 0.197352
C56   C     C_3   0.283179 0.915649 0.338833 -0.593578
H8    H     H_    0.281270 0.780866 0.371239 0.179932
H9    H     H_    0.330033 0.970958 0.368315 0.186529
H10   H     H_    0.250660 0.009125 0.356828 0.279755
O23   O     O_3   0.706476 0.665153 0.695624 -0.526977
C57   C     C_3   0.767234 0.602352 0.733105 0.184615
H11   H     H_    0.798830 0.703852 0.718322 0.197352
H12   H     H_    0.775020 0.467246 0.704985 0.168549
C58   C     C_3   0.783178 0.584359 0.838830 -0.593590
H13   H     H_    0.750658 0.490886 0.856823 0.279746
H14   H     H_    0.830032 0.529042 0.868312 0.186530
H15   H     H_    0.781270 0.719141 0.871236 0.179934
O24   O     O_3   0.293525 0.334863 0.304373 -0.526979
C59   C     C_3   0.232766 0.397657 0.266893 0.184609
H16   H     H_    0.224979 0.532762 0.295014 0.168549
H17   H     H_    0.201172 0.296153 0.281677 0.197355
C60   C     C_3   0.216821 0.415652 0.161169 -0.593586
H18   H     H_    0.218733 0.280871 0.128763 0.179940
H19   H     H_    0.169966 0.470955 0.131686 0.186525
H20   H     H_    0.249338 0.509135 0.143175 0.279751
O25   O     O_3   0.004520 0.926110 0.804053 -0.541500
C61   C     C_3   0.983682 0.006035 0.714047 0.252376
H21   H     H_    0.976123 0.156095 0.717267 0.164372
H22   H     H_    0.941402 0.936383 0.671641 0.178426
C62   C     C_3   0.030675 0.975039 0.663394 -0.685051
H23   H     H_    0.040021 0.826683 0.660737 0.215416
H24   H     H_    0.012943 0.028171 0.590852 0.163095
H25   H     H_    0.073914 0.046684 0.699356 0.254801
O26   O     O_3   0.995476 0.073907 0.195944 -0.541501
C63   C     C_3   0.016328 0.994036 0.285961 0.252374
H26   H     H_    0.058598 0.063760 0.328352 0.178414
H27   H     H_    0.023912 0.843984 0.282764 0.164375
C64   C     C_3   0.969332 0.024981 0.336611 -0.685080
H28   H     H_    0.926122 0.953134 0.300704 0.254790
H29   H     H_    0.987093 0.972033 0.409186 0.163088
H30   H     H_    0.959922 0.173313 0.339177 0.215470
O27   O     O_3   0.495482 0.426140 0.695952 -0.541498
C65   C     C_3   0.516311 0.506113 0.785948 0.252384
H31   H     H_    0.523856 0.656177 0.782707 0.164370
H32   H     H_    0.558597 0.436507 0.828367 0.178430
C66   C     C_3   0.469320 0.475104 0.836603 -0.685050
H33   H     H_    0.460008 0.326738 0.839317 0.215385
H34   H     H_    0.487034 0.528348 0.909126 0.163115
H35   H     H_    0.426064 0.546639 0.800607 0.254812
O28   O     O_3   0.504521 0.573862 0.304046 -0.541496
C67   C     C_3   0.483687 0.493898 0.214048 0.252396
H36   H     H_    0.441408 0.563538 0.171630 0.178425
H37   H     H_    0.476128 0.343840 0.217284 0.164357
C68   C     C_3   0.530683 0.524859 0.163396 -0.685055
H38   H     H_    0.573925 0.453237 0.199375 0.254813
H39   H     H_    0.512957 0.471674 0.090862 0.163109
H40   H     H_    0.540025 0.673211 0.160710 0.215401

loop_
_geom_bond_atom_site_label_1
_geom_bond_atom_site_label_2
_ccdc_geom_bond_type
O17   V3    S    
C4    C45   S    
O1    C5    A    
C56   H8    S    
C40   O28   S    
O19   V1    S    
C9    C21   A    
C49   C50   S    
O23   C57   S    
O3    C7    A    
C21   F6    S    
C10   C18   A    
C1    C48   S    
C48   C52   T    
O15   V3    S    
C60   H19   S    
O28   C67   S    
C53   H1    S    
C3    C46   S    
C25   C33   A    
C33   C38   A    
O7    C3    A    
C17   F10   S    
C35   C40   A    
C54   H3    S    
C36   C39   A    
C19   F12   S    
C40   C44   A    
C37   O25   S    
C67   H36   S    
C24   C28   A    
C58   H14   S    
O4    C8    A    
C25   C29   A    
C57   H11   S    
C67   C68   S    
O1    V3    S    
O13   V1    S    
C31   C43   A    
O2    V4    S    
O3    V1    S    
C46   C50   T    
C28   C36   A    
C1    O15   A    
C15   C31   A    
C2    O16   A    
C7    C9    S    
O2    C6    A    
C64   H30   S    
C45   C49   T    
C10   C22   A    
C20   F11   S    
C11   C19   A    
O5    V1    S    
C13   C29   A    
C2    C47   S    
C34   C37   A    
O11   C7    A    
C11   C23   A    
C35   C36   A    
O12   C8    A    
C39   O27   S    
C38   O26   S    
O10   V2    S    
C14   O22   S    
O22   C55   S    
C12   C24   A    
C67   H37   S    
C61   H21   S    
C54   H4    S    
C42   F2    S    
C39   C43   A    
O7    V3    S    
C38   C42   A    
O8    V4    S    
C41   F1    S    
C58   H13   S    
C68   H40   S    
O18   V4    S    
C15   C19   A    
C16   C32   A    
C32   C44   A    
C8    C10   S    
C58   H15   S    
C59   H17   S    
C66   H34   S    
C26   C34   A    
C63   H27   S    
C51   C52   S    
O5    C1    A    
C62   H25   S    
C22   F5    S    
C53   H2    S    
C16   O24   S    
C14   C30   A    
C21   C25   A    
O8    C4    A    
O9    C5    A    
C18   F9    S    
C26   C30   A    
C23   F8    S    
O25   C61   S    
C65   H32   S    
C30   C42   A    
O6    V2    S    
C54   H5    S    
C55   H7    S    
C62   H23   S    
C60   H20   S    
C63   C64   S    
C27   C35   A    
C61   H22   S    
C44   F4    S    
C29   C41   A    
C53   C54   S    
C64   H29   S    
O24   C59   S    
O16   V4    S    
O9    V1    S    
C15   O23   S    
C3    O13   A    
C65   C66   S    
O6    C2    A    
C23   C27   A    
O11   V3    S    
C66   H35   S    
C56   H10   S    
C55   C56   S    
C6    C12   S    
O27   C65   S    
C22   C26   A    
C60   H18   S    
C24   F7    S    
C13   O21   S    
C9    C17   A    
O10   C6    A    
C61   C62   S    
C68   H39   S    
C5    C11   S    
O26   C63   S    
C68   H38   S    
C47   C51   T    
C33   C34   A    
C64   H28   S    
C57   H12   S    
O12   V4    S    
O20   V2    S    
C63   H26   S    
C27   C31   A    
C59   H16   S    
C13   C17   A    
C59   C60   S    
C12   C20   A    
C65   H31   S    
O14   V2    S    
C14   C18   A    
C37   C41   A    
C16   C20   A    
C56   H9    S    
C55   H6    S    
C4    O14   A    
C62   H24   S    
O21   C53   S    
C66   H33   S    
C43   F3    S    
O4    V2    S    
C28   C32   A    
C57   C58   S    
