data_mof_unit_16055.cif
_audit_creation_date              2012-12-11T14:23:08-0500
_audit_creation_method            fapswitch 2.2
_symmetry_space_group_name_H-M    P1
_symmetry_Int_Tables_number       1
_space_group_crystal_system       triclinic
_cell_length_a                    11.076388
_cell_length_b                    11.006749
_cell_length_c                    18.771629
_cell_angle_alpha                 91.352938
_cell_angle_beta                  90.212568
_cell_angle_gamma                 61.815354
_cell_volume                      2016.55681628

loop_
_atom_site_label
_atom_site_type_symbol
_atom_type_description
_atom_site_fract_x
_atom_site_fract_y
_atom_site_fract_z
_atom_type_partial_charge
C1    C     C_R   0.230073 0.648460 0.606713 0.530854
C2    C     C_R   0.539356 0.252256 0.727321 -0.161178
C3    C     C_R   0.557708 0.250557 0.801232 -0.030363
C4    C     C_R   0.628949 0.591619 0.608044 0.560211
C5    C     C_R   0.925263 0.132925 0.808983 -0.119889
C6    C     C_R   0.031196 0.110536 0.761900 -0.154941
C7    C     C_R   0.018392 0.096932 0.689198 -0.133568
C8    C     C_R   0.898752 0.105318 0.662549 -0.082013
C9    C     C_R   0.651929 0.195840 0.679757 -0.025533
C10   C     C_R   0.107385 0.698778 0.822386 -0.009843
C11   C     C_R   0.118458 0.580283 0.783695 -0.001233
C12   C     C_3   0.696367 0.520477 0.806095 -0.249544
C13   C     C_R   0.131601 0.575963 0.708239 0.010211
C14   C     C_R   0.158777 0.781418 0.716472 -0.160285
C15   C     C_R   0.124245 0.797411 0.786801 -0.172869
C16   C     C_R   0.623121 0.235126 0.604569 0.535485
C17   C     C_R   0.123982 0.462596 0.816226 -0.128976
C18   C     C_R   0.131877 0.352774 0.775783 -0.156834
C19   C     C_R   0.125116 0.358180 0.702164 -0.129961
C20   C     C_R   0.122106 0.470239 0.668434 -0.107606
C21   C     C_R   0.161445 0.673423 0.675735 0.000079
C22   C     C_R   0.660564 0.660070 0.169847 -0.018532
C23   C     C_3   0.684535 0.665587 0.816830 0.055915
C24   C     C_R   0.769147 0.563682 0.211946 0.033047
C25   C     C_R   0.772382 0.594712 0.284249 0.010066
C26   C     C_R   0.533908 0.760548 0.281091 -0.029300
C27   C     C_R   0.540815 0.755137 0.205671 -0.159963
C28   C     C_R   0.219263 0.649414 0.403120 0.522866
C29   C     C_R   0.882792 0.444970 0.184197 -0.091425
C30   C     C_R   0.006872 0.394146 0.218691 -0.135181
C31   C     C_R   0.013587 0.448754 0.285668 -0.120880
C32   C     C_R   0.896928 0.544487 0.319489 -0.086474
C33   C     C_R   0.651081 0.670437 0.320512 -0.006838
C34   C     C_3   0.643825 0.623921 0.683331 0.037340
C35   C     C_R   0.640051 0.169430 0.175246 0.010176
C36   C     C_R   0.539417 0.156451 0.215807 0.033997
C37   C     C_R   0.491019 0.233608 0.278720 0.021384
C38   C     C_R   0.666087 0.306448 0.270063 -0.156722
C39   C     C_R   0.694075 0.253902 0.200337 -0.162380
C40   C     C_R   0.640582 0.623813 0.392631 0.519234
C41   C     C_R   0.480988 0.072028 0.194359 -0.080338
C42   C     C_R   0.349876 0.105053 0.213942 -0.145107
C43   C     C_R   0.294115 0.189669 0.272557 -0.161665
C44   C     C_R   0.364347 0.251024 0.306430 -0.125312
C45   C     C_3   0.751063 0.675892 0.688811 -0.240798
C46   C     C_R   0.574384 0.284717 0.311950 -0.007259
C47   C     C_R   0.067433 0.727726 0.194320 0.016543
C48   C     C_R   0.026917 0.840037 0.244664 0.014396
C49   C     C_R   0.051703 0.810121 0.317736 0.022724
C50   C     C_R   0.212842 0.577071 0.282467 -0.169203
C51   C     C_R   0.165033 0.596918 0.213983 -0.128843
C52   C     C_R   0.574960 0.301046 0.389686 0.572689
C53   C     C_R   0.982162 0.978029 0.225133 -0.113421
C54   C     C_R   0.964738 0.078823 0.276506 -0.139189
C55   C     C_R   0.965461 0.052047 0.348299 -0.101489
C56   C     C_3   0.691369 0.490378 0.726109 -0.235461
C57   C     C_R   0.001638 0.919163 0.369033 -0.087852
C58   C     C_R   0.147236 0.675304 0.336178 -0.005690
C59   C     C_R   0.704176 0.102461 0.896556 0.545664
C60   C     C_R   0.721302 0.685564 0.890218 0.535861
C61   C     C_R   0.063439 0.734683 0.896798 0.568243
C62   C     C_R   0.676436 0.103967 0.104915 0.527588
C63   C     C_R   0.696046 0.687802 0.097171 0.525203
C64   C     C_3   0.538876 0.779102 0.793091 -0.104972
C65   C     C_R   0.029921 0.747038 0.119473 0.559301
C66   C     C_3   0.507479 0.735658 0.718595 -0.229230
C67   C     C_R   0.689148 0.174700 0.828477 0.005097
C68   C     C_3   0.789358 0.677331 0.766948 -0.249402
C69   C     C_3   0.436845 0.337088 0.849507 -0.239088
C70   C     C_3   0.465358 0.413685 0.912427 -0.291317
C71   C     C_3   0.400539 0.402574 0.981947 -0.414396
C72   C     C_3   0.421751 0.816928 0.848845 -0.248511
C73   C     C_3   0.359637 0.969271 0.874784 -0.304788
C74   C     C_3   0.248478 0.007626 0.931319 -0.434279
C75   C     C_3   0.403964 0.863557 0.318594 -0.212720
C76   C     C_3   0.431146 0.953512 0.375142 -0.237047
C77   C     C_3   0.306896 0.036099 0.423655 -0.421949
C78   C     C_R   0.801212 0.146295 0.782770 0.011286
C79   C     C_R   0.784232 0.145447 0.707693 0.012011
Cr1   Cr    Cr6+3 0.392940 0.397950 0.502230 0.967862
Cr2   Cr    Cr6+3 0.398400 0.708500 0.501260 0.959224
Cr3   Cr    Cr6+3 0.708640 0.393530 0.496460 0.977729
Cr4   Cr    Cr6+3 0.937880 0.938320 0.007620 0.964957
Cr5   Cr    Cr6+3 0.625560 0.937220 0.994510 0.956206
Cr6   Cr    Cr6+3 0.938080 0.625010 0.001190 0.975121
H1    H     H_    0.547783 0.874551 0.784300 0.151662
H2    H     H_    0.194863 0.848720 0.695606 0.147034
H3    H     H_    0.121906 0.882990 0.815745 0.150855
H4    H     H_    0.142931 0.264816 0.803629 0.107498
H5    H     H_    0.125701 0.274534 0.670817 0.117726
H6    H     H_    0.111862 0.472808 0.611164 0.134668
H7    H     H_    0.879507 0.396876 0.133787 0.128041
H8    H     H_    0.454099 0.824550 0.174789 0.114384
H9    H     H_    0.095981 0.316761 0.191169 0.123317
H10   H     H_    0.106046 0.418712 0.313972 0.118037
H11   H     H_    0.436461 0.691129 0.723050 0.121645
H12   H     H_    0.794583 0.410907 0.707430 0.164709
H13   H     H_    0.904061 0.580283 0.372883 0.123799
H14   H     H_    0.720966 0.357411 0.292434 0.145113
H15   H     H_    0.533704 0.981924 0.161245 0.176951
H16   H     H_    0.765508 0.269852 0.167938 0.109289
H17   H     H_    0.296940 0.054950 0.188302 0.099271
H18   H     H_    0.202117 0.196146 0.295291 0.117546
H19   H     H_    0.315333 0.313349 0.353104 0.158279
H20   H     H_    0.308936 0.490158 0.292419 0.125725
H21   H     H_    0.972237 0.009301 0.170899 0.165145
H22   H     H_    0.214706 0.513485 0.175009 0.146666
H23   H     H_    0.887243 0.585700 0.774476 0.173535
H24   H     H_    0.456569 0.829080 0.685642 0.131450
H25   H     H_    0.947046 0.179433 0.260475 0.114618
H26   H     H_    0.944892 0.132494 0.387942 0.137119
H27   H     H_    0.005883 0.899986 0.425536 0.124438
H28   H     H_    0.800793 0.770839 0.779415 0.116453
H29   H     H_    0.707987 0.781692 0.667504 0.126986
H30   H     H_    0.793530 0.439021 0.828229 0.143898
H31   H     H_    0.610547 0.516491 0.834109 0.111116
H32   H     H_    0.618484 0.449080 0.717673 0.119376
H33   H     H_    0.288865 0.442041 0.975642 0.177236
H34   H     H_    0.844970 0.609529 0.657313 0.151958
H35   H     H_    0.447013 0.293712 0.998129 0.190961
H36   H     H_    0.417775 0.463856 0.024817 0.146774
H37   H     H_    0.576224 0.375688 0.921594 0.154476
H38   H     H_    0.421384 0.524972 0.900305 0.147805
H39   H     H_    0.363376 0.419313 0.816169 0.145026
H40   H     H_    0.389747 0.273372 0.867396 0.161245
H41   H     H_    0.158514 0.004305 0.908259 0.171611
H42   H     H_    0.287604 0.936254 0.976581 0.171144
H43   H     H_    0.215495 0.114345 0.951684 0.108692
H44   H     H_    0.437458 0.992756 0.898259 0.228785
H45   H     H_    0.436180 0.307835 0.706867 0.156003
H46   H     H_    0.320500 0.037880 0.828940 0.120803
H47   H     H_    0.340958 0.799292 0.825429 0.142306
H48   H     H_    0.457560 0.748153 0.895227 0.158437
H49   H     H_    0.133924 0.443501 0.872152 0.157574
H50   H     H_    0.210304 0.082824 0.393214 0.129722
H51   H     H_    0.298925 0.967140 0.463443 0.174945
H52   H     H_    0.318897 0.118961 0.452468 0.138188
H53   H     H_    0.519922 0.897601 0.409980 0.175453
H54   H     H_    0.468201 0.016835 0.348905 0.183845
H55   H     H_    0.323976 0.927694 0.281199 0.121785
H56   H     H_    0.939958 0.144787 0.865054 0.128080
H57   H     H_    0.356202 0.806926 0.341739 0.213581
H58   H     H_    0.129478 0.086842 0.782029 0.099454
H59   H     H_    0.104457 0.071484 0.653808 0.099016
H60   H     H_    0.896526 0.083433 0.606284 0.131472
O1    O     O_R   0.507340 0.255690 0.581430 -0.518602
O2    O     O_R   0.837290 0.593240 0.915240 -0.538171
O3    O     O_R   0.065320 0.635310 0.931580 -0.526527
O4    O     O_R   0.280360 0.527380 0.578910 -0.515589
O5    O     O_R   0.068470 0.828620 0.091850 -0.536710
O6    O     O_R   0.799150 0.057200 0.079350 -0.533641
O7    O     O_R   0.585220 0.080180 0.076770 -0.545401
O8    O     O_R   0.627170 0.809480 0.067050 -0.519029
O9    O     O_R   0.816200 0.596410 0.076500 -0.527521
O10   O     O_R   0.045770 0.638240 0.081070 -0.498555
O11   O     O_3   0.833840 0.833520 0.001110 -0.273123
O12   O     O_R   0.524510 0.695820 0.424050 -0.516388
O13   O     O_R   0.260600 0.739610 0.584580 -0.541538
O14   O     O_R   0.532370 0.695050 0.573830 -0.509437
O15   O     O_R   0.744850 0.503430 0.576380 -0.528021
O16   O     O_R   0.699080 0.276500 0.571950 -0.518424
O17   O     O_R   0.498860 0.256520 0.419860 -0.540105
O18   O     O_R   0.272490 0.528150 0.429140 -0.539304
O19   O     O_R   0.252110 0.740440 0.423010 -0.547207
O20   O     O_R   0.736370 0.504260 0.414810 -0.529621
O21   O     O_R   0.691220 0.277270 0.422180 -0.503526
O22   O     O_3   0.499990 0.499990 0.499980 -0.284490
O23   O     O_R   0.089570 0.825450 0.930590 -0.536466
O24   O     O_R   0.818700 0.054260 0.929860 -0.528307
O25   O     O_R   0.606310 0.077010 0.915520 -0.537502
O26   O     O_R   0.646730 0.806540 0.917560 -0.516427

loop_
_geom_bond_atom_site_label_1
_geom_bond_atom_site_label_2
_ccdc_geom_bond_type
C73   H46   S    
C1    C21   S    
Cr2   O14   S    
C11   C13   A    
C41   C42   A    
C8    H60   S    
Cr6   O3    S    
C43   C44   A    
Cr5   O26   S    
C34   C66   S    
C44   H19   S    
C7    C8    A    
C4    O15   A    
C53   C54   A    
C34   C56   S    
C12   C23   S    
C26   C27   A    
C62   O7    A    
C71   H35   S    
C56   H32   S    
C5    C6    A    
C14   C21   A    
C1    O13   A    
C3    C69   S    
C9    C16   S    
C77   H52   S    
C14   H2    S    
Cr5   O25   S    
C75   H55   S    
Cr6   O10   S    
C30   C31   A    
C31   H10   S    
Cr1   O4    S    
C57   H27   S    
C52   O17   A    
C46   C52   S    
C49   C57   A    
C54   H25   S    
C16   O1    A    
C18   C19   A    
C9    C79   A    
C65   O5    A    
C24   C29   A    
C52   O21   A    
C22   C63   S    
C53   H21   S    
C74   H43   S    
C19   C20   A    
C50   H20   S    
C37   C46   A    
C39   H16   S    
C70   C71   S    
C60   O2    A    
C59   O25   A    
Cr1   O22   S    
C4    C34   S    
C71   H33   S    
C68   H28   S    
C12   H30   S    
C59   C67   S    
C45   H34   S    
C25   C32   A    
Cr1   O1    S    
C69   H40   S    
C18   H4    S    
C36   C41   A    
C23   C60   S    
C67   C78   A    
C56   H12   S    
C74   H42   S    
C42   H17   S    
C64   H1    S    
C7    H59   S    
C72   H47   S    
Cr4   O6    S    
Cr3   O22   S    
C73   C74   S    
C48   C53   A    
C20   H6    S    
C73   H44   S    
C33   C40   S    
Cr2   O12   S    
C62   O6    A    
C50   C58   A    
C40   O12   A    
C38   C39   A    
C76   C77   S    
C63   O8    A    
C78   C79   A    
C38   H14   S    
C47   C51   A    
Cr4   O11   S    
C69   H39   S    
C50   C51   A    
C45   H29   S    
C49   C58   A    
Cr6   O11   S    
C64   C66   S    
C23   C68   S    
C35   C39   A    
C75   C76   S    
Cr1   O18   S    
C29   C30   A    
C75   H57   S    
C8    C79   A    
Cr3   O15   S    
Cr5   O8    S    
C70   H37   S    
C26   C33   A    
C5    H56   S    
C47   C48   A    
C45   C68   S    
C17   C18   A    
Cr2   O22   S    
C41   H15   S    
C13   C21   A    
C34   C45   S    
C24   C25   A    
C1    O4    A    
Cr1   O17   S    
C40   O20   A    
C12   C56   S    
Cr5   O7    S    
C23   C64   S    
C77   H51   S    
C76   H53   S    
C22   C27   A    
C55   C57   A    
Cr2   O19   S    
C22   C24   A    
C27   H8    S    
C10   C61   S    
C42   C43   A    
C61   O3    A    
C28   O19   A    
C66   H11   S    
Cr3   O21   S    
C76   H54   S    
C54   C55   A    
C11   C17   A    
Cr2   O13   S    
C13   C20   A    
C55   H26   S    
C60   O26   A    
C71   H36   S    
C31   C32   A    
C3    C67   A    
Cr6   O2    S    
C63   O9    A    
C72   C73   S    
C6    C7    A    
Cr3   O16   S    
C28   C58   S    
C16   O16   A    
C68   H23   S    
Cr4   O23   S    
C10   C15   A    
C61   O23   A    
C26   C75   S    
Cr4   O5    S    
C37   C44   A    
C2    C3    A    
C5    C78   A    
C65   O10   A    
C19   H5    S    
Cr5   O11   S    
C72   H48   S    
C74   H41   S    
C36   C37   A    
C48   C49   A    
Cr4   O24   S    
C2    H45   S    
C32   H13   S    
C35   C62   S    
Cr6   O9    S    
C64   C72   S    
C66   H24   S    
C69   C70   S    
C43   H18   S    
C38   C46   A    
C10   C11   A    
C70   H38   S    
C4    O14   A    
C51   H22   S    
C30   H9    S    
C17   H49   S    
C14   C15   A    
C35   C36   A    
C77   H50   S    
C6    H58   S    
C59   O24   A    
C2    C9    A    
C47   C65   S    
C29   H7    S    
C28   O18   A    
C25   C33   A    
C15   H3    S    
C12   H31   S    
Cr3   O20   S    
