data_mof_unit_59030.cif
_audit_creation_date              2013-03-05T16:05:13-0500
_audit_creation_method            fapswitch 2.2
_symmetry_space_group_name_H-M    P1
_symmetry_Int_Tables_number       1
_space_group_crystal_system       triclinic
_cell_length_a                    8.302893
_cell_length_b                    15.117399
_cell_length_c                    14.975614
_cell_angle_alpha                 98.626405
_cell_angle_beta                  97.654131
_cell_angle_gamma                 98.702713
_cell_volume                      1813.52966906

loop_
_atom_site_label
_atom_site_type_symbol
_atom_site_description
_atom_site_fract_x
_atom_site_fract_y
_atom_site_fract_z
_atom_type_partial_charge
P1    P     P_3+3 0.996570 0.418570 0.288410 0.500976
O1    O     O_2   0.826460 0.445380 0.275370 -0.378727
O2    O     O_3   0.098920 0.448470 0.388920 -0.357651
O3    O     O_3   0.628660 0.613390 0.338240 -0.376674
O4    O     O_2   0.736958 0.564349 0.185649 -0.379887
O5    O     O_3   0.948571 0.299726 0.264021 -0.556408
O6    O     O_3   0.617176 0.715905 0.200953 -0.483531
H1    H     H_    0.761672 0.766006 0.328697 0.116172
C1    C     C_3   0.678133 0.876126 0.269231 -0.818547
H2    H     H_    0.635511 0.920535 0.323957 0.238093
H3    H     H_    0.809257 0.903113 0.270583 0.287342
P2    P     P_3+3 0.693070 0.712070 0.580610 0.501815
P3    P     P_3+3 0.108029 0.778746 0.390414 0.564180
O7    O     O_2   0.863170 0.725020 0.553760 -0.362961
O8    O     O_3   0.060910 0.661460 0.386100 -0.306085
O9    O     O_2   0.002609 0.816497 0.459250 -0.370281
O10   O     O_3   0.735116 0.738238 0.700163 -0.560212
O11   O     O_3   0.023801 0.814909 0.289392 -0.574926
C2    C     C_3   0.031297 0.759632 0.205927 0.922620
H4    H     H_    0.977768 0.687896 0.205574 0.048805
C3    C     C_3   0.939679 0.795002 0.126599 -0.814110
H5    H     H_    0.812921 0.800822 0.134971 0.276016
H6    H     H_    0.001680 0.864032 0.121107 0.254215
C4    C     C_3   0.287430 0.746448 0.682268 0.435292
H7    H     H_    0.399274 0.722366 0.662736 0.115729
H8    H     H_    0.187235 0.738893 0.623261 0.134724
C5    C     C_3   0.335358 0.847202 0.721949 -0.970164
H9    H     H_    0.435949 0.858120 0.781419 0.283323
H10   H     H_    0.379132 0.885112 0.669223 0.215460
H11   H     H_    0.227019 0.873873 0.744375 0.277291
Ba1   Ba    Ba6+2 0.844900 0.542440 0.457470 1.654719
C6    C     C_3   0.918081 0.265137 0.342778 0.375362
H12   H     H_    0.821070 0.296353 0.372657 0.092681
H13   H     H_    0.031893 0.278422 0.394069 0.133917
C7    C     C_3   0.861079 0.162783 0.316312 -0.830723
H14   H     H_    0.738317 0.147590 0.272193 0.262636
H15   H     H_    0.852726 0.131122 0.377915 0.225856
H16   H     H_    0.950559 0.132184 0.278260 0.312214
C8    C     C_3   0.779527 0.663429 0.735841 0.370782
H17   H     H_    0.883303 0.640584 0.704999 0.096970
H18   H     H_    0.672774 0.606784 0.723153 0.130494
C9    C     C_3   0.833366 0.692188 0.838634 -0.865508
H19   H     H_    0.950553 0.741980 0.852975 0.266395
H20   H     H_    0.852229 0.632658 0.871204 0.237790
H21   H     H_    0.736876 0.724161 0.869040 0.289854
P4    P     P_3+3 0.193140 0.581510 0.711600 0.492062
O12   O     O_2   0.363260 0.554650 0.724690 -0.378865
O13   O     O_3   0.090800 0.551610 0.611090 -0.357540
O14   O     O_3   0.561050 0.386690 0.661770 -0.394140
O15   O     O_3   0.230041 0.699994 0.748641 -0.570895
P5    P     P_3+3 0.087484 0.221822 0.614069 0.463431
O16   O     O_3   0.598950 0.388690 0.448890 -0.386817
O17   O     O_3   0.128800 0.338610 0.613910 -0.397620
O18   O     O_2   0.202465 0.177728 0.554702 -0.367043
O19   O     O_3   0.152169 0.202382 0.724361 -0.516952
Ba2   Ba    Ba6+2 0.344940 0.457640 0.542540 1.600572
P6    P     P_3+3 0.590055 0.602827 0.220318 0.562858
C10   C     C_3   0.652070 0.777587 0.285113 0.529867
H22   H     H_    0.550386 0.768921 0.324962 0.119777
H23   H     H_    0.611798 0.881645 0.201475 0.300349
O20   O     O_3   0.590770 0.611390 0.551120 -0.351617
C11   C     C_3   0.416466 0.302841 0.258076 0.265846
H24   H     H_    0.295082 0.313108 0.277463 0.093419
H25   H     H_    0.504723 0.368228 0.274676 0.060435
C12   C     C_3   0.394533 0.270276 0.154611 -0.103833
H26   H     H_    0.344935 0.321682 0.118241 0.041246
H27   H     H_    0.517597 0.263903 0.135356 0.136703
P7    P     P_3+3 0.505924 0.274558 0.421492 0.446198
O21   O     O_2   0.326540 0.275010 0.446300 -0.378063
O22   O     O_3   0.479983 0.237783 0.303187 -0.555195
H28   H     H_    0.935056 0.748415 0.061091 0.260419
C13   C     C_3   0.117986 0.272824 0.787745 0.415151
H29   H     H_    0.198641 0.337987 0.785727 0.146934
H30   H     H_    0.986517 0.280529 0.774025 0.012660
C14   C     C_3   0.152534 0.250869 0.883450 -0.837493
H31   H     H_    0.126848 0.306116 0.934375 0.198968
H32   H     H_    0.072406 0.186321 0.887828 0.271342
H33   H     H_    0.283944 0.243957 0.899913 0.295393
P8    P     P_3+3 0.607195 0.392295 0.779765 0.457773
C15   C     C_3   0.575547 0.218882 0.736396 0.457604
H34   H     H_    0.706530 0.232309 0.726328 0.007863
O23   O     O_2   0.493620 0.452014 0.823891 -0.371268
O24   O     O_3   0.543487 0.284577 0.805595 -0.522050
H35   H     H_    0.493657 0.217627 0.671023 0.146026
H36   H     H_    0.564256 0.073083 0.708575 0.213232
C16   C     C_3   0.541096 0.125595 0.763342 -0.906755
H37   H     H_    0.410451 0.109563 0.773406 0.293641
H38   H     H_    0.623140 0.124133 0.827846 0.260901
C17   C     C_R   0.381852 0.533951 0.164458 0.284230
H39   H     H_    0.347833 0.485916 0.289923 0.174807
C18   C     C_R   0.116876 0.464360 0.201428 0.283491
C19   C     C_R   0.922903 0.475392 0.763112 -0.543689
C20   C     C_R   0.825980 0.440413 0.823212 0.243052
C21   C     C_R   0.893125 0.444808 0.915074 -0.209435
C22   C     C_R   0.056990 0.489835 0.950567 0.042800
C23   C     C_R   0.148840 0.531531 0.889116 -0.091835
C24   C     C_R   0.132560 0.494934 0.044567 0.040257
C25   C     C_R   0.304652 0.534385 0.072690 -0.161600
C26   C     C_R   0.388794 0.575397 0.008439 0.415824
C27   C     C_R   0.306785 0.579440 0.922728 -0.133121
C28   C     C_R   0.041488 0.463183 0.111501 -0.240042
C29   C     C_R   0.287715 0.492819 0.223532 -0.404130
C30   C     C_R   0.082525 0.523247 0.794542 0.261450
H40   H     H_    0.910880 0.437561 0.096004 0.165471
H41   H     H_    0.869871 0.469879 0.692063 0.170751
H42   H     H_    0.814586 0.411901 0.956481 0.164584
H43   H     H_    0.376345 0.616848 0.880502 0.195758
C31   C     C_R   0.325834 0.827467 0.445894 0.168405
C32   C     C_R   0.580474 0.794697 0.527732 0.118112
C33   C     C_R   0.771375 0.232886 0.533647 -0.536697
C34   C     C_R   0.869147 0.174680 0.568116 0.243871
C35   C     C_R   0.803410 0.082242 0.562098 -0.216735
C36   C     C_R   0.639529 0.045727 0.516799 0.060346
C37   C     C_R   0.548765 0.106039 0.476499 -0.088266
C38   C     C_R   0.564035 0.951595 0.506739 0.009244
C39   C     C_R   0.396145 0.921743 0.460076 -0.209062
C40   C     C_R   0.310579 0.987618 0.426095 0.426266
C41   C     C_R   0.391534 0.073845 0.428801 -0.177385
C42   C     C_R   0.650287 0.886725 0.541847 -0.267580
C43   C     C_R   0.421283 0.765819 0.478693 -0.055712
C44   C     C_R   0.614208 0.198904 0.484997 0.249144
H44   H     H_    0.772972 0.905456 0.580437 0.180476
H45   H     H_    0.822133 0.304090 0.538878 0.168816
H46   H     H_    0.883720 0.041144 0.591886 0.170541
H47   H     H_    0.320259 0.117013 0.395917 0.216698
N1    N     N_R   0.283776 0.182628 0.124919 0.288917
O25   O     O_R   0.270066 0.141193 0.040967 -0.377655
O26   O     O_R   0.197242 0.145483 0.180260 -0.343849
N2    N     N_R   0.561600 0.609257 0.023619 0.249764
O27   O     O_R   0.609717 0.692905 0.014590 -0.399866
O28   O     O_R   0.660064 0.551495 0.008462 -0.418822
N3    N     N_R   0.358051 0.671218 0.459016 0.257691
O29   O     O_R   0.351352 0.627119 0.377778 -0.370553
O30   O     O_R   0.277681 0.632539 0.514933 -0.362196
N4    N     N_R   0.138289 0.974378 0.392063 0.259934
O31   O     O_R   0.039352 0.987744 0.451178 -0.402374
O32   O     O_R   0.094995 0.991138 0.310296 -0.395937
S1    S     S_3+6 0.236033 0.768916 0.186700 -0.054957
O33   O     O_2   0.303593 0.700161 0.234343 -0.340776
O34   O     O_2   0.250020 0.748889 0.086857 -0.305958
O35   O     O_3   0.332907 0.874638 0.233090 -0.556517
H48   H     H_    0.297879 0.913387 0.188962 0.384203

loop_
_geom_bond_atom_site_label_1
_geom_bond_atom_site_label_2
_geom_bond_distance
_ccdc_geom_bond_type
O5    C6    1.397524 S    
C20   C21   1.401711 A    
C17   C29   1.407950 A    
C5    H10   1.110486 S    
C22   C23   1.428741 A    
C31   C43   1.412447 A    
C2    H4    1.106998 S    
C31   C39   1.428830 A    
C4    C5    1.521026 S    
Ba1   O16   2.827225 S    
C15   H35   1.110986 S    
P1    O1    1.523414 D    
C24   C25   1.442626 A    
N4    O31   1.299867 A    
C8    H18   1.109809 S    
H36   C16   1.110278 S    
N1    O25   1.300002 A    
P6    C17   1.892377 S    
P3    O11   1.777262 S    
C3    H28   1.111040 S    
C2    C3    1.532568 S    
C4    H8    1.109568 S    
C1    C10   1.531310 S    
P3    C31   1.875164 S    
C33   C44   1.388947 A    
C16   H38   1.110562 S    
O17   Ba2   2.776958 S    
C38   C39   1.445919 A    
P1    Ba1   3.412190 S    
C39   C40   1.423109 A    
C11   O22   1.401130 S    
N4    O32   1.302395 A    
O11   C2    1.409839 S    
O10   C8    1.398358 S    
Ba1   O20   2.919055 S    
C33   C34   1.393028 A    
C35   C36   1.425079 A    
C11   H25   1.111047 S    
C19   C30   1.393886 A    
H1    C10   1.099563 S    
C37   C44   1.406930 A    
H39   C29   1.078552 S    
C34   C35   1.406112 A    
P7    O21   1.583073 D    
C12   H27   1.111948 S    
P2    O10   1.750161 S    
P5    C34   1.843203 S    
C41   H47   1.074352 S    
Ba1   Ba2   4.559218 S    
C1    H2    1.109830 S    
O7    Ba1   2.888215 S    
O6    C10   1.417864 S    
O19   C13   1.405543 S    
O16   P7    1.744069 S    
P1    C18   1.892506 S    
C35   H46   1.076516 S    
C3    H5    1.091324 S    
C5    H11   1.110909 S    
C9    H20   1.107383 S    
C18   C28   1.403797 A    
C15   O24   1.405646 S    
P2    C32   1.874625 S    
C8    C9    1.521727 S    
C4    O15   1.393730 S    
P4    O13   1.590887 S    
C26   N2    1.424173 S    
P1    O5    1.751493 S    
C6    C7    1.523069 S    
C7    H16   1.108331 S    
C4    H7    1.105968 S    
C13   H30   1.110505 S    
C8    H17   1.106007 S    
Ba2   O21   2.888441 S    
C16   H37   1.110433 S    
C15   H34   1.110283 S    
C10   H22   1.100122 S    
O14   P8    1.743940 S    
C36   C38   1.442648 A    
O1    Ba1   2.869443 S    
P1    O2    1.590918 S    
C9    H21   1.109562 S    
C6    H13   1.107359 S    
O3    P6    1.730881 S    
C14   H31   1.109419 S    
C11   H24   1.111701 S    
C33   H45   1.082149 S    
C1    H3    1.099723 S    
O2    Ba2   2.837448 S    
C26   C27   1.385000 A    
O2    Ba1   2.926807 S    
C14   H32   1.110610 S    
C37   C41   1.380725 A    
S1    O34   1.503972 D    
P7    O22   1.749581 S    
P2    O7    1.511913 D    
C12   H26   1.110952 S    
C28   H40   1.076450 S    
C38   C42   1.420521 A    
Ba1   O13   2.836846 S    
P3    O8    1.746415 S    
P2    Ba1   3.427067 S    
P3    O9    1.539329 D    
C9    H19   1.110686 S    
C18   C29   1.397938 A    
C40   N4    1.426429 S    
C32   C42   1.396894 A    
C36   C37   1.419615 A    
C42   H44   1.076378 S    
O13   Ba2   2.927645 S    
P4    O12   1.523848 D    
C21   H42   1.076715 S    
C27   H43   1.076564 S    
N1    O26   1.301737 A    
C11   C12   1.531405 S    
C7    H15   1.106537 S    
C43   N3    1.418756 S    
C13   H29   1.111070 S    
S1    O35   1.677199 S    
P7    C44   1.852154 S    
P8    O23   1.544547 D    
C22   C24   1.448717 A    
O8    Ba1   2.776220 S    
O14   Ba2   2.803868 S    
P4    C30   1.883991 S    
P4    O15   1.760818 S    
C15   C16   1.520815 S    
O4    P6    1.545461 D    
C17   C25   1.438354 A    
C1    H23   1.109207 S    
C6    H12   1.104265 S    
P5    O18   1.545011 D    
C3    H6    1.111417 S    
N2    O27   1.299906 A    
P8    C20   1.842724 S    
C40   C41   1.365419 A    
C12   N1    1.464463 S    
P8    O24   1.750416 S    
P2    O20   1.593818 S    
C13   C14   1.519413 S    
C2    S1    1.750018 S    
C23   C27   1.387478 A    
C19   C20   1.394361 A    
N3    O29   1.286498 A    
P5    O19   1.749277 S    
C21   C22   1.419699 A    
C14   H33   1.110287 S    
O3    Ba1   2.804533 S    
S1    O33   1.482012 D    
C19   H41   1.081867 S    
N3    O30   1.290765 A    
C25   C26   1.423114 A    
C23   C30   1.429315 A    
P4    Ba2   3.412786 S    
C5    H9    1.110851 S    
Ba2   O20   2.826637 S    
C7    H14   1.110167 S    
P5    O17   1.747286 S    
O35   H48   0.990409 S    
O6    P6    1.762563 S    
C24   C28   1.429459 A    
O16   Ba2   2.918215 S    
C32   C43   1.395545 A    
O12   Ba2   2.869969 S    
N2    O28   1.299380 A    
