data_mof_unit_63319.cif
_audit_creation_date              2012-10-26T18:20:27-0400
_audit_creation_method            fapswitch 2.2
_symmetry_space_group_name_H-M    P1
_symmetry_Int_Tables_number       1
_space_group_crystal_system       tetragonal
_cell_length_a                    18.370257
_cell_length_b                    18.370257
_cell_length_c                    30.307686
_cell_angle_alpha                 90.0
_cell_angle_beta                  90.0
_cell_angle_gamma                 90.0
_cell_volume                      10227.8239364

loop_
_atom_site_label
_atom_site_type_symbol
_atom_type_description
_atom_site_fract_x
_atom_site_fract_y
_atom_site_fract_z
_atom_type_partial_charge
C1    C     C_R   0.139896 0.500000 0.000000 0.576630
C2    C     C_1   0.500000 0.217457 0.000000 0.016419
C3    C     C_R   0.094268 0.592970 0.772881 -0.085712
C4    C     C_R   0.407030 0.905731 0.227118 -0.085712
C5    C     C_R   0.905731 0.592970 0.227118 -0.085712
C6    C     C_R   0.592970 0.094269 0.227118 -0.085712
C7    C     C_R   0.094268 0.407030 0.227118 -0.085712
C8    C     C_1   0.782543 0.500000 0.000000 0.016419
C9    C     C_1   0.500000 0.782543 0.000000 0.016419
C10   C     C_1   0.717457 0.000000 0.500000 0.016419
C11   C     C_1   0.000000 0.717457 0.500000 0.016419
C12   C     C_1   0.282543 1.000000 0.500000 0.016419
C13   C     C_1   1.000000 0.282543 0.500000 0.016419
C14   C     C_R   1.000000 0.500000 0.085665 0.614349
C15   C     C_R   0.500000 0.000000 0.085665 0.614349
C16   C     C_R   1.000000 0.500000 0.914335 0.614349
C17   C     C_R   0.500000 0.139896 0.000000 0.576630
C18   C     C_R   0.500000 1.000000 0.914335 0.614349
C19   C     C_R   0.500000 1.000000 0.585665 0.614349
C20   C     C_R   1.000000 0.500000 0.585665 0.614349
C21   C     C_R   0.500000 0.000000 0.414335 0.614349
C22   C     C_R   0.000000 0.500000 0.414335 0.614349
C23   C     C_1   0.282771 0.500000 0.000000 -0.001921
C24   C     C_1   0.500000 0.282771 0.000000 -0.001921
C25   C     C_1   0.717229 0.500000 0.000000 -0.001921
C26   C     C_1   0.500000 0.717229 0.000000 -0.001921
C27   C     C_1   0.782771 0.000000 0.500000 -0.001921
C28   C     C_R   0.860104 0.500000 0.000000 0.576630
C29   C     C_1   1.000000 0.782771 0.500000 -0.001921
C30   C     C_1   0.217229 1.000000 0.500000 -0.001921
C31   C     C_1   1.000000 0.217229 0.500000 -0.001921
C32   C     C_R   0.500000 0.360343 0.000000 0.551967
C33   C     C_R   0.639657 0.500000 0.000000 0.551967
C34   C     C_R   0.500000 0.639657 0.000000 0.551967
C35   C     C_R   0.360343 0.500000 0.000000 0.551967
C36   C     C_R   1.000000 0.860343 0.500000 0.551967
C37   C     C_R   0.139657 1.000000 0.500000 0.551967
C38   C     C_R   1.000000 0.139657 0.500000 0.551967
C39   C     C_R   0.500000 0.860104 0.000000 0.576630
C40   C     C_R   0.860343 0.000000 0.500000 0.551967
C41   C     C_R   0.044860 0.450691 0.343014 0.181295
C42   C     C_R   0.549309 0.044860 0.343014 0.181294
C43   C     C_R   0.955140 0.549309 0.343014 0.181295
C44   C     C_R   0.450691 0.955140 0.343014 0.181295
C45   C     C_R   0.044860 0.549309 0.656986 0.181294
C46   C     C_R   0.549309 0.955140 0.656986 0.181294
C47   C     C_R   0.955140 0.450691 0.656986 0.181295
C48   C     C_R   0.450691 0.044860 0.656986 0.181295
C49   C     C_R   0.544860 0.950691 0.843014 0.181295
C50   C     C_R   0.639896 0.000000 0.500000 0.576630
C51   C     C_R   0.049309 0.544860 0.843014 0.181294
C52   C     C_R   0.455140 0.049309 0.843014 0.181295
C53   C     C_R   0.950691 0.455140 0.843014 0.181295
C54   C     C_R   0.544860 0.049309 0.156986 0.181294
C55   C     C_R   0.049309 0.455140 0.156986 0.181294
C56   C     C_R   0.455140 0.950691 0.156986 0.181295
C57   C     C_R   0.950691 0.544860 0.156986 0.181295
C58   C     C_R   0.000000 0.500000 0.366026 0.025446
C59   C     C_R   0.500000 0.000000 0.366026 0.025446
C60   C     C_R   1.000000 0.500000 0.633974 0.025446
C61   C     C_R   1.000000 0.639896 0.500000 0.576630
C62   C     C_R   0.500000 1.000000 0.633974 0.025446
C63   C     C_R   0.500000 0.000000 0.866026 0.025446
C64   C     C_R   1.000000 0.500000 0.866026 0.025446
C65   C     C_R   0.500000 0.000000 0.133974 0.025446
C66   C     C_R   0.000000 0.500000 0.133974 0.025446
C67   C     C_R   0.953673 0.548119 0.296630 0.026294
C68   C     C_R   0.451880 0.953673 0.296630 0.026294
C69   C     C_R   0.046327 0.451880 0.296630 0.026294
C70   C     C_R   0.548119 0.046327 0.296630 0.026294
C71   C     C_R   0.953673 0.451881 0.703370 0.026294
C72   C     C_R   0.360104 0.000000 0.500000 0.576630
C73   C     C_R   0.451881 0.046327 0.703370 0.026294
C74   C     C_R   0.046327 0.548119 0.703370 0.026294
C75   C     C_R   0.548119 0.953673 0.703370 0.026294
C76   C     C_R   0.453673 0.048119 0.796630 0.026294
C77   C     C_R   0.951880 0.453673 0.796630 0.026294
C78   C     C_R   0.546327 0.951880 0.796630 0.026294
C79   C     C_R   0.048119 0.546327 0.796630 0.026294
C80   C     C_R   0.453673 0.951881 0.203370 0.026294
C81   C     C_R   0.951881 0.546327 0.203370 0.026294
C82   C     C_R   0.546327 0.048119 0.203370 0.026294
C83   C     C_R   0.000000 0.360104 0.500000 0.576630
C84   C     C_R   0.048119 0.453673 0.203370 0.026294
C85   C     C_R   0.000000 0.500000 0.273364 -0.002653
C86   C     C_R   0.500000 0.000000 0.273364 -0.002653
C87   C     C_R   1.000000 0.500000 0.726636 -0.002653
C88   C     C_R   0.500000 1.000000 0.726636 -0.002653
C89   C     C_R   0.500000 1.000000 0.773364 -0.002653
C90   C     C_R   1.000000 0.500000 0.773364 -0.002653
C91   C     C_R   0.500000 0.000000 0.226636 -0.002653
C92   C     C_R   0.000000 0.500000 0.226636 -0.002653
C93   C     C_R   0.907030 0.594268 0.272881 -0.085712
C94   C     C_1   0.217457 0.500000 0.000000 0.016419
C95   C     C_R   0.405731 0.907030 0.272881 -0.085712
C96   C     C_R   0.092970 0.405732 0.272881 -0.085712
C97   C     C_R   0.594268 0.092970 0.272881 -0.085712
C98   C     C_R   0.907030 0.405732 0.727118 -0.085712
C99   C     C_R   0.405732 0.092970 0.727118 -0.085712
C100  C     C_R   0.092970 0.594268 0.727118 -0.085712
C101  C     C_R   0.594268 0.907030 0.727118 -0.085712
C102  C     C_R   0.407030 0.094268 0.772881 -0.085712
C103  C     C_R   0.905731 0.407030 0.772881 -0.085712
C104  C     C_R   0.592970 0.905731 0.772881 -0.085712
Cl1   Cl    Cl    0.096278 0.384865 0.372585 -0.575070
Cl2   Cl    Cl    0.115135 0.596278 0.872585 -0.575070
Cl3   Cl    Cl    0.403722 0.115135 0.872585 -0.575070
Cl4   Cl    Cl    0.884865 0.403722 0.872585 -0.575070
Cl5   Cl    Cl    0.596278 0.115135 0.127415 -0.575071
Cl6   Cl    Cl    0.115135 0.403722 0.127415 -0.575071
Cl7   Cl    Cl    0.403722 0.884865 0.127415 -0.575070
Cl8   Cl    Cl    0.884865 0.596278 0.127415 -0.575070
Cl9   Cl    Cl    0.615135 0.096278 0.372585 -0.575070
Cl10  Cl    Cl    0.903722 0.615135 0.372585 -0.575070
Cl11  Cl    Cl    0.384865 0.903722 0.372585 -0.575070
Cl12  Cl    Cl    0.096278 0.615135 0.627415 -0.575071
Cl13  Cl    Cl    0.615135 0.903722 0.627415 -0.575071
Cl14  Cl    Cl    0.903722 0.384865 0.627415 -0.575070
Cl15  Cl    Cl    0.384865 0.096278 0.627415 -0.575070
Cl16  Cl    Cl    0.596278 0.884865 0.872585 -0.575070
Cu1   Cu    Cu3+1 1.000000 0.572490 0.000000 1.131846
Cu2   Cu    Cu3+1 0.500000 0.500000 0.955520 1.057309
Cu3   Cu    Cu3+1 1.000000 0.000000 0.544480 1.057309
Cu4   Cu    Cu3+1 0.000000 0.000000 0.455520 1.057309
Cu5   Cu    Cu3+1 0.427510 0.000000 0.000000 1.131846
Cu6   Cu    Cu3+1 1.000000 0.427510 0.000000 1.131846
Cu7   Cu    Cu3+1 0.572490 0.000000 0.000000 1.131846
Cu8   Cu    Cu3+1 0.500000 0.072490 0.500000 1.131846
Cu9   Cu    Cu3+1 0.927510 0.500000 0.500000 1.131846
Cu10  Cu    Cu3+1 0.500000 0.927510 0.500000 1.131846
Cu11  Cu    Cu3+1 0.072490 0.500000 0.500000 1.131846
Cu12  Cu    Cu3+1 0.500000 0.500000 0.044480 1.057309
H1    H     H_    0.870354 0.631537 0.289262 0.193026
H2    H     H_    0.868463 0.370354 0.789262 0.193026
H3    H     H_    0.629646 0.868463 0.789262 0.193026
H4    H     H_    0.131537 0.629646 0.789261 0.193026
H5    H     H_    0.370354 0.868463 0.210738 0.193026
H6    H     H_    0.868463 0.629646 0.210738 0.193026
H7    H     H_    0.629646 0.131537 0.210738 0.193026
H8    H     H_    0.131537 0.370354 0.210738 0.193026
H9    H     H_    0.368463 0.870354 0.289262 0.193026
H10   H     H_    0.129646 0.368463 0.289262 0.193026
H11   H     H_    0.631537 0.129646 0.289262 0.193026
H12   H     H_    0.870354 0.368463 0.710738 0.193026
H13   H     H_    0.368463 0.129646 0.710738 0.193026
H14   H     H_    0.129646 0.631537 0.710738 0.193026
H15   H     H_    0.631537 0.870354 0.710738 0.193026
H16   H     H_    0.370354 0.131537 0.789261 0.193026
O1    O     O_R   0.105780 0.561220 0.000020 -0.492264
O2    O     O_R   0.938780 0.605780 0.500020 -0.492264
O3    O     O_R   0.394220 0.938780 0.500020 -0.492264
O4    O     O_R   0.061220 0.394220 0.500020 -0.492264
O5    O     O_R   0.605780 0.938780 0.499980 -0.492264
O6    O     O_R   0.938780 0.394220 0.499980 -0.492264
O7    O     O_R   0.394220 0.061220 0.499980 -0.492264
O8    O     O_R   0.061220 0.605780 0.499980 -0.492264
O9    O     O_R   0.999940 0.561230 0.064880 -0.471751
O10   O     O_R   0.438770 0.999940 0.064880 -0.471751
O11   O     O_R   0.000060 0.438770 0.064880 -0.471751
O12   O     O_R   0.438780 0.105780 0.000020 -0.492264
O13   O     O_R   0.561230 0.000060 0.064880 -0.471751
O14   O     O_R   0.999940 0.438770 0.935120 -0.471751
O15   O     O_R   0.438770 0.000060 0.935120 -0.471751
O16   O     O_R   0.000060 0.561230 0.935120 -0.471751
O17   O     O_R   0.561230 0.999940 0.935120 -0.471751
O18   O     O_R   0.499940 0.061230 0.564880 -0.471751
O19   O     O_R   0.938770 0.499940 0.564880 -0.471751
O20   O     O_R   0.500060 0.938770 0.564880 -0.471751
O21   O     O_R   0.061230 0.500060 0.564880 -0.471751
O22   O     O_R   0.499940 0.938770 0.435120 -0.471751
O23   O     O_R   0.894220 0.438780 0.000020 -0.492264
O24   O     O_R   0.938770 0.500060 0.435120 -0.471751
O25   O     O_R   0.500060 0.061230 0.435120 -0.471751
O26   O     O_R   0.061230 0.499940 0.435120 -0.471751
O27   O     O_R   0.499980 0.394200 0.037580 -0.496186
O28   O     O_R   0.605800 0.499980 0.037580 -0.496186
O29   O     O_R   0.500020 0.605800 0.037580 -0.496186
O30   O     O_R   0.394200 0.500020 0.037580 -0.496186
O31   O     O_R   0.499980 0.605800 0.962420 -0.496186
O32   O     O_R   0.605800 0.500020 0.962420 -0.496186
O33   O     O_R   0.500020 0.394200 0.962420 -0.496186
O34   O     O_R   0.561220 0.894220 0.000020 -0.492264
O35   O     O_R   0.394200 0.499980 0.962420 -0.496186
O36   O     O_R   0.999980 0.894200 0.537580 -0.496186
O37   O     O_R   0.105800 0.999980 0.537580 -0.496186
O38   O     O_R   0.000020 0.105800 0.537580 -0.496186
O39   O     O_R   0.894200 0.000020 0.537580 -0.496186
O40   O     O_R   0.999980 0.105800 0.462420 -0.496186
O41   O     O_R   0.105800 0.000020 0.462420 -0.496186
O42   O     O_R   0.000020 0.894200 0.462420 -0.496186
O43   O     O_R   0.894200 0.999980 0.462420 -0.496186
O44   O     O_R   0.105780 0.438780 0.999980 -0.492264
O45   O     O_R   0.438780 0.894220 0.999980 -0.492264
O46   O     O_R   0.894220 0.561220 0.999980 -0.492264
O47   O     O_R   0.561220 0.105780 0.999980 -0.492264
O48   O     O_R   0.605780 0.061220 0.500020 -0.492264

loop_
_geom_bond_atom_site_label_1
_geom_bond_atom_site_label_2
_ccdc_geom_bond_type
C10   C27   T    
C46   Cl13  S    
C37   O41   A    
C45   C60   A    
C2    C17   S    
C49   C63   A    
C104  H3    S    
C68   C86   A    
Cu9   O24   S    
Cu4   O41   S    
C45   Cl12  S    
C9    C39   S    
C57   C66   A    
C69   C96   A    
C3    C79   A    
Cu4   O42   S    
Cu11  O4    S    
Cu5   O12   S    
C5    H6    S    
C54   C65   A    
Cu6   O11   S    
C16   O16   A    
Cu2   O32   S    
C7    C96   A    
C39   O45   A    
C29   C36   S    
Cu8   O25   S    
C41   Cl1   S    
C46   C62   A    
C6    C82   A    
Cu11  O8    S    
C103  H2    S    
C41   C58   A    
C21   C59   S    
C93   H1    S    
C86   C91   A    
C43   Cl10  S    
Cu9   O6    S    
C53   C64   A    
C18   C63   S    
C49   Cl16  S    
C50   O5    A    
C35   O35   A    
C56   C65   A    
C15   C65   S    
C42   C70   A    
C49   C78   A    
C3    H4    S    
Cu12  O28   S    
C6    H7    S    
C17   O12   A    
C33   O28   A    
C97   H11   S    
C79   C90   A    
Cu6   O23   S    
C42   Cl9   S    
C43   C58   A    
C102  H16   S    
C4    H5    S    
C81   C92   A    
Cu4   O40   S    
C3    C100  A    
C26   C34   S    
Cu2   O33   S    
C37   O37   A    
C80   C91   A    
C44   Cl11  S    
C100  H14   S    
C1    C94   S    
C98   C103  A    
C28   O46   A    
C84   C92   A    
C1    O1    A    
C36   O36   A    
C19   O18   A    
C74   C87   A    
C20   C60   S    
C61   O2    A    
C56   Cl7   S    
Cu8   O7    S    
C70   C97   A    
Cu12  O29   S    
C98   H12   S    
C35   O30   A    
C47   C60   A    
C20   O21   A    
C99   H13   S    
Cu7   O13   S    
C72   O7    A    
Cu1   O9    S    
C33   O32   A    
Cu8   O18   S    
C8    C25   T    
C34   O31   A    
Cu5   O15   S    
C50   O48   A    
Cu10  O3    S    
Cu2   Cu12  S    
C46   C75   A    
C22   O26   A    
C85   C92   A    
C15   O13   A    
C9    C26   T    
C48   Cl15  S    
C47   Cl14  S    
C78   C89   A    
C76   C102  A    
Cu2   O31   S    
C32   O27   A    
C77   C90   A    
C67   C85   A    
C68   C95   A    
Cu9   O19   S    
C14   O9    A    
C78   C104  A    
C6    C97   A    
C32   O33   A    
Cu3   Cu4   S    
C52   Cl3   S    
C15   O10   A    
C83   O6    A    
Cu5   O10   S    
C74   C100  A    
C18   O17   A    
C38   O38   A    
Cu1   O16   S    
C82   C91   A    
C30   C37   S    
C40   O39   A    
C45   C74   A    
Cu12  O27   S    
Cu3   O37   S    
C53   C77   A    
C24   C32   S    
C73   C88   A    
Cu3   O36   S    
Cu5   Cu7   S    
Cu7   O47   S    
C4    C95   A    
C5    C81   A    
C18   O15   A    
C28   O23   A    
C48   C62   A    
Cu5   O45   S    
C27   C40   S    
Cu7   O17   S    
C72   O3    A    
C14   C66   S    
C52   C76   A    
Cu6   O44   S    
C47   C71   A    
C71   C87   A    
Cu2   O35   S    
C95   H9    S    
C101  C104  A    
C23   C35   S    
C55   Cl6   S    
C2    C24   T    
C8    C28   S    
C57   C81   A    
C44   C68   A    
C19   O20   A    
C10   C50   S    
C61   O8    A    
Cu1   O46   S    
C54   C82   A    
C55   C66   A    
C69   C85   A    
C41   C69   A    
C83   O4    A    
C73   C99   A    
C20   O19   A    
C13   C83   S    
C71   C98   A    
Cu11  O21   S    
C12   C30   T    
C48   C73   A    
C13   C31   T    
C51   C64   A    
Cu8   O48   S    
C11   C61   S    
C52   C63   A    
Cu8   Cu10  S    
C42   C59   A    
C22   C58   S    
C5    C93   A    
C23   C94   T    
C4    C80   A    
C36   O42   A    
C16   C64   S    
C76   C89   A    
Cu11  O26   S    
C21   O25   A    
C56   C80   A    
C31   C38   S    
C14   O11   A    
C16   O14   A    
Cu3   O38   S    
Cu1   Cu6   S    
C11   C29   T    
C53   Cl4   S    
C101  H15   S    
C7    H8    S    
C40   O43   A    
C44   C59   A    
Cu10  O22   S    
C51   Cl2   S    
C38   O40   A    
C67   C93   A    
Cu1   O1    S    
C7    C84   A    
Cu10  O5    S    
Cu3   O39   S    
C12   C72   S    
C51   C79   A    
C39   O34   A    
C17   O47   A    
C96   H10   S    
C57   Cl8   S    
C1    O44   A    
Cu10  O20   S    
C75   C88   A    
Cu9   O2    S    
C99   C102  A    
C88   C89   A    
C54   Cl5   S    
C43   C67   A    
C87   C90   A    
Cu12  O30   S    
C77   C103  A    
C75   C101  A    
Cu7   O34   S    
C34   O29   A    
C19   C62   S    
C55   C84   A    
Cu6   O14   S    
Cu4   O43   S    
C22   O24   A    
C21   O22   A    
C25   C33   S    
Cu9   Cu11  S    
C70   C86   A    
