data_mof_unit_44930.cif
_audit_creation_date              2013-03-05T16:05:15-0500
_audit_creation_method            fapswitch 2.2
_symmetry_space_group_name_H-M    P1
_symmetry_Int_Tables_number       1
_space_group_crystal_system       triclinic
_cell_length_a                    11.516235
_cell_length_b                    14.974753
_cell_length_c                    15.536317
_cell_angle_alpha                 81.127909
_cell_angle_beta                  91.826236
_cell_angle_gamma                 103.13565
_cell_volume                      2577.94431915

loop_
_atom_site_label
_atom_site_type_symbol
_atom_site_description
_atom_site_fract_x
_atom_site_fract_y
_atom_site_fract_z
_atom_type_partial_charge
O1    O     O_R   0.466720 0.383110 0.605620 -0.556758
O2    O     O_R   0.533280 0.616890 0.394380 -0.581398
O3    O     O_R   0.509090 0.531900 0.639510 -0.580477
O4    O     O_R   0.490910 0.468100 0.360490 -0.613955
C1    C     C_R   0.481549 0.441151 0.662213 0.890009
C2    C     C_R   0.520491 0.558476 0.338260 0.875948
O5    O     O_R   0.644370 0.425610 0.483050 -0.635926
O6    O     O_R   0.355630 0.574390 0.516950 -0.622689
O7    O     O_R   0.686740 0.574390 0.516930 -0.569570
O8    O     O_R   0.313260 0.425610 0.483070 -0.542265
C3    C     C_R   0.717612 0.500400 0.500379 0.860923
C4    C     C_R   0.282328 0.499403 0.499915 0.877933
Zn1   Zn    Zn3+2 0.471710 0.400660 0.477370 1.045389
Zn2   Zn    Zn3+2 0.528290 0.599340 0.522630 1.037186
C5    C     C_1   0.838497 0.501076 0.500701 -0.119023
C6    C     C_1   0.161265 0.498205 0.500010 -0.118449
C7    C     C_1   0.940626 0.500254 0.500602 0.058382
C8    C     C_1   0.059044 0.498745 0.500266 0.049409
C9    C     C_R   0.471193 0.403830 0.755779 -0.168374
C10   C     C_R   0.553274 0.592834 0.246988 -0.163288
C11   C     C_R   0.407178 0.283166 0.879039 -0.312418
C12   C     C_R   0.679207 0.695416 0.133632 -0.279970
C13   C     C_R   0.417350 0.310316 0.787724 0.521200
C14   C     C_R   0.641111 0.674143 0.220742 0.562140
C15   C     C_R   0.516297 0.465602 0.813700 -0.296121
C16   C     C_R   0.510352 0.532631 0.187658 -0.308293
C17   C     C_R   0.513455 0.437854 0.903349 0.081129
C18   C     C_R   0.559878 0.546150 0.104883 0.087761
C19   C     C_R   0.453433 0.346289 0.936146 0.109565
C20   C     C_R   0.639957 0.631464 0.075875 0.088553
C21   C     C_R   0.561300 0.501423 0.961056 0.078010
C22   C     C_R   0.529564 0.477323 0.050004 0.084695
C23   C     C_R   0.472052 0.384511 0.081797 -0.179559
C24   C     C_R   0.640794 0.587609 0.933063 -0.202283
C25   C     C_R   0.436747 0.319690 0.025658 -0.173254
C26   C     C_R   0.681124 0.650767 0.990241 -0.176755
H1    H     H_    0.392791 0.249271 0.052260 0.158876
H2    H     H_    0.743681 0.715281 0.967051 0.160622
H3    H     H_    0.438801 0.473839 0.207961 0.226806
H4    H     H_    0.547246 0.537621 0.788237 0.227557
H5    H     H_    0.359812 0.214119 0.906387 0.146963
H6    H     H_    0.742927 0.759902 0.112390 0.166898
H7    H     H_    0.457327 0.359350 0.150381 0.181043
H8    H     H_    0.677593 0.606093 0.868145 0.199891
N1    N     N_R   0.566020 0.731700 0.552730 -0.188399
N2    N     N_R   0.433980 0.268300 0.447270 -0.185141
C27   C     C_R   0.726540 0.850605 0.593595 -0.326106
C28   C     C_R   0.347503 0.171749 0.341782 -0.322766
C29   C     C_R   0.675379 0.757856 0.590951 0.390963
C30   C     C_R   0.358336 0.252076 0.378729 0.386941
C31   C     C_R   0.505294 0.797474 0.515566 0.569051
C32   C     C_R   0.493394 0.202827 0.486096 0.572524
C33   C     C_R   0.565602 0.893444 0.505030 -0.018235
C34   C     C_R   0.492798 0.124252 0.444408 -0.024482
C35   C     C_R   0.673295 0.918578 0.550346 -0.011605
C36   C     C_R   0.413852 0.107504 0.374444 -0.007495
C37   C     C_R   0.521726 0.966325 0.454183 -0.025609
C38   C     C_R   0.561722 0.057990 0.473379 -0.024540
C39   C     C_R   0.679017 0.082217 0.506104 0.286950
C40   C     C_R   0.459947 0.956941 0.374505 0.276102
C41   C     C_R   0.731170 0.011679 0.547863 -0.199915
C42   C     C_R   0.402530 0.026608 0.337385 -0.198383
H9    H     H_    0.819827 0.029204 0.575104 0.192747
H10   H     H_    0.351421 0.018915 0.278118 0.186316
H11   H     H_    0.811371 0.869372 0.626180 0.195578
H12   H     H_    0.285200 0.158842 0.288864 0.195453
N3    N     N_R   0.754943 0.172668 0.479926 0.183179
O9    O     O_R   0.853899 0.199103 0.521319 -0.388570
O10   O     O_R   0.735451 0.222961 0.407120 -0.387426
N4    N     N_R   0.476651 0.889652 0.321830 0.177610
O11   O     O_R   0.404437 0.869999 0.257763 -0.416058
O12   O     O_R   0.574624 0.859834 0.328046 -0.345998
O13   O     O_3   0.688863 0.732977 0.279477 -0.539157
C43   C     C_3   0.801437 0.716780 0.306094 -0.212638
H13   H     H_    0.835266 0.758648 0.358389 0.212750
H14   H     H_    0.866766 0.738915 0.251443 0.147781
H15   H     H_    0.795626 0.642641 0.333531 0.122360
O14   O     O_3   0.364170 0.252284 0.728436 -0.573320
C44   C     C_3   0.363826 0.158075 0.757288 -0.188157
H16   H     H_    0.451180 0.148830 0.785579 0.141896
H17   H     H_    0.347034 0.120270 0.700523 0.230207
H18   H     H_    0.289525 0.125981 0.803912 0.147070
O15   O     O_3   0.506276 0.192651 0.576021 -0.631898
C45   C     C_3   0.618825 0.239232 0.602843 -0.162707
H19   H     H_    0.606971 0.282658 0.651978 0.180732
H20   H     H_    0.676290 0.283487 0.550043 0.202986
H21   H     H_    0.666239 0.187208 0.636624 0.160801
O16   O     O_3   0.381904 0.775823 0.523413 -0.621980
C46   C     C_3   0.324232 0.750493 0.446626 -0.140000
H22   H     H_    0.243404 0.695271 0.464954 0.174617
H23   H     H_    0.379867 0.724311 0.403361 0.194558
H24   H     H_    0.289187 0.808879 0.411545 0.164847
N5    N     N_R   0.278724 0.311060 0.350259 0.229284
O17   O     O_R   0.183911 0.302198 0.396966 -0.321596
O18   O     O_R   0.275285 0.343413 0.267860 -0.439030
N6    N     N_R   0.742681 0.691803 0.626561 0.236743
O19   O     O_R   0.853092 0.704249 0.602307 -0.397510
O20   O     O_R   0.707307 0.636747 0.698277 -0.437389

loop_
_geom_bond_atom_site_label_1
_geom_bond_atom_site_label_2
_geom_bond_distance
_ccdc_geom_bond_type
N5    O17   1.300516 A    
C17   C19   1.411978 A    
O13   C43   1.410095 S    
C45   H21   1.108819 S    
C27   C29   1.386348 A    
O5    C3    1.299015 A    
C43   H14   1.112381 S    
O1    C1    1.310094 A    
C25   H1    1.084114 S    
C45   H20   1.103462 S    
C15   H4    1.072064 S    
Zn1   N2    2.053671 S    
C16   H3    1.074587 S    
N1    C31   1.380037 A    
N2    C32   1.374575 A    
C40   C42   1.400651 A    
O4    Zn1   1.929933 S    
C41   H9    1.084143 S    
N5    O18   1.299747 A    
C42   H10   1.083940 S    
C39   N3    1.441876 S    
C3    C5    1.389729 S    
C10   C14   1.409023 A    
C43   H15   1.113916 S    
N6    O20   1.296170 A    
N4    O11   1.302050 A    
C40   N4    1.440339 S    
C46   H23   1.113081 S    
C24   C26   1.390147 A    
C28   C30   1.390038 A    
C13   O14   1.395626 S    
O2    C2    1.309802 A    
O2    Zn2   1.970144 S    
C32   C34   1.426593 A    
Zn2   N1    2.053670 S    
C33   C35   1.410467 A    
C34   C36   1.410133 A    
C39   C41   1.396245 A    
C43   H13   1.109455 S    
C17   C21   1.416672 A    
N3    O9    1.302210 A    
C23   H7    1.079236 S    
C4    C6    1.390267 S    
C18   C22   1.414099 A    
C24   H8    1.077627 S    
C45   H19   1.106509 S    
O4    C2    1.311745 A    
C44   H17   1.108625 S    
C33   C37   1.424689 A    
O14   C44   1.411988 S    
C37   C40   1.417881 A    
C38   C39   1.416042 A    
C11   C19   1.401478 A    
C14   O13   1.380986 S    
N3    O10   1.301903 A    
C32   O15   1.388715 S    
C9    C13   1.415045 A    
O7    Zn2   1.951286 S    
O15   C45   1.408718 S    
N1    C29   1.375506 A    
O6    C4    1.300062 A    
N6    O19   1.301787 A    
C7    C8    1.369233 S    
C21   C24   1.417092 A    
C46   H24   1.106229 S    
O7    C3    1.301108 A    
O3    Zn2   1.929936 S    
O8    C4    1.300210 A    
C11   H5    1.081692 S    
C11   C13   1.415190 A    
C12   C14   1.402461 A    
O1    Zn1   1.970143 S    
C27   C35   1.382022 A    
C34   C38   1.419378 A    
C28   C36   1.387690 A    
N2    C30   1.369785 A    
O6    Zn2   1.939694 S    
C12   C20   1.403263 A    
C21   C22   1.411367 A    
O3    C1    1.317235 A    
O8    Zn1   1.951285 S    
C31   O16   1.388752 S    
C44   H18   1.110432 S    
C30   N5    1.427624 S    
C5    C7    1.179048 T    
C1    C9    1.473050 S    
C15   C17   1.389912 A    
C2    C10   1.462477 S    
C19   C25   1.393195 A    
C16   C18   1.390717 A    
C20   C26   1.392004 A    
C28   H12   1.084645 S    
C22   C23   1.415978 A    
C26   H2    1.083962 S    
C37   C38   1.419661 A    
C12   H6    1.083949 S    
C10   C16   1.389787 A    
C35   C41   1.397188 A    
C18   C20   1.413897 A    
C23   C25   1.388309 A    
C36   C42   1.398053 A    
C29   N6    1.427401 S    
C9    C15   1.394214 A    
C44   H16   1.113878 S    
O5    Zn1   1.939694 S    
O16   C46   1.408123 S    
C6    C8    1.179206 T    
N4    O12   1.300181 A    
C31   C33   1.433704 A    
C46   H22   1.107139 S    
C27   H11   1.085016 S    
