data_mof_unit_15545.cif
_audit_creation_date              2012-12-10T18:23:56-0500
_audit_creation_method            fapswitch 2.2
_symmetry_space_group_name_H-M    P1
_symmetry_Int_Tables_number       1
_space_group_crystal_system       triclinic
_cell_length_a                    22.307957
_cell_length_b                    22.606778
_cell_length_c                    14.635224
_cell_angle_alpha                 89.997784
_cell_angle_beta                  89.959963
_cell_angle_gamma                 90.000059
_cell_volume                      7380.70310466

loop_
_atom_site_label
_atom_site_type_symbol
_atom_type_description
_atom_site_fract_x
_atom_site_fract_y
_atom_site_fract_z
_atom_type_partial_charge
C1    C     C_R   0.419650 0.919876 0.500068 0.819808
C2    C     C_R   0.580580 0.079947 0.499997 0.822114
C3    C     C_R   0.580349 0.919875 0.499935 0.819807
C4    C     C_R   0.419416 0.079943 0.500000 0.822113
C5    C     C_R   0.919651 0.419875 0.500067 0.819765
C6    C     C_R   0.080587 0.579941 0.499996 0.822107
C7    C     C_R   0.080350 0.419875 0.499935 0.819762
C8    C     C_R   0.919411 0.579939 0.500001 0.822111
C9    C     C_1   0.334594 0.160054 0.499891 0.000001
C10   C     C_1   0.662008 0.836813 0.498730 -0.037353
C11   C     C_1   0.665384 0.160076 0.500093 0.000009
C12   C     C_1   0.337982 0.836824 0.501291 -0.037390
C13   C     C_1   0.834565 0.660026 0.499909 0.000048
C14   C     C_1   0.162018 0.336821 0.498730 -0.037359
C15   C     C_1   0.165423 0.660040 0.500066 0.000034
C16   C     C_1   0.837978 0.336826 0.501280 -0.037372
C17   C     C_1   0.499809 0.999938 0.194209 0.185818
C18   C     C_1   0.500190 0.999941 0.805791 0.185851
C19   C     C_1   0.999803 0.499935 0.194209 0.185854
C20   C     C_1   0.000197 0.499936 0.805791 0.185828
C21   C     C_3   0.528571 0.048910 0.969276 -0.287184
C22   C     C_3   0.471420 0.950797 0.030745 -0.292901
C23   C     C_3   0.471476 0.048937 0.030723 -0.287059
C24   C     C_3   0.528526 0.950770 0.969255 -0.292762
C25   C     C_3   0.028696 0.548835 0.969280 -0.287585
C26   C     C_3   0.971298 0.450856 0.030743 -0.292752
C27   C     C_3   0.971595 0.548996 0.030715 -0.286945
C28   C     C_3   0.028409 0.450694 0.969267 -0.292523
C29   C     C_3   0.707408 0.737312 0.564835 0.495312
C30   C     C_3   0.286192 0.256997 0.432793 0.511019
C31   C     C_3   0.292545 0.737373 0.435101 0.495461
C32   C     C_3   0.713822 0.256983 0.567255 0.511050
C33   C     C_3   0.207426 0.237313 0.564804 0.495326
C34   C     C_3   0.786164 0.756956 0.432793 0.511004
C35   C     C_3   0.792525 0.237363 0.435136 0.495352
C36   C     C_3   0.213861 0.756922 0.567261 0.511081
C37   C     C_3   0.220130 0.194458 0.485034 0.001323
C38   C     C_3   0.774163 0.799254 0.512856 0.004876
C39   C     C_3   0.779851 0.194465 0.514866 0.001326
C40   C     C_3   0.225820 0.799277 0.487251 0.004845
C41   C     C_3   0.720093 0.694440 0.485080 0.001319
C42   C     C_3   0.274176 0.299277 0.512875 0.004788
C43   C     C_3   0.279901 0.694442 0.514795 0.001417
C44   C     C_3   0.725809 0.299307 0.487214 0.004809
C45   C     C_1   0.373439 0.123492 0.500000 -0.169736
C46   C     C_1   0.624844 0.874967 0.499483 -0.183381
C47   C     C_1   0.626548 0.123506 0.499990 -0.169748
C48   C     C_1   0.375149 0.874975 0.500529 -0.183538
C49   C     C_1   0.873419 0.623474 0.500007 -0.169727
C50   C     C_1   0.124850 0.374972 0.499484 -0.183395
C51   C     C_1   0.126573 0.623483 0.499979 -0.169757
C52   C     C_1   0.875150 0.374973 0.500524 -0.183409
C53   C     C_3   0.275345 0.246766 0.580796 -0.273673
C54   C     C_3   0.718351 0.747266 0.416724 -0.350557
C55   C     C_3   0.724600 0.246836 0.419227 -0.273701
C56   C     C_3   0.281681 0.747216 0.583236 -0.350587
C57   C     C_3   0.775331 0.746757 0.580802 -0.273639
C58   C     C_3   0.218384 0.247297 0.416703 -0.350426
C59   C     C_3   0.224617 0.746830 0.419218 -0.273852
C60   C     C_3   0.781635 0.247263 0.583262 -0.350484
C61   C     C_3   0.287796 0.204803 0.499648 0.014214
C62   C     C_3   0.706466 0.789883 0.498357 -0.018478
C63   C     C_3   0.712180 0.204828 0.500336 0.014221
C64   C     C_3   0.293523 0.789894 0.501662 -0.018548
C65   C     C_3   0.787764 0.704774 0.499671 0.014198
C66   C     C_3   0.206483 0.289897 0.498351 -0.018519
C67   C     C_3   0.212223 0.704789 0.500297 0.014197
C68   C     C_3   0.793507 0.289908 0.501655 -0.018517
C69   C     C_3   0.555410 0.999852 0.030352 0.564718
C70   C     C_3   0.444587 0.999908 0.969648 0.564716
C71   C     C_3   0.055403 0.499712 0.030364 0.564364
C72   C     C_3   0.944591 0.500031 0.969634 0.564778
C73   C     C_3   0.499444 0.999875 0.091587 -0.031086
C74   C     C_3   0.500553 0.999879 0.908413 -0.031070
C75   C     C_3   0.999434 0.499866 0.091588 -0.031006
C76   C     C_3   0.000565 0.499869 0.908413 -0.031173
Cu1   Cu    Cu3+1 0.500000 0.000000 0.590220 0.984465
Cu2   Cu    Cu3+1 0.500000 0.000000 0.409780 0.984410
Cu3   Cu    Cu3+1 0.000000 0.500000 0.590220 0.984453
Cu4   Cu    Cu3+1 1.000000 0.500000 0.409780 0.984447
H1    H     H_    0.694453 0.749180 0.350338 0.151660
H2    H     H_    0.298367 0.245588 0.647999 0.160552
H3    H     H_    0.305614 0.749082 0.649598 0.151635
H4    H     H_    0.701544 0.245702 0.352050 0.160548
H5    H     H_    0.194501 0.249216 0.350304 0.151645
H6    H     H_    0.798361 0.745590 0.647999 0.160552
H7    H     H_    0.805553 0.249141 0.649635 0.151635
H8    H     H_    0.201554 0.745713 0.352045 0.160528
H9    H     H_    0.446972 0.088589 0.055365 0.149853
H10   H     H_    0.552741 0.911020 0.944360 0.147147
H11   H     H_    0.553117 0.088539 0.944638 0.149834
H12   H     H_    0.447167 0.911069 0.055640 0.147144
H13   H     H_    0.947185 0.588705 0.055352 0.149836
H14   H     H_    0.052592 0.410906 0.944437 0.147386
H15   H     H_    0.053345 0.588402 0.944647 0.149745
H16   H     H_    0.946951 0.411184 0.055640 0.147097
N1    N     N_1   0.499980 0.000000 0.274190 -0.157011
N2    N     N_1   0.500020 0.000000 0.725810 -0.157007
N3    N     N_1   0.999980 0.500000 0.274190 -0.157007
N4    N     N_1   0.000020 0.500000 0.725810 -0.157000
O1    O     O_R   0.439540 0.939530 0.576170 -0.567193
O2    O     O_R   0.560460 0.060470 0.423830 -0.565779
O3    O     O_R   0.560460 0.939530 0.423830 -0.567189
O4    O     O_R   0.439540 0.060470 0.576170 -0.565772
O5    O     O_R   0.939540 0.439530 0.576170 -0.567236
O6    O     O_R   0.060460 0.560470 0.423830 -0.565818
O7    O     O_R   0.060460 0.439530 0.423830 -0.567171
O8    O     O_R   0.939540 0.560470 0.576170 -0.565743
O9    O     O_R   0.439530 0.939530 0.423800 -0.576619
O10   O     O_R   0.560470 0.060470 0.576200 -0.571485
O11   O     O_R   0.560470 0.939530 0.576200 -0.576546
O12   O     O_R   0.439530 0.060470 0.423800 -0.571493
O13   O     O_R   0.939530 0.439530 0.423800 -0.576534
O14   O     O_R   0.060470 0.560470 0.576200 -0.571457
O15   O     O_R   0.060470 0.439530 0.576200 -0.576572
O16   O     O_R   0.939530 0.560470 0.423800 -0.571508
O17   O     O_3   0.386169 0.000630 0.932799 -0.613027
C77   C     C_3   0.342615 0.996644 0.002890 0.044270
H17   H     H_    0.311339 0.034555 0.995116 0.164307
H18   H     H_    0.361003 0.999220 0.073745 0.126041
C78   C     C_3   0.307375 0.939107 0.991697 -0.332580
H19   H     H_    0.285720 0.938611 0.923344 0.230189
H20   H     H_    0.338527 0.900852 0.996011 0.216430
C79   C     C_3   0.259221 0.932760 0.065146 -0.923645
H21   H     H_    0.280013 0.931852 0.134085 0.257865
H22   H     H_    0.234334 0.890776 0.054633 0.261588
H23   H     H_    0.227013 0.970148 0.061260 0.254622
O18   O     O_3   0.613832 0.000502 0.067192 -0.613025
C80   C     C_3   0.657377 0.996566 0.997081 0.044239
H24   H     H_    0.688668 0.034459 0.004930 0.164300
H25   H     H_    0.638983 0.999212 0.926236 0.126067
C81   C     C_3   0.692599 0.939007 0.008136 -0.332601
H26   H     H_    0.714269 0.938442 0.076476 0.230182
H27   H     H_    0.661432 0.900767 0.003758 0.216428
C82   C     C_3   0.740735 0.932712 0.934648 -0.923565
H28   H     H_    0.719926 0.931867 0.865718 0.257866
H29   H     H_    0.765615 0.890714 0.945068 0.261580
H30   H     H_    0.772952 0.970090 0.938586 0.254605
O19   O     O_3   0.886182 0.500904 0.932759 -0.613036
C83   C     C_3   0.842604 0.496970 0.002822 0.044290
H31   H     H_    0.811337 0.534881 0.994957 0.164373
H32   H     H_    0.860970 0.499602 0.073685 0.125999
C84   C     C_3   0.807353 0.439433 0.991699 -0.332657
H33   H     H_    0.785749 0.438876 0.923310 0.230225
H34   H     H_    0.838488 0.401171 0.996154 0.216343
C85   C     C_3   0.759143 0.433173 0.065079 -0.923593
H35   H     H_    0.779882 0.432342 0.134059 0.257844
H36   H     H_    0.734260 0.391179 0.054634 0.261578
H37   H     H_    0.726943 0.470560 0.061032 0.254621
O20   O     O_3   0.113823 0.500135 0.067200 -0.612998
C86   C     C_3   0.157367 0.496567 0.997038 0.043945
H38   H     H_    0.188044 0.534989 0.004360 0.164066
H39   H     H_    0.138886 0.498496 0.926191 0.126048
C87   C     C_3   0.193490 0.439610 0.008693 -0.331712
H40   H     H_    0.215125 0.439638 0.077066 0.230247
H41   H     H_    0.162911 0.400890 0.004621 0.216770
C88   C     C_3   0.241766 0.433761 0.935330 -0.924055
H42   H     H_    0.221022 0.432352 0.866376 0.257848
H43   H     H_    0.267281 0.392178 0.946151 0.261527
H44   H     H_    0.273403 0.471630 0.938987 0.254688
C89   C     C_3   0.193615 0.132676 0.469583 -0.385630
C90   C     C_3   0.137727 0.134231 0.408701 -0.357612
C91   C     C_3   0.108543 0.073382 0.402594 -0.864644
H45   H     H_    0.140731 0.040797 0.373970 0.257703
H46   H     H_    0.093743 0.058518 0.471350 0.252808
H47   H     H_    0.068763 0.075604 0.357161 0.243573
H48   H     H_    0.104444 0.166018 0.435878 0.213258
H49   H     H_    0.150469 0.148691 0.338752 0.223803
H50   H     H_    0.227894 0.104488 0.435798 0.202825
H51   H     H_    0.183068 0.112588 0.536961 0.200250
C92   C     C_3   0.804179 0.859135 0.529095 -0.389900
C93   C     C_3   0.872113 0.852438 0.541017 -0.319530
C94   C     C_3   0.901802 0.912081 0.558865 -0.875824
H52   H     H_    0.893107 0.942838 0.501182 0.254215
H53   H     H_    0.884281 0.931645 0.623154 0.257750
H54   H     H_    0.950991 0.906011 0.565763 0.247759
H55   H     H_    0.881728 0.822502 0.599451 0.220490
H56   H     H_    0.892073 0.832893 0.478372 0.247183
H57   H     H_    0.794524 0.888629 0.470210 0.187382
H58   H     H_    0.784496 0.879261 0.591558 0.206117
C95   C     C_3   0.806359 0.132667 0.530209 -0.385619
C96   C     C_3   0.862273 0.134174 0.591038 -0.357637
C97   C     C_3   0.891430 0.073309 0.597066 -0.864667
H59   H     H_    0.859246 0.040735 0.625730 0.257730
H60   H     H_    0.906172 0.058455 0.528277 0.252776
H61   H     H_    0.931244 0.075499 0.642432 0.243589
H62   H     H_    0.895557 0.165956 0.563847 0.213280
H63   H     H_    0.849569 0.148613 0.661011 0.223815
H64   H     H_    0.772088 0.104466 0.563989 0.202834
H65   H     H_    0.816874 0.112620 0.462793 0.200249
C98   C     C_3   0.195809 0.859175 0.471136 -0.389936
C99   C     C_3   0.127863 0.852507 0.459342 -0.319522
C100  C     C_3   0.098186 0.912165 0.441557 -0.875843
H66   H     H_    0.106950 0.942918 0.499217 0.254197
H67   H     H_    0.115654 0.931722 0.377228 0.257759
H68   H     H_    0.048987 0.906118 0.434769 0.247759
H69   H     H_    0.118188 0.822580 0.400924 0.220511
H70   H     H_    0.107947 0.832965 0.522023 0.247133
H71   H     H_    0.205524 0.888640 0.530030 0.187363
H72   H     H_    0.215446 0.879325 0.408654 0.206122
C101  C     C_3   0.693556 0.632667 0.469636 -0.385597
C102  C     C_3   0.637639 0.634248 0.408812 -0.357662
C103  C     C_3   0.608415 0.573415 0.402756 -0.864619
H73   H     H_    0.640561 0.540816 0.374064 0.257718
H74   H     H_    0.593665 0.558555 0.471540 0.252793
H75   H     H_    0.568598 0.575663 0.357404 0.243566
H76   H     H_    0.604386 0.666058 0.436007 0.213159
H77   H     H_    0.650358 0.648690 0.338846 0.223749
H78   H     H_    0.727812 0.604475 0.435804 0.202797
H79   H     H_    0.683036 0.612573 0.537019 0.200219
C104  C     C_3   0.304190 0.359152 0.529173 -0.389967
C105  C     C_3   0.372125 0.352449 0.541081 -0.319579
C106  C     C_3   0.401819 0.412085 0.558952 -0.875842
H80   H     H_    0.393121 0.442853 0.501285 0.254206
H81   H     H_    0.384306 0.431638 0.623254 0.257783
H82   H     H_    0.451008 0.406011 0.565836 0.247778
H83   H     H_    0.381741 0.322500 0.599498 0.220505
H84   H     H_    0.392080 0.332916 0.478424 0.247147
H85   H     H_    0.294531 0.388675 0.470325 0.187346
H86   H     H_    0.284511 0.379250 0.591661 0.206121
C107  C     C_3   0.306446 0.632646 0.530008 -0.385526
C108  C     C_3   0.362328 0.634116 0.590904 -0.357608
C109  C     C_3   0.391425 0.573226 0.596997 -0.864681
H87   H     H_    0.359197 0.540689 0.625648 0.257730
H88   H     H_    0.406183 0.558342 0.528233 0.252801
H89   H     H_    0.431220 0.575389 0.642403 0.243604
H90   H     H_    0.395657 0.665854 0.563726 0.213277
H91   H     H_    0.349604 0.648580 0.660855 0.223850
H92   H     H_    0.272175 0.604383 0.563664 0.202839
H93   H     H_    0.317023 0.612685 0.462551 0.200307
C110  C     C_3   0.695812 0.359204 0.471026 -0.389960
C111  C     C_3   0.627865 0.352544 0.459224 -0.319544
C112  C     C_3   0.598201 0.412198 0.441364 -0.875848
H94   H     H_    0.606969 0.442978 0.498989 0.254212
H95   H     H_    0.615678 0.431720 0.377014 0.257738
H96   H     H_    0.549002 0.406158 0.434576 0.247772
H97   H     H_    0.618189 0.322591 0.400838 0.220526
H98   H     H_    0.607938 0.333036 0.521923 0.247113
H99   H     H_    0.705528 0.388695 0.529888 0.187338
H100  H     H_    0.715459 0.379321 0.408526 0.206155
O21   O     O_3   0.668319 0.729792 0.640000 -0.610662
C113  C     C_3   0.609014 0.719203 0.610429 0.053997
H101  H     H_    0.602031 0.670729 0.604018 0.155425
H102  H     H_    0.598281 0.740603 0.543921 0.134773
C114  C     C_3   0.565369 0.743418 0.681682 -0.304024
H103  H     H_    0.574157 0.721994 0.748716 0.223114
H104  H     H_    0.572390 0.791867 0.689216 0.228053
C115  C     C_3   0.500402 0.731989 0.654096 -0.960060
H105  H     H_    0.490119 0.754213 0.588243 0.251411
H106  H     H_    0.469814 0.749738 0.707325 0.261782
H107  H     H_    0.492339 0.683724 0.647140 0.257934
O22   O     O_3   0.330795 0.264575 0.365291 -0.617225
C116  C     C_3   0.313188 0.307777 0.300747 0.048580
H108  H     H_    0.351693 0.338153 0.289951 0.158799
H109  H     H_    0.274866 0.336038 0.323214 0.131200
C117  C     C_3   0.298270 0.277698 0.209908 -0.325644
H110  H     H_    0.338974 0.255222 0.183141 0.225466
H111  H     H_    0.263047 0.243679 0.220722 0.213760
C118  C     C_3   0.276091 0.322320 0.139414 -0.941705
H112  H     H_    0.234120 0.343612 0.163659 0.256800
H113  H     H_    0.266656 0.299326 0.073948 0.260451
H114  H     H_    0.310606 0.356835 0.127082 0.259301
O23   O     O_3   0.331632 0.729874 0.359930 -0.610716
C119  C     C_3   0.390978 0.719447 0.389480 0.054116
H115  H     H_    0.398216 0.670972 0.395253 0.155385
H116  H     H_    0.401560 0.740487 0.456313 0.134535
C120  C     C_3   0.434546 0.744336 0.318668 -0.304152
H117  H     H_    0.425948 0.723270 0.251310 0.223107
H118  H     H_    0.427240 0.792787 0.311815 0.228136
C121  C     C_3   0.499557 0.733127 0.346237 -0.959663
H119  H     H_    0.509613 0.754923 0.412508 0.251332
H120  H     H_    0.530087 0.751476 0.293417 0.261874
H121  H     H_    0.507936 0.684866 0.352352 0.257785
O24   O     O_3   0.669244 0.264528 0.634804 -0.617218
C122  C     C_3   0.686896 0.307666 0.699414 0.048576
H122  H     H_    0.648403 0.338038 0.710328 0.158780
H123  H     H_    0.725208 0.335942 0.676951 0.131204
C123  C     C_3   0.701860 0.277500 0.790172 -0.325741
H124  H     H_    0.661160 0.255032 0.816969 0.225441
H125  H     H_    0.737050 0.243465 0.779235 0.213779
C124  C     C_3   0.724128 0.322048 0.860707 -0.941470
H126  H     H_    0.766096 0.343327 0.836421 0.256678
H127  H     H_    0.733598 0.298995 0.926115 0.260383
H128  H     H_    0.689650 0.356580 0.873163 0.259355
O25   O     O_3   0.168318 0.229764 0.639938 -0.610671
C125  C     C_3   0.109018 0.219201 0.610317 0.054047
H129  H     H_    0.102001 0.170726 0.603977 0.155398
H130  H     H_    0.098329 0.240554 0.543757 0.134719
C126  C     C_3   0.065357 0.243502 0.681475 -0.304042
H131  H     H_    0.074081 0.222109 0.748552 0.223092
H132  H     H_    0.072426 0.291948 0.688950 0.228060
C127  C     C_3   0.000395 0.232126 0.653809 -0.960072
H133  H     H_    0.990181 0.254316 0.587903 0.251429
H134  H     H_    0.969792 0.249943 0.706963 0.261786
H135  H     H_    0.992285 0.183864 0.646918 0.257931
O26   O     O_3   0.830784 0.764510 0.365310 -0.617256
C128  C     C_3   0.813136 0.807590 0.300602 0.048619
H136  H     H_    0.851630 0.837955 0.289634 0.158807
H137  H     H_    0.774824 0.835886 0.323004 0.131185
C129  C     C_3   0.798192 0.777342 0.209905 -0.325798
H138  H     H_    0.838901 0.754861 0.183171 0.225430
H139  H     H_    0.763011 0.743306 0.220904 0.213782
C130  C     C_3   0.775922 0.821820 0.139263 -0.941497
H140  H     H_    0.733944 0.843106 0.163489 0.256665
H141  H     H_    0.766468 0.798702 0.073907 0.260387
H142  H     H_    0.810393 0.856349 0.126734 0.259367
O27   O     O_3   0.831600 0.229850 0.359954 -0.610660
C131  C     C_3   0.890913 0.219267 0.389501 0.054016
H143  H     H_    0.897933 0.170788 0.395754 0.155382
H144  H     H_    0.901628 0.240571 0.456086 0.134728
C132  C     C_3   0.934544 0.243624 0.318341 -0.304026
H145  H     H_    0.925806 0.222266 0.251244 0.223073
H146  H     H_    0.927457 0.292071 0.310931 0.228113
C133  C     C_3   0.999519 0.232254 0.345946 -0.959938
H147  H     H_    0.009750 0.254425 0.411859 0.251424
H148  H     H_    0.030097 0.250099 0.292779 0.261817
H149  H     H_    0.007647 0.183992 0.352798 0.257904
O28   O     O_3   0.169285 0.764431 0.634822 -0.617231
C134  C     C_3   0.186952 0.807511 0.699513 0.048614
H150  H     H_    0.148455 0.837863 0.710531 0.158784
H151  H     H_    0.225246 0.835819 0.677073 0.131210
C135  C     C_3   0.201956 0.777262 0.790189 -0.325775
H152  H     H_    0.161268 0.754772 0.816981 0.225416
H153  H     H_    0.237139 0.743234 0.779143 0.213785
C136  C     C_3   0.224260 0.821744 0.860797 -0.941552
H154  H     H_    0.266217 0.843043 0.836510 0.256699
H155  H     H_    0.233760 0.798630 0.926143 0.260384
H156  H     H_    0.189788 0.856265 0.873367 0.259366

loop_
_geom_bond_atom_site_label_1
_geom_bond_atom_site_label_2
_ccdc_geom_bond_type
C93   H55   S    
C135  H153  S    
C88   H42   S    
Cu1   O1    S    
C109  H87   S    
C109  H89   S    
C38   C92   S    
C130  H141  S    
C5    O5    A    
C124  H128  S    
C104  H86   S    
C103  H74   S    
Cu4   O7    S    
C91   H46   S    
C135  C136  S    
C70   O17   S    
C84   H33   S    
C117  C118  S    
C31   O23   S    
O24   C122  S    
C31   C59   S    
C96   C97   S    
C72   O19   S    
Cu4   O16   S    
C70   C74   S    
C113  H102  S    
C23   H9    S    
C99   H70   S    
C131  C132  S    
C114  H103  S    
C27   C75   S    
C115  H106  S    
C106  H81   S    
C113  C114  S    
C102  C103  S    
C98   C99   S    
O23   C119  S    
C83   H31   S    
C19   N3    T    
C133  H147  S    
Cu1   Cu2   S    
C53   H2    S    
C97   H59   S    
C38   C57   S    
C95   H65   S    
C130  H140  S    
C6    O6    A    
C87   H40   S    
C79   H23   S    
C34   O26   S    
O26   C128  S    
C33   O25   S    
C34   C54   S    
C88   H44   S    
C121  H120  S    
C27   H13   S    
C28   C71   S    
C1    O1    A    
C129  H138  S    
C56   H3    S    
C85   H35   S    
C3    O3    A    
C82   H29   S    
C125  C126  S    
C5    O13   A    
C118  H113  S    
C24   H10   S    
O19   C83   S    
C1    C48   S    
C2    C47   S    
C3    C46   S    
C25   C76   S    
C127  H134  S    
C125  H130  S    
C44   C55   S    
C14   C50   T    
C108  H90   S    
C39   C60   S    
C4    O4    A    
Cu3   O8    S    
C86   H39   S    
C77   H18   S    
C78   H20   S    
C8    O16   A    
C105  C106  S    
C81   H27   S    
C100  H66   S    
C114  C115  S    
C54   H1    S    
O22   C116  S    
C38   C62   S    
C134  H151  S    
C114  H104  S    
Cu3   O15   S    
C83   C84   S    
O18   C80   S    
C31   C43   S    
C9    C61   S    
C28   H14   S    
C11   C63   S    
C42   C53   S    
C116  H108  S    
C12   C64   S    
C120  C121  S    
C71   O20   S    
C2    O2    A    
Cu4   O6    S    
O21   C113  S    
C136  H155  S    
C6    O14   A    
C59   C67   S    
C53   C61   S    
C69   O18   S    
C119  H115  S    
C117  H111  S    
C107  H93   S    
C56   C64   S    
C25   C71   S    
C112  H94   S    
C129  C130  S    
C89   H50   S    
C17   C73   S    
C128  H137  S    
C23   C70   S    
C92   H57   S    
C101  H78   S    
C131  H144  S    
C33   C66   S    
C126  H131  S    
C4    C45   S    
C94   H53   S    
C26   H16   S    
C122  C123  S    
C98   H72   S    
C97   H61   S    
C21   C69   S    
C110  H100  S    
C107  C108  S    
C100  H68   S    
C15   C67   S    
Cu2   N1    S    
C26   C75   S    
C96   H63   S    
C90   H49   S    
C15   C51   T    
C102  H76   S    
C132  H146  S    
Cu4   N3    S    
C111  H97   S    
C7    O7    A    
C30   C61   S    
C79   H22   S    
C80   H24   S    
C93   H56   S    
C29   C41   S    
C7    C50   S    
C116  C117  S    
C120  H117  S    
C109  H88   S    
C124  H127  S    
C104  H85   S    
O17   C77   S    
C119  C120  S    
C36   O28   S    
Cu2   O9    S    
C112  H96   S    
Cu4   O13   S    
C43   C67   S    
C22   H12   S    
O20   C86   S    
C17   N1    T    
C22   C70   S    
C84   C85   S    
C9    C45   T    
Cu2   O2    S    
C26   C72   S    
C11   C47   T    
C122  H122  S    
C12   C48   T    
C89   C90   S    
C82   H28   S    
C95   C96   S    
C93   C94   S    
C43   C107  S    
C44   C110  S    
C83   H32   S    
C35   O27   S    
C105  H83   S    
C133  H148  S    
C126  C127  S    
C101  C102  S    
Cu1   O11   S    
C1    O9    A    
C95   H64   S    
C3    O11   A    
C123  C124  S    
C86   H38   S    
C69   C73   S    
C87   H41   S    
C123  H124  S    
C80   C81   S    
C133  H149  S    
C135  H152  S    
C88   H43   S    
C121  H121  S    
C10   C62   S    
C129  H139  S    
C130  H142  S    
C85   H36   S    
C103  H75   S    
O27   C131  S    
Cu3   N4    S    
C91   H47   S    
C87   C88   S    
C54   C62   S    
C33   C37   S    
C35   C39   S    
O25   C125  S    
C36   C56   S    
C85   H37   S    
C104  C105  S    
C20   N4    T    
C106  H80   S    
C113  H101  S    
C99   H69   S    
C78   H19   S    
C29   C57   S    
C21   C23   S    
C22   C24   S    
C32   C60   S    
C41   C101  S    
C28   C76   S    
C115  H105  S    
C37   C89   S    
C90   C91   S    
C21   H11   S    
C106  H82   S    
C2    O10   A    
C16   C52   T    
C57   C65   S    
C132  C133  S    
C120  H118  S    
C40   C98   S    
C111  C112  S    
C30   O22   S    
C136  H154  S    
C134  H150  S    
C60   C68   S    
C119  H116  S    
C107  H92   S    
C121  H119  S    
C30   C42   S    
Cu1   O4    S    
Cu2   O12   S    
C55   H4    S    
C8    C49   S    
C27   C72   S    
C82   H30   S    
C92   C93   S    
C128  H136  S    
C91   H45   S    
C72   C76   S    
C118  H114  S    
C36   C67   S    
C13   C65   S    
C94   H52   S    
C20   C76   S    
C127  H133  S    
C122  H123  S    
C98   H71   S    
C97   H60   S    
C125  H129  S    
C57   H6    S    
Cu3   O5    S    
C110  H99   S    
C86   C87   S    
C7    O15   A    
C77   H17   S    
C78   C79   S    
C59   H8    S    
C58   C66   S    
C81   H26   S    
C100  H67   S    
C10   C46   T    
C5    C52   S    
C16   C68   S    
C108  H91   S    
C6    C51   S    
C37   C58   S    
C115  H107  S    
C4    O12   A    
C134  C135  S    
C18   C74   S    
C40   C59   S    
C102  H77   S    
C111  H98   S    
Cu1   O10   S    
C23   C73   S    
C8    O8    A    
C34   C65   S    
C60   H7    S    
C24   C69   S    
C33   C53   S    
C35   C55   S    
C36   C40   S    
C116  H109  S    
C41   C65   S    
C132  H145  S    
C124  H126  S    
C21   C74   S    
C90   H48   S    
C55   C63   S    
C77   C78   S    
C136  H156  S    
O28   C134  S    
C117  H110  S    
C14   C66   S    
Cu1   N2    S    
C112  H95   S    
C39   C95   S    
C13   C49   T    
C89   H51   S    
C103  H73   S    
C128  C129  S    
C123  H125  S    
C92   H58   S    
C44   C68   S    
C118  H112  S    
C58   H5    S    
C101  H79   S    
C131  H143  S    
C94   H54   S    
C84   H34   S    
C29   C62   S    
Cu2   O3    S    
C34   C38   S    
C31   C64   S    
C127  H135  S    
C32   C63   S    
C37   C61   S    
C25   H15   S    
C25   C27   S    
C39   C63   S    
C26   C28   S    
C40   C64   S    
C99   C100  S    
C19   C75   S    
C71   C75   S    
C24   C74   S    
C105  H84   S    
C35   C68   S    
C81   C82   S    
C30   C58   S    
C126  H132  S    
C96   H62   S    
C108  C109  S    
C41   C54   S    
C32   O24   S    
Cu3   Cu4   S    
C43   C56   S    
C32   C44   S    
Cu3   O14   S    
C110  C111  S    
C42   C66   S    
C29   O21   S    
C18   N2    T    
C22   C73   S    
C42   C104  S    
C79   H21   S    
C80   H25   S    
