data_mof_unit_48623.cif
_audit_creation_date              2012-12-11T14:38:32-0500
_audit_creation_method            fapswitch 2.2
_symmetry_space_group_name_H-M    P1
_symmetry_Int_Tables_number       1
_space_group_crystal_system       triclinic
_cell_length_a                    19.529499
_cell_length_b                    11.177215
_cell_length_c                    19.705937
_cell_angle_alpha                 89.880931
_cell_angle_beta                  96.493172
_cell_angle_gamma                 89.91923
_cell_volume                      4273.91065426

loop_
_atom_site_label
_atom_site_type_symbol
_atom_type_description
_atom_site_fract_x
_atom_site_fract_y
_atom_site_fract_z
_atom_type_partial_charge
C1    C     C_R   0.725155 0.950780 0.359365 0.540800
C2    C     C_R   0.275775 0.953657 0.639733 0.540447
C3    C     C_R   0.224278 0.453483 0.360216 0.540013
C4    C     C_R   0.791707 0.494140 0.633398 0.541838
C5    C     C_3   0.689597 0.471248 0.455102 -0.248359
C6    C     C_3   0.314115 0.461131 0.542025 -0.248940
C7    C     C_3   0.185656 0.960348 0.457909 -0.248279
C8    C     C_3   0.823330 0.908954 0.536882 -0.232625
C9    C     C_3   0.829219 0.520722 0.517592 -0.235651
C10   C     C_3   0.179694 0.496477 0.468443 -0.192991
C11   C     C_3   0.320063 0.995852 0.531075 -0.193914
C12   C     C_3   0.689725 0.010097 0.468803 -0.208443
C13   C     C_3   0.788943 0.320974 0.552486 -0.018466
C14   C     C_3   0.218545 0.294261 0.447278 -0.046741
C15   C     C_3   0.281621 0.793985 0.553290 -0.045956
C16   C     C_3   0.709067 0.795590 0.448099 -0.052164
C17   C     C_3   0.777455 0.458098 0.561121 0.052356
C18   C     C_3   0.234176 0.425951 0.432781 0.063556
C19   C     C_3   0.265789 0.925792 0.567228 0.063148
C20   C     C_3   0.734950 0.922116 0.432111 0.063365
C21   C     C_3   0.750860 0.400614 0.432923 0.036646
C22   C     C_3   0.251717 0.393792 0.564507 0.032807
C23   C     C_3   0.248088 0.892788 0.435636 0.032403
C24   C     C_3   0.752647 0.892582 0.564118 0.029188
C25   C     C_3   0.816535 0.478996 0.442936 -0.224432
C26   C     C_3   0.186865 0.471546 0.545949 -0.237102
C27   C     C_3   0.312908 0.970247 0.453759 -0.236556
C28   C     C_3   0.708424 0.004848 0.547043 -0.262141
C29   C     C_3   0.759603 0.288433 0.480195 -0.213567
C30   C     C_3   0.245450 0.275777 0.522224 -0.204665
C31   C     C_3   0.254617 0.774971 0.478437 -0.205941
C32   C     C_3   0.715679 0.784916 0.525671 -0.202475
C33   C     C_3   0.492517 0.303408 0.961775 -0.262951
C34   C     C_3   0.508601 0.303523 0.037788 -0.263306
C35   C     C_3   0.992556 0.803409 0.961768 -0.262954
C36   C     C_3   0.008647 0.803523 0.037780 -0.263333
C37   C     C_3   0.427514 0.110099 0.968512 -0.190881
C38   C     C_3   0.572407 0.108662 0.031723 -0.190632
C39   C     C_3   0.927515 0.610138 0.968509 -0.190809
C40   C     C_3   0.072401 0.608611 0.031721 -0.190472
C41   C     C_3   0.555648 0.107529 0.953230 -0.044615
C42   C     C_3   0.444253 0.109258 0.047002 -0.044594
C43   C     C_3   0.055648 0.607496 0.953226 -0.044630
C44   C     C_3   0.944248 0.609312 0.046998 -0.044551
C45   C     C_R   0.536462 0.180371 0.338752 0.536738
C46   C     C_R   0.463473 0.180460 0.661212 0.536580
C47   C     C_R   0.036635 0.680410 0.338881 0.534897
C48   C     C_R   0.963841 0.680459 0.661441 0.530837
C49   C     C_3   0.485995 0.173014 0.933946 0.037264
C50   C     C_3   0.514274 0.173249 0.066044 0.037262
C51   C     C_3   0.986007 0.673015 0.933942 0.037242
C52   C     C_3   0.014284 0.673251 0.066040 0.037355
C53   C     C_1   0.761897 0.427357 0.904413 -0.001700
C54   C     C_1   0.238148 0.427684 0.095577 -0.000314
C55   C     C_1   0.261896 0.927350 0.904412 -0.000174
C56   C     C_1   0.738151 0.927674 0.095581 -0.000210
C57   C     C_1   0.747263 0.405087 0.034171 -0.020094
C58   C     C_1   0.252609 0.404967 0.965785 -0.020640
C59   C     C_1   0.247262 0.905077 0.034169 -0.020445
C60   C     C_1   0.752614 0.904951 0.965790 -0.020611
C61   C     C_1   0.753493 0.415408 0.963712 -0.028387
C62   C     C_1   0.246478 0.415590 0.036268 -0.028282
C63   C     C_1   0.253492 0.915399 0.963710 -0.028271
C64   C     C_1   0.746483 0.915576 0.036273 -0.028227
C65   C     C_1   0.742840 0.390597 0.094156 0.015927
C66   C     C_1   0.257026 0.390288 0.905820 0.015270
C67   C     C_1   0.242839 0.890590 0.094154 0.015723
C68   C     C_1   0.757030 0.890274 0.905825 0.015278
C69   C     C_R   0.738666 0.359172 0.362116 0.543046
C70   C     C_R   0.261101 0.360142 0.637645 0.542542
C71   C     C_R   0.238712 0.859449 0.362541 0.543261
C72   C     C_R   0.760710 0.861970 0.638034 0.537454
C73   C     C_R   0.722199 0.954659 0.163179 0.534867
C74   C     C_R   0.277797 0.954451 0.836805 0.536457
C75   C     C_R   0.222198 0.454662 0.163177 0.536001
C76   C     C_R   0.777797 0.454453 0.836805 0.544359
C77   C     C_R   0.534278 0.179506 0.140095 0.550306
C78   C     C_R   0.465881 0.179308 0.859866 0.550823
C79   C     C_R   0.034283 0.679506 0.140093 0.550827
C80   C     C_R   0.965888 0.679308 0.859862 0.551300
C81   C     C_R   0.735805 0.357366 0.163324 0.552149
C82   C     C_R   0.264198 0.357054 0.836707 0.552153
C83   C     C_R   0.235803 0.857361 0.163322 0.552787
C84   C     C_R   0.764200 0.857047 0.836709 0.553514
C85   C     C_1   0.484838 0.173154 0.594080 -0.013786
C86   C     C_1   0.514993 0.172834 0.405845 -0.011023
C87   C     C_1   0.986029 0.673323 0.594627 -0.017732
C88   C     C_1   0.015752 0.673052 0.406240 -0.016507
C89   C     C_1   0.504438 0.169757 0.464926 -0.051401
C90   C     C_1   0.495317 0.169927 0.534987 -0.052439
C91   C     C_1   0.005685 0.670140 0.465470 -0.053615
C92   C     C_1   0.996832 0.670329 0.535608 -0.056205
C93   C     C_3   0.699722 0.483457 0.533046 -0.250945
C94   C     C_3   0.309837 0.457972 0.463680 -0.263263
C95   C     C_3   0.190099 0.957908 0.536288 -0.263114
C96   C     C_3   0.812592 0.933763 0.459902 -0.259174
Cr1   Cr    Cr6+3 0.765780 0.160710 0.267420 1.048102
Cr2   Cr    Cr6+3 0.234220 0.160710 0.732580 1.048562
Cr3   Cr    Cr6+3 0.265780 0.660710 0.267420 1.049713
Cr4   Cr    Cr6+3 0.734220 0.660710 0.732580 1.046172
Cr5   Cr    Cr6+3 0.612200 0.009560 0.248850 1.087128
Cr6   Cr    Cr6+3 0.387800 0.009560 0.751150 1.082760
Cr7   Cr    Cr6+3 0.112200 0.509560 0.248850 1.081759
Cr8   Cr    Cr6+3 0.887800 0.509560 0.751150 1.081643
Cr9   Cr    Cr6+3 0.616030 0.323720 0.248510 1.042752
Cr10  Cr    Cr6+3 0.383970 0.323720 0.751490 1.042269
Cr11  Cr    Cr6+3 0.116030 0.823720 0.248510 1.041627
Cr12  Cr    Cr6+3 0.883970 0.823720 0.751490 1.039012
H1    H     H_    0.677018 0.567374 0.548897 0.155035
H2    H     H_    0.330674 0.541642 0.444779 0.166706
H3    H     H_    0.169400 0.042000 0.554741 0.166722
H4    H     H_    0.832044 0.024880 0.450413 0.164626
H5    H     H_    0.790212 0.215721 0.460225 0.168466
H6    H     H_    0.215702 0.206260 0.544542 0.166548
H7    H     H_    0.284482 0.705545 0.456241 0.165895
H8    H     H_    0.663407 0.775223 0.542276 0.185240
H9    H     H_    0.882934 0.498391 0.538084 0.170368
H10   H     H_    0.125779 0.479866 0.446922 0.180003
H11   H     H_    0.374053 0.979983 0.552808 0.179714
H12   H     H_    0.634190 0.988138 0.457548 0.175731
H13   H     H_    0.861925 0.426738 0.430209 0.178336
H14   H     H_    0.140389 0.423289 0.559255 0.179055
H15   H     H_    0.359404 0.921574 0.440743 0.179723
H16   H     H_    0.660558 0.001886 0.572759 0.137597
H17   H     H_    0.443340 0.353736 0.949036 0.161057
H18   H     H_    0.558090 0.352645 0.050422 0.160276
H19   H     H_    0.943386 0.853762 0.949033 0.161133
H20   H     H_    0.058151 0.852601 0.050411 0.160159
H21   H     H_    0.533826 0.352273 0.938472 0.147595
H22   H     H_    0.467574 0.353576 0.060869 0.147911
H23   H     H_    0.033870 0.852249 0.938459 0.147321
H24   H     H_    0.967636 0.853619 0.060861 0.147768
H25   H     H_    0.377770 0.157877 0.954708 0.091979
H26   H     H_    0.622418 0.155372 0.045315 0.091748
H27   H     H_    0.877777 0.657933 0.954699 0.091798
H28   H     H_    0.122426 0.655273 0.045320 0.091682
H29   H     H_    0.403290 0.159423 0.069888 0.123091
H30   H     H_    0.596874 0.156549 0.930112 0.123480
H31   H     H_    0.903296 0.659520 0.069877 0.123032
H32   H     H_    0.096884 0.656503 0.930116 0.122991
H33   H     H_    0.579587 0.015922 0.051567 0.198912
H34   H     H_    0.419821 0.017384 0.949049 0.198176
H35   H     H_    0.079550 0.515864 0.051561 0.199005
H36   H     H_    0.919812 0.517420 0.949053 0.198016
H37   H     H_    0.666955 0.415241 0.555048 0.130419
H38   H     H_    0.345400 0.387733 0.448133 0.118346
H39   H     H_    0.154586 0.888064 0.552307 0.119312
H40   H     H_    0.843818 0.869561 0.433079 0.116927
H41   H     H_    0.639534 0.425865 0.439685 0.161826
H42   H     H_    0.364305 0.422242 0.563976 0.170046
H43   H     H_    0.135530 0.921231 0.436258 0.169802
H44   H     H_    0.855332 0.827022 0.546872 0.127490
H45   H     H_    0.688116 0.558329 0.429859 0.165637
H46   H     H_    0.310449 0.552538 0.560272 0.167773
H47   H     H_    0.189111 0.051566 0.439063 0.168206
H48   H     H_    0.852039 0.984213 0.563548 0.178931
H49   H     H_    0.315533 0.086556 0.543747 0.086464
H50   H     H_    0.692485 0.097576 0.445815 0.100294
H51   H     H_    0.829448 0.618734 0.519523 0.078067
H52   H     H_    0.183426 0.587162 0.454641 0.086572
H53   H     H_    0.309519 0.055393 0.424444 0.099727
H54   H     H_    0.737873 0.084803 0.565302 0.126549
H55   H     H_    0.811174 0.557671 0.408101 0.104075
H56   H     H_    0.190233 0.556948 0.574779 0.099736
H57   H     H_    0.760077 0.272944 0.589700 0.130475
H58   H     H_    0.246985 0.235432 0.414629 0.104930
H59   H     H_    0.253364 0.735479 0.586329 0.105291
H60   H     H_    0.743026 0.729574 0.426478 0.107252
H61   H     H_    0.706912 0.257552 0.485614 0.082204
H62   H     H_    0.299271 0.249859 0.520899 0.089956
H63   H     H_    0.200959 0.748850 0.480324 0.090546
H64   H     H_    0.744944 0.705799 0.541911 0.106042
O1    O     O_R   0.783100 0.287550 0.345460 -0.519875
O2    O     O_R   0.216900 0.287550 0.654540 -0.517823
O3    O     O_R   0.283100 0.787550 0.345460 -0.517313
O4    O     O_R   0.716900 0.787550 0.654540 -0.529900
O5    O     O_R   0.554710 0.081900 0.170950 -0.474618
O6    O     O_R   0.445290 0.081900 0.829050 -0.474500
O7    O     O_R   0.054710 0.581900 0.170950 -0.474633
O8    O     O_R   0.945290 0.581900 0.829050 -0.474427
O9    O     O_R   0.545650 0.284910 0.163740 -0.527753
O10   O     O_R   0.454350 0.284910 0.836260 -0.527496
O11   O     O_R   0.045650 0.784910 0.163740 -0.527801
O12   O     O_R   0.954350 0.784910 0.836260 -0.527062
O13   O     O_R   0.677950 0.374280 0.185410 -0.501587
O14   O     O_R   0.322050 0.374280 0.814590 -0.501504
O15   O     O_R   0.177950 0.874280 0.185410 -0.501639
O16   O     O_R   0.822050 0.874280 0.814590 -0.500129
O17   O     O_3   0.664670 0.164660 0.254930 -0.282865
O18   O     O_3   0.335330 0.164660 0.745070 -0.282503
O19   O     O_3   0.164670 0.664660 0.254930 -0.282539
O20   O     O_3   0.835330 0.664660 0.745070 -0.296177
O21   O     O_R   0.760020 0.037400 0.337700 -0.520887
O22   O     O_R   0.239980 0.037400 0.662300 -0.522867
O23   O     O_R   0.260020 0.537400 0.337700 -0.522906
O24   O     O_R   0.739980 0.537400 0.662300 -0.515975
O25   O     O_R   0.666600 0.921990 0.332020 -0.473819
O26   O     O_R   0.333400 0.921990 0.667980 -0.480972
O27   O     O_R   0.166600 0.421990 0.332020 -0.480989
O28   O     O_R   0.833400 0.421990 0.667980 -0.474586
O29   O     O_R   0.557260 0.082670 0.312540 -0.478631
O30   O     O_R   0.442740 0.082670 0.687460 -0.484417
O31   O     O_R   0.057260 0.582670 0.312540 -0.484293
O32   O     O_R   0.942740 0.582670 0.687460 -0.493159
O33   O     O_R   0.548410 0.285740 0.316480 -0.505045
O34   O     O_R   0.451590 0.285740 0.683520 -0.504367
O35   O     O_R   0.048410 0.785740 0.316480 -0.505169
O36   O     O_R   0.951590 0.785740 0.683520 -0.503397
O37   O     O_R   0.680500 0.375040 0.327000 -0.498035
O38   O     O_R   0.319500 0.375040 0.673000 -0.497656
O39   O     O_R   0.180500 0.875040 0.327000 -0.497871
O40   O     O_R   0.819500 0.875040 0.673000 -0.495039
O41   O     O_R   0.780350 0.286720 0.192720 -0.485314
O42   O     O_R   0.219650 0.286720 0.807280 -0.485077
O43   O     O_R   0.280350 0.786720 0.192720 -0.484380
O44   O     O_R   0.719650 0.786720 0.807280 -0.484525
O45   O     O_R   0.757470 0.036630 0.196110 -0.498425
O46   O     O_R   0.242530 0.036630 0.803890 -0.497479
O47   O     O_R   0.257470 0.536630 0.196110 -0.497451
O48   O     O_R   0.742530 0.536630 0.803890 -0.492742
O49   O     O_R   0.663840 0.921160 0.179280 -0.492051
O50   O     O_R   0.336160 0.921160 0.820720 -0.492307
O51   O     O_R   0.163840 0.421160 0.179280 -0.492608
O52   O     O_R   0.836160 0.421160 0.820720 -0.489017
I1    I     I_    0.559497 0.926201 0.915405 -0.341688
I2    I     I_    0.439423 0.928336 0.085622 -0.341131
I3    I     I_    0.059478 0.426175 0.915387 -0.341989
I4    I     I_    0.939369 0.428411 0.085634 -0.343479
I5    I     I_    0.894227 0.251928 0.570826 -0.398672
I6    I     I_    0.108278 0.242932 0.428942 -0.408565
I7    I     I_    0.391975 0.742628 0.571853 -0.410993
I8    I     I_    0.600403 0.750611 0.412004 -0.390272

loop_
_geom_bond_atom_site_label_1
_geom_bond_atom_site_label_2
_ccdc_geom_bond_type
C94   H38   S    
C39   C51   S    
C58   C62   S    
C8    C24   S    
C10   H52   S    
C37   C49   S    
C9    H9    S    
C14   C18   S    
C1    O21   A    
C35   C36   S    
C8    C96   S    
Cr12  O36   S    
C83   O15   A    
Cr7   O19   S    
C9    C25   S    
C36   H20   S    
C76   O52   A    
C67   C83   S    
C40   H28   S    
C11   C19   S    
Cr3   O43   S    
C48   O36   A    
C82   O14   A    
C11   H49   S    
Cr8   O32   S    
C10   C18   S    
C13   C29   S    
C16   C20   S    
C8    H44   S    
C25   H55   S    
C75   O47   A    
C72   O40   A    
Cr5   O17   S    
C74   O46   A    
Cr6   O26   S    
Cr2   O2    S    
Cr5   O25   S    
Cr7   O7    S    
Cr11  O39   S    
C9    H51   S    
Cr9   O13   S    
Cr10  O38   S    
Cr3   O23   S    
Cr9   O37   S    
C49   C78   S    
Cr2   O22   S    
C3    C18   S    
C46   O34   A    
C48   O32   A    
Cr1   O21   S    
C37   C42   S    
C12   H50   S    
C51   C80   S    
Cr10  O10   S    
C21   C25   S    
Cr7   O51   S    
C43   C51   S    
C82   O42   A    
C55   C74   S    
C13   H57   S    
C41   C49   S    
C40   C43   S    
C81   O41   A    
C57   C61   S    
C79   O11   A    
C78   O6    A    
C6    C94   S    
Cr8   O20   S    
C55   C63   T    
Cr11  O11   S    
Cr4   O4    S    
C77   O9    A    
C56   C64   T    
C93   H37   S    
C73   O49   A    
C23   C27   S    
C14   H58   S    
C52   C79   S    
Cr11  O35   S    
C36   C52   S    
Cr2   O18   S    
C46   C85   S    
C59   C67   T    
C5    C93   S    
C44   C52   S    
C7    H47   S    
Cr1   O17   S    
C20   C96   S    
C46   O30   A    
C75   O51   A    
C12   H12   S    
C87   C92   T    
C42   H29   S    
Cr8   O28   S    
Cr6   O6    S    
C15   H59   S    
Cr4   O20   S    
C69   O1    A    
C14   C30   S    
C31   H7    S    
Cr12  O40   S    
C43   I3    S    
Cr7   O31   S    
Cr4   O24   S    
C24   C72   S    
C96   H40   S    
C41   I1    S    
C34   C50   S    
Cr1   O1    S    
C37   H34   S    
Cr12  O12   S    
C28   H54   S    
C68   C84   S    
Cr9   O17   S    
C95   H39   S    
Cr10  O14   S    
C38   C41   S    
C11   H11   S    
C91   C92   S    
C81   O13   A    
C27   H15   S    
C39   H27   S    
C54   C62   T    
C40   C52   S    
C42   I2    S    
C21   C29   S    
C15   C31   S    
C16   I8    S    
C3    O23   A    
C21   C69   S    
C2    O22   A    
C23   C31   S    
C15   C19   S    
C24   C32   S    
C95   H3    S    
C10   H10   S    
C23   C71   S    
C66   C82   S    
C70   O2    A    
Cr8   O52   S    
C65   C81   S    
C88   C91   T    
C11   C27   S    
C34   H18   S    
C12   C20   S    
C33   H17   S    
C33   C34   S    
C7    H43   S    
C48   C87   S    
C47   O31   A    
C43   H32   S    
Cr7   O27   S    
C32   H8    S    
C3    O27   A    
C35   H19   S    
C44   I4    S    
C34   H22   S    
C41   H30   S    
C6    H46   S    
Cr12  O20   S    
C42   C50   S    
C30   H62   S    
C4    C17   S    
C9    C17   S    
C33   H21   S    
Cr3   O47   S    
C44   H31   S    
C71   O39   A    
C25   H13   S    
Cr2   O46   S    
C35   C51   S    
C18   C94   S    
C38   H33   S    
Cr1   O45   S    
C84   O16   A    
C53   C76   S    
C17   C93   S    
Cr10  O18   S    
C53   C61   T    
C50   C77   S    
C35   H23   S    
C19   C95   S    
Cr6   O50   S    
C58   C66   T    
C12   C28   S    
C30   H6    S    
Cr5   O49   S    
C4    O24   A    
C29   H5    S    
Cr4   O44   S    
C1    C20   S    
C45   O33   A    
C56   C73   S    
C22   C30   S    
C15   I7    S    
C2    C19   S    
C2    O26   A    
Cr12  O16   S    
C1    O25   A    
C24   C28   S    
C80   O12   A    
C57   C65   T    
C86   C89   T    
Cr10  O34   S    
C83   O43   A    
C85   C90   T    
C28   H16   S    
Cr9   O33   S    
C39   C44   S    
C38   C50   S    
C32   H64   S    
C47   O35   A    
C16   C32   S    
C7    C95   S    
C74   O50   A    
C59   C63   S    
C96   H4    S    
C13   C17   S    
C60   C64   S    
C60   C68   T    
Cr9   O9    S    
C47   C88   S    
C36   H24   S    
C45   C86   S    
Cr6   O30   S    
C94   H2    S    
C80   O8    A    
Cr5   O29   S    
C27   H53   S    
Cr3   O19   S    
C10   C26   S    
Cr8   O8    S    
C7    C23   S    
C31   H63   S    
C16   H60   S    
C5    H45   S    
C5    H41   S    
C26   H56   S    
Cr6   O18   S    
C71   O3    A    
C29   H61   S    
C69   O37   A    
C37   H25   S    
C38   H26   S    
Cr2   O42   S    
C8    H48   S    
C72   O4    A    
C77   O5    A    
C14   I6    S    
Cr3   O3    S    
Cr5   O5    S    
C13   I5    S    
C54   C75   S    
C6    H42   S    
C4    O28   A    
C79   O7    A    
C5    C21   S    
C39   H36   S    
Cr4   O48   S    
C45   O29   A    
C22   C26   S    
C40   H35   S    
Cr11  O19   S    
C73   O45   A    
C76   O48   A    
Cr11  O15   S    
Cr1   O41   S    
C26   H14   S    
C70   O38   A    
C78   O10   A    
C89   C90   S    
C33   C49   S    
C22   C70   S    
C84   O44   A    
C93   H1    S    
C6    C22   S    
