data_mof_unit_58480.cif
_audit_creation_date              2012-12-10T18:28:00-0500
_audit_creation_method            fapswitch 2.2
_symmetry_space_group_name_H-M    P1
_symmetry_Int_Tables_number       1
_space_group_crystal_system       triclinic
_cell_length_a                    18.526582
_cell_length_b                    18.336882
_cell_length_c                    18.420631
_cell_angle_alpha                 90.90511
_cell_angle_beta                  119.404271
_cell_angle_gamma                 119.917391
_cell_volume                      4434.74512324

loop_
_atom_site_label
_atom_site_type_symbol
_atom_type_description
_atom_site_fract_x
_atom_site_fract_y
_atom_site_fract_z
_atom_type_partial_charge
C1    C     C_R   0.781970 0.641189 0.641044 0.940139
C2    C     C_3   0.059186 0.202972 0.313534 -0.245559
C3    C     C_2   0.341187 0.288160 0.160677 0.888393
C4    C     C_2   0.363417 0.196478 0.053586 1.014799
C5    C     C_2   0.443683 0.084835 0.279542 0.992794
C6    C     C_2   0.691457 0.770654 0.362976 1.017592
C7    C     C_3   0.661657 0.833463 0.453792 -0.777652
C8    C     C_2   0.634507 0.943320 0.347856 0.953266
C9    C     C_3   0.702784 0.898811 0.287575 -0.870029
C10   C     C_2   0.306347 0.649487 0.246965 0.912975
C11   C     C_2   0.450809 0.788409 0.367114 0.887097
C12   C     C_3   0.349242 0.559988 0.152847 -0.845502
C13   C     C_3   0.102439 0.299275 0.299534 -0.127187
C14   C     C_3   0.403236 0.673086 0.054871 -0.889417
C15   C     C_3   0.118884 0.393261 0.428062 -0.699345
C16   C     C_2   0.896810 0.297000 0.313544 0.984184
C17   C     C_R   0.218031 0.358381 0.356774 0.902499
C18   C     C_3   0.897838 0.200913 0.202462 -0.116383
C19   C     C_3   0.937059 0.219100 0.139729 -0.064918
C20   C     C_3   0.938212 0.151064 0.268153 -0.010382
C21   C     C_3   0.584317 0.362908 0.802951 -0.306477
C22   C     C_3   0.578181 0.307971 0.867744 -0.059061
C23   C     C_3   0.386724 0.246380 0.688222 -0.230917
C24   C     C_3   0.522822 0.237693 0.678419 -0.220533
C25   C     C_3   0.592559 0.828153 0.801800 0.126434
C26   C     C_3   0.494147 0.300958 0.699395 -0.225560
C27   C     C_3   0.501616 0.201234 0.804644 -0.022489
C28   C     C_3   0.384395 0.173756 0.739302 -0.051528
C29   C     C_R   0.497929 0.639692 0.357879 0.799268
C30   C     C_3   0.540215 0.186068 0.746346 0.305618
C31   C     C_3   0.939361 0.743562 0.802190 0.007396
C32   C     C_3   0.057995 0.790934 0.859070 -0.375055
C33   C     C_3   0.937317 0.635863 0.699685 0.064227
C34   C     C_3   0.940121 0.779144 0.658704 0.054273
C35   C     C_3   0.897551 0.698907 0.699005 -0.170496
C36   C     C_3   0.525270 0.792374 0.699398 0.143054
C37   C     C_3   0.102616 0.803088 0.800231 -0.052874
C38   C     C_3   0.062182 0.702025 0.751983 0.266770
C39   C     C_3   0.062784 0.850079 0.731391 0.243402
C40   C     C_3   0.589231 0.369578 0.282118 0.275596
C41   C     C_R   0.498069 0.358660 0.641100 0.887469
C42   C     C_3   0.586285 0.305679 0.221358 -0.209383
C43   C     C_3   0.533728 0.248943 0.348857 -0.481297
C44   C     C_3   0.388438 0.238759 0.206260 -0.217209
C45   C     C_3   0.501304 0.305644 0.298142 -0.002656
C46   C     C_3   0.505231 0.202515 0.200637 -0.135323
C47   C     C_3   0.431603 0.765325 0.698587 0.150751
C48   C     C_3   0.525411 0.179583 0.290150 0.111128
C49   C     C_3   0.398473 0.187532 0.145737 -0.394800
C50   C     C_3   0.614325 0.790069 0.353264 -0.021365
C51   C     C_3   0.613203 0.858545 0.298433 0.003659
C52   C     C_3   0.459167 0.647274 0.207802 -0.056299
C53   C     C_R   0.500026 0.359355 0.358166 0.891322
C54   C     C_3   0.418698 0.727167 0.283627 -0.100065
C55   C     C_3   0.497193 0.700007 0.302599 -0.101816
C56   C     C_3   0.504809 0.804491 0.202818 -0.010313
C57   C     C_3   0.481977 0.714543 0.157313 -0.003814
C58   C     C_3   0.407178 0.671228 0.698443 -0.247065
C59   C     C_3   0.416957 0.776050 0.214094 -0.453667
C60   C     C_R   0.502318 0.141697 0.859834 0.883630
C61   C     C_R   0.501674 0.860541 0.142568 0.872325
C62   C     C_R   0.782081 0.141853 0.142953 0.940477
C63   C     C_R   0.218156 0.861176 0.859047 0.844353
C64   C     C_R   0.502572 0.142081 0.143056 0.823221
C65   C     C_R   0.500575 0.641515 0.641576 0.833324
C66   C     C_R   0.499453 0.858562 0.858564 0.800798
C67   C     C_3   0.569475 0.734974 0.802400 0.176875
C68   C     C_3   0.475745 0.708219 0.801429 0.140625
C69   C     C_3   0.501823 0.699193 0.699865 -0.083881
C70   C     C_3   0.498925 0.801262 0.800889 -0.053140
C71   C     C_3   0.446995 0.660222 0.859294 -0.853915
C72   C     C_2   0.924023 0.361438 0.211976 0.839885
C73   C     C_3   0.090532 0.375654 0.176081 -0.944148
C74   C     C_2   0.085640 0.148702 0.277299 0.927096
C75   C     C_2   0.110672 0.208197 0.410419 1.029518
C76   C     C_2   0.906876 0.148591 0.333478 0.931424
C77   C     C_3   0.884127 0.047788 0.224176 -0.705568
C78   C     C_2   0.103273 0.254370 0.161026 1.012532
C79   C     C_3   0.879998 0.137294 0.057402 -0.831991
C80   C     C_3   0.065387 0.350697 0.326734 -0.131712
C81   C     C_2   0.622784 0.459715 0.841685 1.040262
C82   C     C_3   0.648923 0.719393 0.863482 -0.785329
C83   C     C_3   0.691830 0.344586 0.945995 -0.700141
C84   C     C_2   0.542078 0.329502 0.920219 0.970674
C85   C     C_2   0.373794 0.316383 0.717521 0.968289
C86   C     C_2   0.332223 0.162697 0.787188 0.954242
C87   C     C_2   0.471232 0.185777 0.582242 1.031057
C88   C     C_3   0.656297 0.224630 0.803719 -0.915220
C89   C     C_3   0.494070 0.085299 0.701756 -0.759936
C90   C     C_2   0.289993 0.195226 0.593102 0.935811
C91   C     C_3   0.944332 0.300043 0.263138 -0.215287
C92   C     C_3   0.697293 0.917017 0.860282 -0.866787
C93   C     C_3   0.306302 0.075303 0.668514 -0.842806
C94   C     C_3   0.900841 0.679747 0.851477 -0.751770
C95   C     C_2   0.905912 0.804317 0.809669 0.897075
C96   C     C_2   0.118654 0.859732 0.950746 1.090634
C97   C     C_2   0.896136 0.561450 0.737283 0.928081
C98   C     C_3   0.122544 0.670353 0.822723 -0.784084
C99   C     C_2   0.907593 0.742201 0.561670 0.936756
C100  C     C_3   0.887216 0.829187 0.638360 -0.811489
C101  C     C_3   0.092823 0.938924 0.785506 -0.796662
C102  C     C_3   0.058446 0.285284 0.195147 0.039896
C103  C     C_3   0.553339 0.841516 0.641939 -0.805608
C104  C     C_3   0.122845 0.892129 0.688436 -0.706695
C105  C     C_3   0.883538 0.572926 0.604523 -0.884635
C106  C     C_3   0.095298 0.698222 0.688824 -0.822719
C107  C     C_3   0.700142 0.433152 0.370825 -0.782678
C108  C     C_3   0.573878 0.435909 0.234618 -0.744606
C109  C     C_2   0.689725 0.338585 0.239368 0.990637
C110  C     C_3   0.626036 0.187165 0.342961 -0.893134
C111  C     C_2   0.306149 0.164103 0.215527 0.862178
C112  C     C_3   0.352191 0.781003 0.637680 -0.794785
H1    H     H_    0.909626 0.256063 0.102369 0.222795
H2    H     H_    0.330888 0.606356 0.655761 0.169074
H3    H     H_    0.310754 0.961856 0.203197 0.379262
H4    H     H_    0.839764 0.823156 0.415979 0.365562
H5    H     H_    0.744417 0.887492 0.492194 0.293484
H6    H     H_    0.632255 0.867884 0.465823 0.252715
H7    H     H_    0.653970 0.783997 0.488431 0.208261
H8    H     H_    0.589167 0.021988 0.349963 0.364817
H9    H     H_    0.701634 0.849126 0.251352 0.227317
H10   H     H_    0.702710 0.945226 0.252186 0.287372
H11   H     H_    0.778056 0.940120 0.352627 0.306792
H12   H     H_    0.205911 0.567295 0.273815 0.346249
H13   H     H_    0.551917 0.730316 0.165289 0.183307
H14   H     H_    0.479827 0.901318 0.429056 0.360754
H15   H     H_    0.341100 0.512764 0.105997 0.245465
H16   H     H_    0.330692 0.524785 0.196020 0.223331
H17   H     H_    0.291343 0.571825 0.111477 0.297207
H18   H     H_    0.433487 0.717195 0.022032 0.237035
H19   H     H_    0.388302 0.608533 0.028900 0.267791
H20   H     H_    0.330263 0.662015 0.033731 0.250500
H21   H     H_    0.201315 0.423719 0.469390 0.250402
H22   H     H_    0.116396 0.451250 0.440275 0.267358
H23   H     H_    0.084938 0.346389 0.456440 0.294643
H24   H     H_    0.410467 0.830988 0.225964 0.280132
H25   H     H_    0.781808 0.227187 0.325963 0.360016
H26   H     H_    0.346109 0.732562 0.146782 0.222112
H27   H     H_    0.099911 0.414291 0.314855 0.237332
H28   H     H_    0.433204 0.593827 0.844725 0.268238
H29   H     H_    0.509809 0.700746 0.930385 0.253257
H30   H     H_    0.376815 0.650728 0.845354 0.230554
H31   H     H_    0.959863 0.486609 0.220686 0.355306
H32   H     H_    0.057498 0.407971 0.184622 0.248379
H33   H     H_    0.652128 0.380928 0.805392 0.145113
H34   H     H_    0.174628 0.424718 0.217402 0.253755
H35   H     H_    0.064023 0.364729 0.105496 0.276044
H36   H     H_    0.176169 0.107557 0.303745 0.378743
H37   H     H_    0.198082 0.284415 0.538673 0.380490
H38   H     H_    0.791941 0.099498 0.347845 0.372127
H39   H     H_    0.811593 0.001932 0.216352 0.255217
H40   H     H_    0.865470 0.029794 0.156990 0.271861
H41   H     H_    0.930043 0.024611 0.266483 0.229420
H42   H     H_    0.203600 0.227896 0.188617 0.370267
H43   H     H_    0.796717 0.094107 0.024205 0.209611
H44   H     H_    0.599135 0.287740 0.692974 0.119444
H45   H     H_    0.887631 0.161016 0.004802 0.266679
H46   H     H_    0.906942 0.094497 0.070820 0.305953
H47   H     H_    0.744495 0.585514 0.926359 0.343542
H48   H     H_    0.685654 0.755284 0.933700 0.236188
H49   H     H_    0.611794 0.646736 0.852106 0.278888
H50   H     H_    0.707832 0.744900 0.850007 0.259771
H51   H     H_    0.718086 0.383147 0.011291 0.266600
H52   H     H_    0.705071 0.292616 0.959150 0.266268
H53   H     H_    0.750801 0.394155 0.937457 0.232073
H54   H     H_    0.533049 0.323811 0.024602 0.377823
H55   H     H_    0.065739 0.739839 0.883322 0.166054
H56   H     H_    0.363130 0.419671 0.695579 0.355458
H57   H     H_    0.207471 0.137754 0.777169 0.346372
H58   H     H_    0.487848 0.175832 0.484079 0.370448
H59   H     H_    0.709012 0.298075 0.829257 0.245401
H60   H     H_    0.675770 0.197314 0.858338 0.229098
H61   H     H_    0.676880 0.205663 0.762851 0.252255
H62   H     H_    0.522034 0.056349 0.752398 0.223395
H63   H     H_    0.411737 0.036477 0.658653 0.255943
H64   H     H_    0.520139 0.081172 0.659817 0.226922
H65   H     H_    0.220629 0.118684 0.470158 0.391774
H66   H     H_    0.553153 0.313063 0.156242 0.162773
H67   H     H_    0.749365 0.918406 0.845777 0.263429
H68   H     H_    0.691022 0.973125 0.846930 0.230526
H69   H     H_    0.728610 0.924895 0.931235 0.255340
H70   H     H_    0.306141 0.021168 0.692505 0.252281
H71   H     H_    0.225733 0.050446 0.636326 0.267434
H72   H     H_    0.310829 0.070958 0.611990 0.281543
H73   H     H_    0.929077 0.637987 0.870315 0.250238
H74   H     H_    0.931420 0.721400 0.917224 0.246953
H75   H     H_    0.818396 0.636880 0.820802 0.278233
H76   H     H_    0.932607 0.908654 0.884216 0.358799
H77   H     H_    0.610270 0.292434 0.412032 0.188243
H78   H     H_    0.195656 0.985861 0.026949 0.395685
H79   H     H_    0.772208 0.457675 0.726545 0.342414
H80   H     H_    0.122423 0.670964 0.882531 0.252955
H81   H     H_    0.095088 0.601449 0.791236 0.269666
H82   H     H_    0.204950 0.712966 0.850128 0.197659
H83   H     H_    0.795705 0.675709 0.430375 0.360264
H84   H     H_    0.909577 0.874931 0.602888 0.261284
H85   H     H_    0.802993 0.782143 0.595183 0.260454
H86   H     H_    0.905887 0.873105 0.695059 0.243521
H87   H     H_    0.175568 0.982522 0.838611 0.281354
H88   H     H_    0.342722 0.115511 0.125704 0.225296
H89   H     H_    0.077147 0.978978 0.743287 0.240377
H90   H     H_    0.053564 0.929663 0.816696 0.284796
H91   H     H_    0.577066 0.911058 0.663665 0.233807
H92   H     H_    0.616591 0.843148 0.647497 0.247719
H93   H     H_    0.485722 0.806339 0.572236 0.292087
H94   H     H_    0.139234 0.850914 0.664624 0.267366
H95   H     H_    0.083021 0.911813 0.633759 0.251546
H96   H     H_    0.199102 0.955871 0.735632 0.235127
H97   H     H_    0.907861 0.527560 0.609837 0.242261
H98   H     H_    0.799705 0.527659 0.568713 0.252195
H99   H     H_    0.489561 0.216176 0.375927 0.228979
H100  H     H_    0.897739 0.605251 0.559169 0.257967
H101  H     H_    0.178363 0.743490 0.721303 0.250297
H102  H     H_    0.075562 0.630539 0.665420 0.237036
H103  H     H_    0.059703 0.710050 0.628376 0.279656
H104  H     H_    0.728748 0.397520 0.410139 0.241225
H105  H     H_    0.755949 0.476099 0.356025 0.244179
H106  H     H_    0.710997 0.483331 0.415994 0.255654
H107  H     H_    0.633047 0.472281 0.221629 0.223426
H108  H     H_    0.500926 0.402118 0.169169 0.269347
H109  H     H_    0.581440 0.488669 0.273928 0.296272
H110  H     H_    0.500849 0.618148 0.215433 0.230091
H111  H     H_    0.779939 0.389371 0.196034 0.368916
H112  H     H_    0.627486 0.145503 0.300201 0.231973
H113  H     H_    0.693468 0.256595 0.373825 0.285709
H114  H     H_    0.636000 0.164941 0.400875 0.257998
H115  H     H_    0.160804 0.053896 0.151012 0.367276
H116  H     H_    0.315849 0.745643 0.567411 0.253022
H117  H     H_    0.292937 0.754767 0.650783 0.243726
H118  H     H_    0.389122 0.853849 0.649605 0.245568
H119  H     H_    0.337953 0.396121 0.169548 0.348258
H120  H     H_    0.262676 0.132743 0.921890 0.365561
O1    O     O_3   0.500000 0.500000 0.500000 -0.535773
O2    O     O_R   0.266230 0.883210 0.944500 -0.629929
O3    O     O_R   0.561150 0.178510 0.117240 -0.593672
O4    O     O_R   0.733670 0.616970 0.678220 -0.597867
O5    O     O_R   0.438720 0.882700 0.821420 -0.658037
O6    O     O_R   0.438610 0.055960 0.117240 -0.572838
O7    O     O_R   0.561250 0.882700 0.943960 -0.647141
O8    O     O_R   0.733630 0.055440 0.116700 -0.645466
O9    O     O_R   0.266260 0.883000 0.821740 -0.663919
O10   O     O_R   0.561190 0.178210 0.944500 -0.578235
O11   O     O_R   0.438650 0.883210 0.116920 -0.613595
O12   O     O_R   0.438720 0.616970 0.383270 -0.564939
O13   O     O_R   0.266300 0.444520 0.383270 -0.652782
O14   O     O_R   0.561280 0.616750 0.383040 -0.604512
O15   O     O_R   0.438750 0.321760 0.555460 -0.557758
O16   O     O_R   0.561320 0.444010 0.382720 -0.647652
O17   O     O_R   0.561210 0.617270 0.678540 -0.613353
O18   O     O_R   0.438790 0.321460 0.382720 -0.575947
O19   O     O_R   0.438680 0.617270 0.556010 -0.611180
O20   O     O_2   0.858314 0.333291 0.132499 -0.644634
O21   O     O_R   0.979205 0.452294 0.259750 -0.787029
O22   O     O_2   0.032396 0.103011 0.199350 -0.663494
O23   O     O_R   0.561250 0.444520 0.678220 -0.625129
O24   O     O_R   0.171326 0.149623 0.334369 -0.723885
O25   O     O_2   0.078432 0.138153 0.425751 -0.570495
O26   O     O_R   0.190595 0.288973 0.481128 -0.808617
O27   O     O_2   0.967388 0.194051 0.412207 -0.616713
O28   O     O_R   0.804101 0.095204 0.300460 -0.817099
O29   O     O_2   0.065999 0.229724 0.081569 -0.579496
O30   O     O_R   0.193404 0.263538 0.219557 -0.801316
O31   O     O_2   0.565082 0.482116 0.818555 -0.571429
O32   O     O_R   0.727108 0.523936 0.905510 -0.824188
O33   O     O_2   0.520022 0.382719 0.910566 -0.572809
O34   O     O_R   0.733700 0.616750 0.555460 -0.626278
O35   O     O_R   0.548392 0.297679 0.989996 -0.687738
O36   O     O_2   0.349218 0.312718 0.768522 -0.525643
O37   O     O_R   0.377446 0.379775 0.675208 -0.808282
O38   O     O_2   0.367328 0.158223 0.861516 -0.642608
O39   O     O_R   0.235426 0.145451 0.740288 -0.721544
O40   O     O_2   0.391474 0.110849 0.542087 -0.599899
O41   O     O_R   0.521849 0.221631 0.541872 -0.814905
O42   O     O_2   0.208237 0.163016 0.582719 -0.542047
O43   O     O_R   0.289482 0.173275 0.520343 -0.705557
O44   O     O_2   0.819594 0.781576 0.753767 -0.645972
O45   O     O_R   0.266330 0.321760 0.383040 -0.539477
O46   O     O_R   0.965947 0.877709 0.886674 -0.788018
O47   O     O_2   0.125217 0.833819 0.013230 -0.611009
O48   O     O_R   0.167134 0.951052 0.965488 -0.729187
O49   O     O_2   0.950417 0.546606 0.796764 -0.640511
O50   O     O_R   0.791104 0.504202 0.697810 -0.818312
O51   O     O_2   0.967917 0.754521 0.545140 -0.687588
O52   O     O_R   0.808032 0.702233 0.487404 -0.730001
O53   O     O_2   0.758178 0.347246 0.309183 -0.623091
O54   O     O_R   0.708150 0.364948 0.175958 -0.761365
O55   O     O_2   0.321835 0.158467 0.286961 -0.598337
O56   O     O_3   0.499930 0.999970 0.999970 -0.512983
O57   O     O_R   0.209168 0.099862 0.138255 -0.759429
O58   O     O_2   0.262611 0.248850 0.085369 -0.525512
O59   O     O_R   0.380026 0.374410 0.206335 -0.833739
O60   O     O_2   0.393368 0.269315 0.043762 -0.634632
O61   O     O_R   0.290183 0.119194 0.978563 -0.745754
O62   O     O_2   0.456419 0.066154 0.346492 -0.613647
O63   O     O_R   0.355565 0.019528 0.197689 -0.779212
O64   O     O_2   0.664924 0.702366 0.316424 -0.669511
O65   O     O_R   0.796456 0.836741 0.423243 -0.795149
O66   O     O_2   0.714262 0.993518 0.421215 -0.618644
O67   O     O_R   0.438680 0.055440 0.821740 -0.665514
O68   O     O_R   0.569431 0.969475 0.307337 -0.795766
O69   O     O_2   0.235274 0.629069 0.171561 -0.638824
O70   O     O_R   0.281920 0.609728 0.303161 -0.720543
O71   O     O_2   0.463317 0.764371 0.431247 -0.601955
O72   O     O_R   0.459495 0.868878 0.370139 -0.779733
O73   O     O_2   0.940269 0.361595 0.376893 -0.559053
O74   O     O_R   0.797215 0.226766 0.280486 -0.779744
O75   O     O_R   0.561210 0.883000 0.116700 -0.663240
O76   O     O_R   0.733610 0.178210 0.116920 -0.580937
Zn1   Zn    Zn3+2 0.412450 0.543930 0.456390 1.042987
Zn2   Zn    Zn3+2 0.587550 0.543620 0.456070 1.006213
Zn3   Zn    Zn3+2 0.412480 0.368530 0.456070 1.131913
Zn4   Zn    Zn3+2 0.587520 0.543930 0.631470 1.042347
Zn5   Zn    Zn3+2 0.587490 0.956040 0.043570 0.949472
Zn6   Zn    Zn3+2 0.587450 0.131440 0.043900 1.090672
Zn7   Zn    Zn3+2 0.412380 0.956350 0.043900 1.060548
Zn8   Zn    Zn3+2 0.412420 0.956040 0.868500 0.935477

loop_
_geom_bond_atom_site_label_1
_geom_bond_atom_site_label_2
_ccdc_geom_bond_type
C21   C26   S    
C52   H110  S    
C112  H116  S    
C25   C67   S    
C94   H73   S    
C72   O21   S    
O15   Zn3   S    
C76   O28   S    
H78   O48   S    
C18   C91   S    
C42   C109  S    
O13   Zn1   S    
C19   H1    S    
C63   O9    A    
C56   C57   S    
C36   C47   S    
C34   C35   S    
H8    O68   S    
C92   H68   S    
H47   O32   S    
C9    H9    S    
O1    Zn2   S    
C43   H99   S    
C64   O6    A    
O19   Zn1   S    
C21   C22   S    
C89   H62   S    
C30   C89   S    
C37   C63   S    
C100  H84   S    
O5    Zn8   S    
C46   C48   S    
O6    Zn7   S    
C96   O48   S    
C7    H7    S    
C64   O3    A    
C72   C91   S    
H76   O46   S    
C29   C55   S    
C50   C51   S    
O9    Zn8   S    
C112  H117  S    
C98   H81   S    
C37   C38   S    
C82   H48   S    
C75   O26   S    
C34   C99   S    
C74   O22   D    
C40   C107  S    
C8    O66   D    
C22   C27   S    
C14   H18   S    
C14   C57   S    
C10   O70   S    
C12   H16   S    
C80   H27   S    
C33   C38   S    
C111  O57   S    
C56   C59   S    
C4    C49   S    
C101  H89   S    
C5    O62   D    
C93   H71   S    
C66   C70   S    
C42   H66   S    
C9    H11   S    
C33   C97   S    
O1    Zn4   S    
C24   C87   S    
C25   C36   S    
C79   H43   S    
C16   C91   S    
O56   Zn6   S    
C89   H64   S    
H56   O37   S    
C2    C75   S    
C24   H44   S    
C73   H32   S    
C100  H86   S    
C61   O11   A    
C48   C110  S    
C83   H52   S    
O11   Zn7   S    
C29   O14   A    
C7    H5    S    
C38   C98   S    
C79   H46   S    
C112  H118  S    
C39   C104  S    
C105  H100  S    
C24   C26   S    
C86   O39   S    
C57   H13   S    
C31   C95   S    
C59   H24   S    
C104  H95   S    
C77   H41   S    
H120  O61   S    
C107  H105  S    
C108  H107  S    
C8    O68   S    
C71   H29   S    
C40   C42   S    
C45   C53   S    
C88   H59   S    
C78   O30   S    
O56   Zn5   S    
C77   H40   S    
C61   O75   A    
C54   C59   S    
O14   Zn2   S    
C106  H102  S    
C5    C48   S    
C3    C44   S    
H3    O63   S    
C34   C39   S    
C4    O61   S    
C110  H114  S    
O8    Zn5   S    
O45   Zn3   S    
C18   C62   S    
C82   H50   S    
C59   H26   S    
C23   C28   S    
H83   O52   S    
C97   O49   D    
C87   O40   D    
C31   C32   S    
C17   O13   A    
C90   O42   D    
C32   C37   S    
C6    C50   S    
C43   C45   S    
O3    Zn6   S    
C11   C54   S    
O67   Zn8   S    
O17   Zn4   S    
C109  O54   S    
O18   Zn3   S    
H4    O65   S    
H36   O24   S    
C54   C55   S    
C25   C92   S    
H115  O57   S    
C94   H74   S    
C7    C50   S    
C16   O74   S    
C6    O65   S    
C101  H87   S    
C81   O31   D    
C71   H28   S    
C31   C94   S    
C41   O23   A    
C60   O10   A    
C13   C17   S    
C14   H20   S    
C22   C83   S    
C63   O2    A    
C108  H109  S    
C11   O72   S    
C33   C35   S    
C53   O18   A    
O34   Zn2   S    
O7    Zn5   S    
H14   O72   S    
C16   O73   D    
C105  H98   S    
H31   O21   S    
C58   H2    S    
C87   O41   S    
O56   Zn7   S    
O1    Zn1   S    
C13   C102  S    
H58   O41   S    
C17   O45   A    
C78   C102  S    
C9    C51   S    
C110  H112  S    
C15   H22   S    
C83   H53   S    
C46   C49   S    
C20   C77   S    
C73   H35   S    
C36   C103  S    
O2    Zn7   S    
C27   C60   S    
C19   C102  S    
C62   O8    A    
C98   H82   S    
C18   C19   S    
C42   C46   S    
C23   C26   S    
C85   O37   S    
C103  H92   S    
C1    O34   A    
C75   O25   D    
C34   C100  S    
H54   O35   S    
O75   Zn5   S    
C104  H94   S    
H119  O59   S    
C52   C55   S    
C40   C108  S    
C99   O52   S    
C13   C80   S    
C95   O46   S    
C85   O36   D    
C12   C52   S    
C14   H19   S    
C62   O76   A    
C40   C45   S    
C76   O27   D    
C12   H17   S    
C2    C20   S    
C67   C68   S    
C103  H93   S    
C33   C105  S    
C60   O67   A    
C28   C93   S    
C21   H33   S    
C4    O60   D    
H42   O30   S    
C92   H67   S    
H111  O54   S    
C93   H70   S    
C9    H10   S    
C23   C90   S    
O1    Zn3   S    
C19   C79   S    
O76   Zn6   S    
C58   C68   S    
C73   C102  S    
C28   C86   S    
C31   C35   S    
C89   H63   S    
C105  H97   S    
C30   C88   S    
C44   C45   S    
H65   O43   S    
C83   H51   S    
C96   O47   D    
H79   O50   S    
C79   H45   S    
C58   C69   S    
O10   Zn6   S    
C101  H90   S    
C80   C91   S    
C53   O16   A    
C37   C39   S    
C68   C71   S    
C65   C69   S    
C29   O12   A    
C104  H96   S    
H12   O70   S    
C52   C57   S    
C95   O44   D    
C108  H108  S    
C44   C111  S    
C84   O35   S    
C32   H55   S    
C111  O55   D    
C56   C61   S    
C25   C70   S    
C44   C49   S    
C88   H60   S    
C65   O17   A    
C66   O7    A    
C3    O59   S    
O12   Zn1   S    
C77   H39   S    
C10   O69   D    
C12   H15   S    
C106  H103  S    
C92   H69   S    
C5    O63   S    
C93   H72   S    
C6    O64   D    
C15   H23   S    
C1    O4    A    
C47   C112  S    
C20   C76   S    
C51   C56   S    
C2    C13   S    
H38   O28   S    
C107  H104  S    
C90   O43   S    
C43   C48   S    
C2    C74   S    
C109  O53   D    
C100  H85   S    
C41   O15   A    
C27   C30   S    
C7    H6    S    
C39   C101  S    
C24   C30   S    
C94   H75   S    
C86   O38   D    
C98   H80   S    
O16   Zn2   S    
C88   H61   S    
C46   C64   S    
C67   C69   S    
C22   C84   S    
C38   C106  S    
C47   C70   S    
C107  H106  S    
C11   O71   D    
C15   C80   S    
C72   O20   D    
C8    C51   S    
C67   C82   S    
C71   H30   S    
C32   C96   S    
C21   C81   S    
H57   O39   S    
C65   O19   A    
C66   O5    A    
C78   O29   D    
O56   Zn8   S    
C36   C69   S    
C1    C35   S    
C106  H101  S    
C110  H113  S    
C15   H21   S    
C82   H49   S    
C50   C55   S    
C3    O58   D    
C73   H34   S    
C97   O50   S    
C47   C58   S    
O23   Zn4   S    
C84   O33   D    
C18   C20   S    
C10   C54   S    
C103  H91   S    
H37   O26   S    
O4    Zn4   S    
C43   H77   S    
C81   O32   S    
C68   C70   S    
C23   C85   S    
C27   C28   S    
C74   O24   S    
H25   O74   S    
C26   C41   S    
C49   H88   S    
C99   O51   D    
