data_mof_unit_31273.cif
_audit_creation_date              2012-12-10T18:47:05-0500
_audit_creation_method            fapswitch 2.2
_symmetry_space_group_name_H-M    P1
_symmetry_Int_Tables_number       1
_space_group_crystal_system       triclinic
_cell_length_a                    10.611842
_cell_length_b                    9.794053
_cell_length_c                    15.042872
_cell_angle_alpha                 88.646746
_cell_angle_beta                  90.159029
_cell_angle_gamma                 89.777401
_cell_volume                      1562.99567201

loop_
_atom_site_label
_atom_site_type_symbol
_atom_type_description
_atom_site_fract_x
_atom_site_fract_y
_atom_site_fract_z
_atom_type_partial_charge
C1    C     C_R   0.260155 0.500157 0.499671 1.009816
C2    C     C_R   0.739845 0.499843 0.500329 1.009822
C3    C     C_R   0.370054 0.714050 0.031981 -0.020206
C4    C     C_R   0.629919 0.285932 0.968020 -0.020204
C5    C     C_R   0.064778 0.440625 0.428557 0.185980
C6    C     C_R   0.935222 0.559374 0.571443 0.185982
C7    C     C_R   0.934680 0.441039 0.428629 0.213201
C8    C     C_R   0.065320 0.558961 0.571371 0.213201
C9    C     C_R   0.872055 0.499780 0.500253 -0.279202
C10   C     C_R   0.127945 0.500220 0.499747 -0.279204
C11   C     C_R   0.408276 0.070904 0.543728 -0.061380
C12   C     C_R   0.591722 0.929096 0.456270 -0.061373
C13   C     C_R   0.591675 0.073295 0.456224 -0.085706
C14   C     C_R   0.408323 0.926705 0.543774 -0.085718
C15   C     C_R   0.493573 0.501971 0.326634 0.936613
C16   C     C_R   0.506427 0.498029 0.673366 0.936620
C17   C     C_R   0.569160 0.383027 0.818407 -0.079160
C18   C     C_R   0.430830 0.616968 0.181593 -0.079159
C19   C     C_R   0.516306 0.494833 0.769331 -0.091044
C20   C     C_R   0.483688 0.505165 0.230669 -0.091043
C21   C     C_R   0.466158 0.606930 0.811598 -0.211213
C22   C     C_R   0.533832 0.393066 0.188403 -0.211210
C23   C     C_R   0.456645 0.607420 0.902381 0.101137
C24   C     C_R   0.543336 0.392570 0.097620 0.101139
C25   C     C_R   0.506985 0.498693 0.953727 0.040073
C26   C     C_R   0.492995 0.501296 0.046273 0.040076
C27   C     C_R   0.571002 0.388059 0.912610 0.020470
C28   C     C_R   0.428979 0.611930 0.087390 0.020467
C29   C     C_R   0.390078 0.713083 0.940953 -0.254515
C30   C     C_R   0.609895 0.286902 0.059048 -0.254512
H1    H     H_    0.425331 0.691237 0.773052 0.176188
H2    H     H_    0.574663 0.308761 0.226948 0.176186
H3    H     H_    0.346626 0.791924 0.898940 0.156074
H4    H     H_    0.653340 0.208057 0.101061 0.156069
H5    H     H_    0.335424 0.124816 0.578958 0.143272
H6    H     H_    0.664572 0.875183 0.421038 0.143271
H7    H     H_    0.664580 0.129121 0.421063 0.168127
H8    H     H_    0.335414 0.870879 0.578931 0.168128
N1    N     N_R   0.500000 0.857200 0.500000 -0.081485
N2    N     N_R   0.500000 0.142800 0.500000 -0.081484
O1    O     O_R   0.316770 0.614620 0.499990 -0.611402
O2    O     O_R   0.683230 0.385380 0.500010 -0.611395
O3    O     O_R   0.683230 0.614620 0.500010 -0.603662
O4    O     O_R   0.316770 0.385380 0.499990 -0.603661
O5    O     O_R   0.499980 0.614680 0.367850 -0.623656
O6    O     O_R   0.500020 0.385320 0.632150 -0.623654
O7    O     O_R   0.500020 0.614680 0.632150 -0.606435
O8    O     O_R   0.499980 0.385320 0.367850 -0.606436
Zn1   Zn    Zn3+2 0.500000 0.653120 0.500000 0.984065
Zn2   Zn    Zn3+2 0.500000 0.346880 0.500000 0.984070
C31   C     C_R   0.609006 0.257841 0.771679 0.150633
C32   C     C_R   0.535609 0.138921 0.778574 -0.143815
C33   C     C_R   0.572940 0.020657 0.735353 -0.138637
C34   C     C_R   0.682152 0.021038 0.683649 -0.062676
C35   C     C_R   0.754140 0.139758 0.674860 -0.109823
C36   C     C_R   0.717872 0.257898 0.718635 -0.103778
H9    H     H_    0.450673 0.137542 0.818347 0.122560
H10   H     H_    0.516933 0.928884 0.741644 0.136830
H11   H     H_    0.710409 0.929643 0.649821 0.176905
H12   H     H_    0.838240 0.140176 0.634319 0.143513
H13   H     H_    0.774882 0.348784 0.712003 0.152482
C37   C     C_R   0.390990 0.742159 0.228320 0.150624
C38   C     C_R   0.282137 0.742102 0.281378 -0.103750
C39   C     C_R   0.245875 0.860246 0.325152 -0.109823
C40   C     C_R   0.317857 0.978968 0.316348 -0.062681
C41   C     C_R   0.427056 0.979348 0.264631 -0.138641
C42   C     C_R   0.464379 0.861082 0.221409 -0.143828
H14   H     H_    0.225135 0.651213 0.288023 0.152471
H15   H     H_    0.161786 0.859828 0.365704 0.143512
H16   H     H_    0.289604 0.070366 0.350175 0.176909
H17   H     H_    0.483058 0.071124 0.258329 0.136829
H18   H     H_    0.549305 0.862461 0.181626 0.122565
C43   C     C_R   0.274351 0.813464 0.061970 0.137293
C44   C     C_R   0.295732 0.954613 0.052020 -0.171792
C45   C     C_R   0.202380 0.048043 0.075627 -0.109456
C46   C     C_R   0.086329 0.001383 0.107570 -0.074094
C47   C     C_R   0.063299 0.861208 0.115674 -0.148292
C48   C     C_R   0.156595 0.767374 0.092454 -0.136196
H19   H     H_    0.384874 0.991977 0.026616 0.120992
H20   H     H_    0.219820 0.156599 0.068755 0.149342
H21   H     H_    0.013936 0.073822 0.125436 0.158580
H22   H     H_    0.972989 0.825245 0.139670 0.145156
H23   H     H_    0.137342 0.659005 0.098246 0.150809
C49   C     C_R   0.725608 0.186500 0.938033 0.137290
C50   C     C_R   0.843381 0.232564 0.907564 -0.136204
C51   C     C_R   0.936660 0.138710 0.884345 -0.148294
C52   C     C_R   0.913597 0.998539 0.892436 -0.074083
C53   C     C_R   0.797530 0.951905 0.924364 -0.109463
C54   C     C_R   0.704195 0.045355 0.947971 -0.171796
H24   H     H_    0.862659 0.340928 0.901783 0.150799
H25   H     H_    0.026984 0.174652 0.860361 0.145146
H26   H     H_    0.985977 0.926085 0.874570 0.158593
H27   H     H_    0.780065 0.843353 0.931224 0.149346
H28   H     H_    0.615039 0.008010 0.973363 0.120994
Br1   Br    Br    0.155414 0.362259 0.330382 -0.541984
Br2   Br    Br    0.844586 0.637736 0.669620 -0.541990
Br3   Br    Br    0.843035 0.368041 0.329077 -0.530501
Br4   Br    Br    0.156965 0.631958 0.670923 -0.530504

loop_
_geom_bond_atom_site_label_1
_geom_bond_atom_site_label_2
_ccdc_geom_bond_type
C52   C53   A    
C43   C44   A    
C35   C36   A    
C17   C31   S    
C6    C9    A    
O7    Zn1   S    
C33   C34   A    
C12   C13   A    
C21   H1    S    
C22   H2    S    
C37   C42   A    
C23   C29   A    
C3    C28   A    
C19   C21   A    
C24   C26   A    
C31   C36   A    
C51   H25   S    
C50   C51   A    
C11   C14   A    
C40   H16   S    
C29   H3    S    
C42   H18   S    
C54   H28   S    
C3    C29   A    
C8    Br4   S    
C13   N2    A    
C14   N1    A    
C38   H14   S    
C48   H23   S    
C43   C48   A    
C12   H6    S    
C45   H20   S    
C13   H7    S    
O8    Zn2   S    
C41   C42   A    
C52   H26   S    
C15   O8    A    
C16   O7    A    
O1    Zn1   S    
C5    Br1   S    
C34   H11   S    
C15   C20   S    
C44   C45   A    
C30   H4    S    
C31   C32   A    
C17   C27   A    
C18   C28   A    
C49   C50   A    
C16   O6    A    
C5    C7    A    
C53   H27   S    
C51   C52   A    
C18   C37   S    
C6    C8    A    
C25   C26   A    
C47   C48   A    
C45   C46   A    
C37   C38   A    
C14   H8    S    
C1    O4    A    
C41   H17   S    
C4    C49   S    
O5    Zn1   S    
C2    O3    A    
C50   H24   S    
C39   H15   S    
C46   C47   A    
O2    Zn2   S    
C1    O1    A    
N1    Zn1   S    
C20   C22   A    
C6    Br2   S    
C44   H19   S    
C21   C23   A    
C22   C24   A    
C49   C54   A    
C15   O5    A    
C4    C27   A    
C32   C33   A    
O4    Zn2   S    
C7    C9    A    
C34   C35   A    
C7    Br3   S    
O3    Zn1   S    
C1    C10   S    
C46   H21   S    
C33   H10   S    
C25   C27   A    
O6    Zn2   S    
C26   C28   A    
C39   C40   A    
C12   N1    A    
C11   H5    S    
C5    C10   A    
C47   H22   S    
C2    O2    A    
C16   C19   S    
N2    Zn2   S    
C17   C19   A    
C18   C20   A    
C23   C25   A    
C11   N2    A    
C3    C43   S    
C24   C30   A    
C32   H9    S    
C38   C39   A    
C53   C54   A    
C8    C10   A    
C40   C41   A    
C36   H13   S    
C35   H12   S    
C2    C9    S    
C4    C30   A    
