data_mof_unit_5308.cif
_audit_creation_date              2012-12-10T17:43:19-0500
_audit_creation_method            fapswitch 2.2
_symmetry_space_group_name_H-M    P1
_symmetry_Int_Tables_number       1
_space_group_crystal_system       triclinic
_cell_length_a                    15.231837
_cell_length_b                    13.87949
_cell_length_c                    11.054772
_cell_angle_alpha                 89.799181
_cell_angle_beta                  90.009269
_cell_angle_gamma                 89.15036
_cell_volume                      2336.81941306

loop_
_atom_site_label
_atom_site_type_symbol
_atom_type_description
_atom_site_fract_x
_atom_site_fract_y
_atom_site_fract_z
_atom_type_partial_charge
C1    C     C_R   0.328923 0.501177 0.509988 0.881218
C2    C     C_R   0.671256 0.499302 0.496127 0.909865
C3    C     C_R   0.954060 0.490605 0.499145 -0.055196
C4    C     C_R   0.046598 0.494450 0.500691 -0.059668
C5    C     C_R   0.908517 0.500766 0.389118 0.028078
C6    C     C_R   0.091337 0.501953 0.611420 0.025830
C7    C     C_R   0.952374 0.482533 0.718909 0.214411
C8    C     C_R   0.047593 0.508246 0.281673 0.201584
C9    C     C_R   0.044674 0.491135 0.720399 0.252635
C10   C     C_R   0.956361 0.495808 0.280464 0.259925
C11   C     C_R   0.425674 0.795411 0.466483 0.375763
C12   C     C_R   0.575985 0.204844 0.474906 0.358093
C13   C     C_R   0.574648 0.794454 0.527259 0.384963
C14   C     C_R   0.424505 0.205279 0.521938 0.369936
C15   C     C_R   0.579314 0.895687 0.501228 -0.111940
C16   C     C_R   0.421042 0.104304 0.495349 -0.107626
C17   C     C_R   0.420530 0.898192 0.483396 -0.117154
C18   C     C_R   0.580223 0.101973 0.490722 -0.119476
C19   C     C_R   0.500050 0.948619 0.492618 0.022336
C20   C     C_R   0.500487 0.051439 0.492897 0.029714
C21   C     C_R   0.659864 0.945875 0.492839 -0.083073
C22   C     C_R   0.341021 0.054577 0.479026 -0.082791
C23   C     C_R   0.340144 0.952285 0.480429 -0.074237
C24   C     C_R   0.660459 0.047940 0.494952 -0.078347
C25   C     C_R   0.501121 0.499588 0.259131 0.865031
C26   C     C_R   0.502418 0.499181 0.740542 0.870830
C27   C     C_3   0.491573 0.586234 0.037006 0.193289
C28   C     C_3   0.517794 0.405069 0.960683 0.219098
C29   C     C_3   0.570475 0.550746 0.960953 0.197565
C30   C     C_3   0.439482 0.439192 0.037503 0.154224
C31   C     C_3   0.428312 0.529157 0.956127 0.171738
C32   C     C_3   0.580346 0.461098 0.043297 0.229589
C33   C     C_3   0.506843 0.495438 0.877172 -0.278187
C34   C     C_3   0.501893 0.497042 0.121820 -0.304928
C35   C     C_R   0.817502 0.523563 0.391901 -0.070440
C36   C     C_R   0.180171 0.530378 0.609472 -0.065816
C37   C     C_R   0.768787 0.496977 0.496094 -0.252328
C38   C     C_R   0.231027 0.505074 0.507290 -0.242622
C39   C     C_R   0.814999 0.464745 0.600260 -0.064314
C40   C     C_R   0.187005 0.492797 0.396898 -0.036187
C41   C     C_R   0.906860 0.478902 0.607405 0.015139
C42   C     C_R   0.094203 0.499275 0.391559 -0.005364
Cu1   Cu    Cu3+1 0.500000 0.597420 0.500000 1.059816
Cu2   Cu    Cu3+1 0.500000 0.402580 0.500000 1.011173
N1    N     N_R   0.500000 0.743810 0.500000 -0.212146
N2    N     N_R   0.500000 0.256190 0.500000 -0.216225
O1    O     O_R   0.370260 0.582280 0.500030 -0.515738
O2    O     O_R   0.629740 0.417720 0.499970 -0.568229
O3    O     O_R   0.629740 0.582280 0.499970 -0.544422
O4    O     O_R   0.370260 0.417720 0.500030 -0.587663
O5    O     O_R   0.499980 0.582260 0.316850 -0.527683
O6    O     O_R   0.500020 0.417740 0.683150 -0.575944
O7    O     O_R   0.500020 0.582260 0.683150 -0.574657
O8    O     O_R   0.499980 0.417740 0.316850 -0.586706
N3    N     N_2   0.349029 0.566428 0.900522 -0.418774
H1    H     H_    0.362270 0.625920 0.848690 0.302094
C43   C     C_3   0.274199 0.581127 0.978321 -0.630517
H2    H     H_    0.217777 0.606873 0.924586 0.245030
H3    H     H_    0.287915 0.636746 0.046801 0.230405
H4    H     H_    0.254586 0.512715 0.020962 0.286146
N4    N     N_2   0.658707 0.421559 0.098945 -0.443726
H5    H     H_    0.680699 0.459675 0.171926 0.276748
C44   C     C_3   0.727708 0.388743 0.019885 -0.580757
H6    H     H_    0.773848 0.344253 0.073397 0.222755
H7    H     H_    0.761656 0.450769 0.979024 0.274540
H8    H     H_    0.702467 0.340969 0.949190 0.260794
N5    N     N_2   0.477321 0.683856 0.079064 -0.412176
H9    H     H_    0.524279 0.706145 0.139462 0.285003
C45   C     C_3   0.453606 0.755285 0.988408 -0.710000
H10   H     H_    0.476970 0.827310 0.016360 0.219598
H11   H     H_    0.381250 0.760159 0.979543 0.249033
H12   H     H_    0.482794 0.737363 0.899148 0.240105
N6    N     N_2   0.531926 0.309003 0.912324 -0.425917
H13   H     H_    0.488370 0.292660 0.844842 0.275408
C46   C     C_3   0.545791 0.230863 0.997405 -0.676449
H14   H     H_    0.541689 0.160936 0.949335 0.225908
H15   H     H_    0.495783 0.232137 0.070065 0.226618
H16   H     H_    0.612038 0.234471 0.037453 0.255530
N7    N     N_2   0.644533 0.604502 0.916794 -0.404922
H17   H     H_    0.643351 0.617662 0.825315 0.293572
C47   C     C_3   0.673214 0.683672 0.990583 -0.698732
H18   H     H_    0.740633 0.704151 0.965140 0.222417
H19   H     H_    0.672334 0.663102 0.086851 0.279438
H20   H     H_    0.630517 0.747842 0.976766 0.236457
N8    N     N_2   0.371415 0.376586 0.081515 -0.392422
H21   H     H_    0.389600 0.335971 0.155834 0.287366
C48   C     C_3   0.324183 0.322890 0.991521 -0.626710
H22   H     H_    0.262578 0.295761 0.031655 0.263054
H23   H     H_    0.363151 0.259349 0.962073 0.215429
H24   H     H_    0.308047 0.369167 0.912328 0.242041
C49   C     C_2   0.780598 0.591050 0.298335 0.834095
O9    O     O_2   0.701646 0.604817 0.288794 -0.633073
O10   O     O_R   0.837650 0.645483 0.227203 -0.785798
H25   H     H_    0.806422 0.694360 0.173751 0.335566
C50   C     C_2   0.203652 0.617339 0.680913 0.868016
O11   O     O_2   0.277205 0.650395 0.675425 -0.598005
O12   O     O_R   0.138338 0.668568 0.743881 -0.779590
H26   H     H_    0.161365 0.728058 0.785551 0.337728
C51   C     C_2   0.769528 0.407952 0.694293 0.889070
O13   O     O_2   0.803827 0.334121 0.733982 -0.555733
O14   O     O_R   0.686601 0.436329 0.733975 -0.789994
H27   H     H_    0.654599 0.381311 0.773182 0.344192
C52   C     C_2   0.239883 0.480189 0.288146 0.890287
O15   O     O_2   0.228690 0.410866 0.222602 -0.587416
O16   O     O_R   0.302024 0.549559 0.261922 -0.778809
H28   H     H_    0.338498 0.532872 0.189757 0.333516
N9    N     N_2   0.904665 0.490424 0.828984 -0.434451
H29   H     H_    0.931915 0.453145 0.900401 0.258733
C53   C     C_3   0.879540 0.588281 0.859123 -0.704073
H30   H     H_    0.845793 0.588974 0.947697 0.239024
H31   H     H_    0.834117 0.618316 0.789498 0.253393
H32   H     H_    0.938294 0.634468 0.865958 0.242389
N10   N     N_2   0.089910 0.540661 0.174657 -0.434758
H33   H     H_    0.074045 0.503114 0.098090 0.258285
C54   C     C_3   0.084590 0.644048 0.158143 -0.658316
H34   H     H_    0.119165 0.664902 0.074169 0.221318
H35   H     H_    0.116030 0.681012 0.235576 0.258883
H36   H     H_    0.014960 0.668289 0.150156 0.252234
N11   N     N_2   0.091407 0.486890 0.831582 -0.427256
H37   H     H_    0.064530 0.528853 0.898940 0.264178
C55   C     C_3   0.113840 0.390080 0.870251 -0.732443
H38   H     H_    0.146965 0.392621 0.959239 0.243796
H39   H     H_    0.158736 0.355578 0.803612 0.246561
H40   H     H_    0.053981 0.345969 0.880048 0.239171
N12   N     N_2   0.915448 0.462694 0.173185 -0.433002
H41   H     H_    0.924888 0.507673 0.100398 0.270799
C56   C     C_3   0.938398 0.362984 0.146757 -0.734560
H42   H     H_    0.916412 0.343311 0.054803 0.229215
H43   H     H_    0.907040 0.314669 0.213877 0.255537
H44   H     H_    0.010644 0.350618 0.148866 0.245193
N13   N     N_2   0.362268 0.749127 0.393366 -0.362712
H45   H     H_    0.303229 0.734224 0.434038 0.288889
C57   C     C_3   0.354555 0.785187 0.270700 -0.625546
H46   H     H_    0.306372 0.845475 0.265147 0.227239
H47   H     H_    0.331454 0.727036 0.211281 0.272984
H48   H     H_    0.418666 0.811295 0.237193 0.228538
N14   N     N_2   0.645581 0.253077 0.416427 -0.390145
H49   H     H_    0.702847 0.262166 0.464003 0.270144
C58   C     C_3   0.655315 0.234042 0.289098 -0.650997
H50   H     H_    0.669261 0.156432 0.272792 0.234821
H51   H     H_    0.710622 0.276390 0.253002 0.238895
H52   H     H_    0.594107 0.256119 0.241875 0.247699
N15   N     N_2   0.642058 0.748737 0.596643 -0.389379
H53   H     H_    0.698546 0.731730 0.549898 0.279339
C59   C     C_3   0.658030 0.790579 0.714192 -0.703059
H54   H     H_    0.676251 0.867358 0.707628 0.244478
H55   H     H_    0.713815 0.752091 0.757970 0.235983
H56   H     H_    0.598237 0.785167 0.770664 0.232071
N16   N     N_2   0.355297 0.249954 0.588787 -0.386496
H57   H     H_    0.300206 0.268212 0.539434 0.277542
C60   C     C_3   0.334972 0.206255 0.704298 -0.704669
H58   H     H_    0.299660 0.137736 0.692392 0.253898
H59   H     H_    0.291683 0.255777 0.756003 0.225653
H60   H     H_    0.395778 0.191108 0.756399 0.220891
C61   C     C_2   0.743529 0.892650 0.470179 0.864288
O17   O     O_2   0.805757 0.900964 0.539157 -0.562358
O18   O     O_R   0.750627 0.832802 0.369251 -0.752756
H61   H     H_    0.810926 0.801444 0.362793 0.353120
C62   C     C_2   0.259323 0.108930 0.447375 0.856191
O19   O     O_2   0.258658 0.162427 0.359195 -0.583561
O20   O     O_R   0.183876 0.099741 0.518321 -0.734623
H62   H     H_    0.133127 0.141119 0.487634 0.346824
C63   C     C_2   0.254452 0.903845 0.493045 0.866215
O21   O     O_2   0.197729 0.914095 0.415511 -0.573406
O22   O     O_R   0.238140 0.848231 0.595768 -0.737727
H63   H     H_    0.176824 0.820889 0.595187 0.351907
C64   C     C_2   0.745568 0.095678 0.514517 0.868505
O23   O     O_2   0.759587 0.136187 0.610506 -0.554206
O24   O     O_R   0.809729 0.093306 0.424104 -0.741756
H64   H     H_    0.864738 0.128716 0.448227 0.346252

loop_
_geom_bond_atom_site_label_1
_geom_bond_atom_site_label_2
_ccdc_geom_bond_type
C38   C40   A    
N3    H1    S    
C44   H7    S    
O18   H61   S    
C61   O18   S    
N6    C46   S    
N6    H13   S    
C50   O11   D    
C2    C37   S    
C48   H22   S    
C59   H56   S    
C6    C9    A    
C25   O5    A    
O12   H26   S    
C39   C41   A    
O22   H63   S    
N8    H21   S    
C15   C19   A    
N14   C58   S    
O10   H25   S    
C18   C24   A    
C63   O22   S    
C8    C42   A    
C32   N4    S    
C29   C32   S    
C53   H31   S    
C59   H54   S    
C30   C31   S    
C58   H52   S    
C43   H3    S    
C27   C29   S    
C22   C62   S    
N15   H53   S    
C29   C33   S    
N4    C44   S    
O24   H64   S    
C60   H60   S    
C45   H11   S    
C55   H40   S    
C52   O15   D    
C59   H55   S    
Cu1   O7    S    
N15   C59   S    
C51   O13   D    
C7    C41   A    
C54   H35   S    
C57   H48   S    
C60   H58   S    
C62   O20   S    
C10   N12   S    
C1    O4    A    
C18   C20   A    
C25   C34   S    
Cu2   O6    S    
C60   H59   S    
C44   H8    S    
N9    C53   S    
N4    H5    S    
C28   N6    S    
C47   H19   S    
Cu2   N2    S    
O20   H62   S    
C23   C63   S    
N11   C55   S    
C27   C34   S    
C30   C34   S    
N8    C48   S    
C27   C31   S    
N5    H9    S    
O14   H27   S    
C28   C32   S    
C24   C64   S    
C25   O8    A    
C14   N2    A    
C53   H30   S    
C53   H32   S    
C49   O9    D    
N7    C47   S    
C1    O1    A    
C43   H4    S    
C3    C5    A    
C47   H18   S    
N7    H17   S    
C64   O24   S    
C11   N13   S    
N5    C45   S    
C32   C34   S    
C45   H12   S    
C46   H14   S    
C56   H43   S    
C2    O3    A    
C26   O6    A    
C49   O10   S    
Cu1   N1    S    
C26   C33   S    
C39   C51   S    
C62   O19   D    
C29   N7    S    
C15   C21   A    
C16   C20   A    
C54   H36   S    
C31   C33   S    
C21   C61   S    
C52   O16   S    
N3    C43   S    
C17   C23   A    
C30   N8    S    
C46   H15   S    
C55   H38   S    
C8    N10   S    
C1    C38   S    
C12   N2    A    
C51   O14   S    
C28   C33   S    
C13   C15   A    
Cu1   Cu2   S    
N12   H41   S    
C9    N11   S    
C7    N9    S    
C11   N1    A    
C4    C6    A    
C21   C24   A    
N9    H29   S    
C3    C4    A    
C26   O7    A    
C64   O23   D    
C47   H20   S    
C36   C38   A    
N12   C56   S    
N10   H33   S    
N14   H49   S    
Cu2   O4    S    
C7    C9    A    
C3    C41   A    
C16   C22   A    
C35   C37   A    
C12   N14   S    
Cu1   O3    S    
N13   C57   S    
C11   C17   A    
C58   H50   S    
C50   O12   S    
C56   H42   S    
O16   H28   S    
C2    O2    A    
C19   C20   A    
N16   C60   S    
C56   H44   S    
C28   C30   S    
C37   C39   A    
Cu2   O2    S    
N13   H45   S    
C40   C52   S    
C13   N1    A    
C58   H51   S    
C36   C50   S    
Cu1   O5    S    
C43   H2    S    
C57   H46   S    
C4    C42   A    
C5    C35   A    
C14   N16   S    
C40   C42   A    
C17   C19   A    
C6    C36   A    
C14   C16   A    
C13   N15   S    
C45   H10   S    
C46   H16   S    
C55   H39   S    
C63   O21   D    
C27   N5    S    
C44   H6    S    
Cu2   O8    S    
C5    C10   A    
C8    C10   A    
N11   H37   S    
C48   H24   S    
C12   C18   A    
C61   O17   D    
C57   H47   S    
C48   H23   S    
C22   C23   A    
C31   N3    S    
N16   H57   S    
Cu1   O1    S    
C54   H34   S    
N10   C54   S    
C35   C49   S    
