data_mof_unit_19388.cif
_audit_creation_date              2013-03-05T15:52:30-0500
_audit_creation_method            fapswitch 2.2
_symmetry_space_group_name_H-M    P1
_symmetry_Int_Tables_number       1
_space_group_crystal_system       triclinic
_cell_length_a                    27.812653
_cell_length_b                    10.874696
_cell_length_c                    9.626358
_cell_angle_alpha                 89.518228
_cell_angle_beta                  89.729512
_cell_angle_gamma                 92.545882
_cell_volume                      2908.51748044

loop_
_atom_site_label
_atom_site_type_symbol
_atom_site_description
_atom_site_fract_x
_atom_site_fract_y
_atom_site_fract_z
_atom_type_partial_charge
O1    O     O_R   0.500000 0.319640 0.618810 -0.608609
O2    O     O_R   0.500000 0.319660 0.381240 -0.511428
C1    C     C_R   0.502806 0.262494 0.500893 0.841895
O3    O     O_R   0.430260 0.500010 0.618770 -0.522841
O4    O     O_R   0.430270 0.500030 0.381200 -0.591762
C2    C     C_R   0.407474 0.500267 0.500307 0.863880
Cu1   Cu    Cu3+1 0.500000 0.499990 0.640660 0.954662
Cu2   Cu    Cu3+1 0.500000 0.500010 0.359340 0.973572
O5    O     O_R   0.500000 0.680340 0.618760 -0.616725
O6    O     O_R   0.500000 0.680360 0.381190 -0.593234
O7    O     O_R   0.569730 0.499970 0.618800 -0.612169
O8    O     O_R   0.569740 0.499990 0.381230 -0.599448
C3    C     C_R   0.496783 0.736721 0.500180 0.803602
C4    C     C_R   0.592433 0.500967 0.499668 0.799160
C5    C     C_R   0.175338 0.398724 0.482357 0.600818
O9    O     O_2   0.197693 0.291116 0.488229 -0.506547
N1    N     N_R   0.201838 0.507135 0.483109 -0.438726
C6    C     C_R   0.180724 0.618155 0.476890 0.596373
C7    C     C_R   0.279559 0.484805 0.366434 0.482229
C8    C     C_R   0.329909 0.483296 0.372967 -0.387723
C9    C     C_R   0.327415 0.521039 0.622025 0.406475
C10   C     C_R   0.276958 0.522185 0.614562 -0.291737
C11   C     C_R   0.253304 0.504355 0.488071 0.293488
C12   C     C_R   0.102003 0.511749 0.469987 -0.060692
C13   C     C_R   0.125111 0.398756 0.476024 -0.012492
C14   C     C_R   0.097764 0.287822 0.476301 -0.131707
C15   C     C_R   0.129882 0.623863 0.467114 -0.117649
C16   C     C_R   0.354248 0.501294 0.499580 -0.110491
H1    H     H_    0.255796 0.537454 0.707095 0.160223
H2    H     H_    0.114721 0.200178 0.482971 0.193585
C17   C     C_R   0.645439 0.503452 0.498368 -0.076929
C18   C     C_R   0.972832 0.399291 0.448403 0.054405
C19   C     C_R   0.976748 0.621030 0.491413 -0.012244
C20   C     C_R   0.949293 0.509878 0.471513 0.057673
C21   C     C_R   0.944871 0.292907 0.414105 -0.228874
C22   C     C_R   0.894788 0.291857 0.412692 -0.027066
C23   C     C_R   0.870555 0.399339 0.448076 -0.047458
C24   C     C_R   0.898130 0.509023 0.477050 -0.093777
C25   C     C_R   0.874708 0.617764 0.512562 -0.118712
C26   C     C_R   0.824037 0.612920 0.522626 0.596711
N2    N     N_R   0.798159 0.507404 0.491337 -0.447936
C27   C     C_R   0.819813 0.402134 0.455001 0.597214
C28   C     C_R   0.721321 0.493820 0.621425 -0.058533
C29   C     C_R   0.671072 0.492360 0.622807 -0.257376
C30   C     C_R   0.670752 0.517333 0.372224 -0.315640
C31   C     C_R   0.721260 0.519627 0.369621 0.465496
C32   C     C_R   0.746491 0.507387 0.494642 0.286453
O10   O     O_2   0.791910 0.300810 0.427203 -0.513320
C33   C     C_R   0.023665 0.398326 0.460384 0.073523
C34   C     C_R   0.051021 0.511650 0.466939 0.012454
C35   C     C_R   0.027552 0.624284 0.470363 0.021311
C36   C     C_R   0.048030 0.287358 0.468285 -0.195941
H3    H     H_    0.652033 0.481687 0.721027 0.173888
H4    H     H_    0.961468 0.209406 0.383143 0.148151
H5    H     H_    0.029418 0.198280 0.473792 0.146938
O11   O     O_2   0.209140 0.721788 0.481105 -0.510453
C37   C     C_R   0.106191 0.736073 0.449696 -0.119319
H6    H     H_    0.350026 0.467860 0.278542 0.180015
C38   C     C_R   0.952775 0.724456 0.537552 -0.123511
C39   C     C_R   0.902889 0.725908 0.542427 0.403037
O12   O     O_2   0.800399 0.711703 0.564840 -0.501385
C40   C     C_R   0.055167 0.735948 0.448363 0.342974
H7    H     H_    0.972320 0.806049 0.573461 0.209835
H8    H     H_    0.651358 0.526750 0.275665 0.162637
C41   C     C_R   0.517085 0.110492 0.760442 -0.138204
H9    H     H_    0.538189 0.195749 0.769651 0.168136
C42   C     C_R   0.504277 0.048564 0.883262 -0.196826
H10   H     H_    0.514374 0.090473 0.980268 0.160422
C43   C     C_R   0.477641 0.936860 0.878378 0.042725
C44   C     C_R   0.470236 0.879904 0.750937 -0.144702
H11   H     H_    0.449086 0.793948 0.749090 0.177057
C45   C     C_R   0.488844 0.935069 0.627580 0.068484
C46   C     C_R   0.504270 0.059843 0.630303 0.030287
C47   C     C_R   0.505574 0.127489 0.503085 -0.159259
C48   C     C_R   0.502517 0.063017 0.376496 0.409091
H12   H     H_    0.505145 0.887217 0.281426 0.188444
C49   C     C_R   0.500867 0.935211 0.378220 -0.284396
C50   C     C_R   0.493360 0.870263 0.502047 -0.145836
H13   H     H_    0.446216 0.360009 0.132823 0.152291
C51   C     C_R   0.563170 0.665165 0.141483 -0.157754
H14   H     H_    0.566460 0.671524 0.250936 0.198162
C52   C     C_R   0.593711 0.747061 0.068469 -0.210816
H15   H     H_    0.617705 0.810503 0.123720 0.169255
C53   C     C_R   0.593829 0.747074 0.925299 -0.187170
H16   H     H_    0.617901 0.810590 0.868548 0.168030
C54   C     C_R   0.563413 0.665189 0.854196 -0.142399
H17   H     H_    0.566972 0.671859 0.744616 0.202333
C55   C     C_R   0.531100 0.581226 0.924153 0.183655
C56   C     C_R   0.531034 0.581207 0.073532 0.220354
N3    N     N_R   0.500460 0.501210 0.147910 -0.199215
C57   C     C_R   0.470402 0.422952 0.075661 -0.056125
C58   C     C_R   0.470233 0.422781 0.928061 0.027605
N4    N     N_R   0.500480 0.501290 0.852040 -0.226995
O13   O     O_3   0.350808 0.540541 0.746758 -0.707913
H18   H     H_    0.326677 0.552352 0.821092 0.327753
O14   O     O_3   0.255135 0.468173 0.242988 -0.698857
H19   H     H_    0.278727 0.455940 0.167326 0.326431
C59   C     C_1   0.133392 0.851117 0.424386 0.347935
N5    N     N_1   0.154884 0.943186 0.404054 -0.210098
O15   O     O_3   0.883156 0.835377 0.576820 -0.669937
H20   H     H_    0.862079 0.857087 0.498413 0.368237
O16   O     O_3   0.746905 0.533612 0.246891 -0.694831
H21   H     H_    0.724019 0.540917 0.168865 0.331860
O17   O     O_3   0.031389 0.840054 0.409232 -0.741492
H22   H     H_    0.051773 0.915500 0.424133 0.320296
O18   O     O_3   0.501734 0.124979 0.251336 -0.722755
H23   H     H_    0.483764 0.071433 0.185172 0.313912
C60   C     C_1   0.458058 0.878303 0.002055 0.203945
N6    N     N_1   0.441579 0.829914 0.099804 -0.271077
C61   C     C_1   0.437250 0.338121 0.859325 0.348769
N7    N     N_1   0.410593 0.269722 0.804769 -0.255794
C62   C     C_1   0.746698 0.480197 0.750633 0.299832
N8    N     N_1   0.767074 0.469318 0.854245 -0.230464
C63   C     C_1   0.870120 0.177346 0.374029 0.378619
N9    N     N_1   0.850595 0.085550 0.342868 -0.221233

loop_
_geom_bond_atom_site_label_1
_geom_bond_atom_site_label_2
_geom_bond_distance
_ccdc_geom_bond_type
C12   C13   1.412656 A    
C10   H1    1.083357 S    
N2    C27   1.364388 A    
C21   C22   1.392596 A    
C12   C15   1.415514 A    
C4    C17   1.473291 S    
C22   C63   1.447145 S    
C63   N9    1.157493 T    
C37   C40   1.419175 A    
C49   C50   1.390583 A    
Cu1   O7    1.949781 S    
C31   O16   1.380963 S    
N1    C11   1.434080 S    
C58   N4    1.375505 A    
C22   C23   1.418087 A    
C53   C54   1.387760 A    
O4    C2    1.307635 A    
O7    C4    1.306264 A    
C54   C55   1.416322 A    
C5    C13   1.398581 A    
O18   H23   0.988901 S    
C25   C39   1.416320 A    
C5    O9    1.350199 S    
C23   C27   1.414235 A    
C41   C46   1.413579 A    
C60   N6    1.156955 T    
C5    N1    1.362415 A    
C46   C47   1.422767 A    
C51   C56   1.415416 A    
C1    C47   1.473549 S    
O5    C3    1.296538 A    
C61   N7    1.157579 T    
C62   N8    1.157267 T    
C45   C50   1.411917 A    
C3    C50   1.459804 S    
C29   H3    1.084359 S    
C2    C16   1.480960 S    
C7    C8    1.402904 A    
C41   C42   1.392692 A    
C44   H11   1.082420 S    
H13   C57   1.083090 S    
C36   H5    1.078656 S    
C6    O11   1.348453 S    
C55   C56   1.437970 A    
C38   C39   1.388826 A    
C19   C38   1.406793 A    
O1    Cu1   1.974256 S    
C9    C10   1.406122 A    
C21   H4    1.080252 S    
O16   H21   0.991780 S    
C35   C40   1.421475 A    
O3    Cu1   1.952068 S    
O17   H22   0.988214 S    
C43   C60   1.438716 S    
N1    C6    1.366796 A    
C40   O17   1.386594 S    
C12   C34   1.418342 A    
Cu1   N4    2.035091 S    
C17   C29   1.403935 A    
C42   H10   1.075570 S    
C18   C21   1.407528 A    
Cu1   Cu2   2.708085 S    
C53   H16   1.082993 S    
C51   C52   1.387554 A    
C15   C37   1.421383 A    
C57   C58   1.420902 A    
C54   H17   1.060595 S    
C51   H14   1.060601 S    
C8    C16   1.407864 A    
C34   C35   1.413845 A    
C13   C14   1.397225 A    
C30   C31   1.403954 A    
C52   H15   1.082977 S    
C26   O12   1.348658 S    
O1    C1    1.302340 A    
C18   C20   1.413300 A    
C7    C11   1.399787 A    
C28   C29   1.396939 A    
C23   C24   1.419524 A    
C14   C36   1.385529 A    
Cu2   O8    1.952063 S    
C33   C36   1.411685 A    
O14   H19   0.991767 S    
C19   C20   1.415671 A    
N2    C32   1.437209 S    
O13   H18   0.991796 S    
C27   O10   1.348684 S    
H12   C49   1.080468 S    
C48   C49   1.388525 A    
O3    C2    1.307284 A    
C26   N2    1.363768 A    
C9    C16   1.415126 A    
O8    C4    1.305666 A    
C33   C34   1.421283 A    
C52   C53   1.378192 A    
Cu2   N3    2.035209 S    
C28   C62   1.442791 S    
C8    H6    1.083294 S    
C25   C26   1.410778 A    
Cu1   O5    1.970786 S    
C55   N4    1.383023 A    
C20   C24   1.423340 A    
O2    Cu2   1.970786 S    
C6    C15   1.421688 A    
C45   C46   1.405295 A    
C39   O15   1.375128 S    
O6    C3    1.308213 A    
O4    Cu2   1.949784 S    
C14   H2    1.083583 S    
C19   C35   1.425328 A    
C30   H8    1.083270 S    
C38   H7    1.079978 S    
O2    C1    1.308577 A    
C58   C61   1.438022 S    
N3    C57   1.363483 A    
C24   C25   1.418716 A    
C37   C59   1.451175 S    
O15   H20   0.991230 S    
C41   H9    1.079584 S    
C43   C44   1.391004 A    
C18   C33   1.419516 A    
C31   C32   1.404344 A    
C9    O13   1.381816 S    
C47   C48   1.412017 A    
C48   O18   1.376236 S    
Cu2   O6    1.974256 S    
C59   N5    1.157801 T    
C17   C30   1.404415 A    
C10   C11   1.397597 A    
C44   C45   1.411546 A    
C42   C43   1.395705 A    
C56   N3    1.382244 A    
C28   C32   1.407502 A    
C7    O14   1.380800 S    
