data_mof_unit_13524.cif
_audit_creation_date              2012-12-11T16:37:22-0500
_audit_creation_method            fapswitch 2.2
_symmetry_space_group_name_H-M    P1
_symmetry_Int_Tables_number       1
_space_group_crystal_system       triclinic
_cell_length_a                    19.519466
_cell_length_b                    6.933634
_cell_length_c                    17.696277
_cell_angle_alpha                 90.000454
_cell_angle_beta                  109.023595
_cell_angle_gamma                 89.995446
_cell_volume                      2264.22298109

loop_
_atom_site_label
_atom_site_type_symbol
_atom_type_description
_atom_site_fract_x
_atom_site_fract_y
_atom_site_fract_z
_atom_type_partial_charge
O1    O     O_R   0.561710 0.369960 0.440200 -0.541122
O2    O     O_R   0.061710 0.630040 0.940200 -0.540854
O3    O     O_R   0.412630 0.033330 0.406330 -0.524008
O4    O     O_R   0.912630 0.966670 0.906330 -0.525039
O5    O     O_R   0.438290 0.869790 0.559800 -0.529597
O6    O     O_R   0.938290 0.130210 0.059800 -0.531232
C1    C     C_R   0.384474 0.203016 0.383720 0.711065
C2    C     C_R   0.884469 0.796989 0.883726 0.709271
O7    O     O_R   0.559570 0.039810 0.430640 -0.546386
O8    O     O_R   0.059570 0.960190 0.930640 -0.546495
O9    O     O_R   0.586280 0.876320 0.584290 -0.539715
O10   O     O_R   0.086280 0.123680 0.084290 -0.538685
C3    C     C_R   0.580909 0.209005 0.415386 0.677548
C4    C     C_R   0.081071 0.790980 0.915556 0.677944
O11   O     O_R   0.413720 0.363440 0.415710 -0.552814
O12   O     O_R   0.913720 0.636560 0.915710 -0.551968
O13   O     O_3   0.508590 0.205630 0.550380 -0.368228
O14   O     O_3   0.008590 0.794370 0.050380 -0.367916
V1    V     V_3+5 0.498410 0.928130 0.490650 1.425890
V2    V     V_3+5 0.998410 0.071870 0.990650 1.424227
O15   O     O_R   0.587370 0.546990 0.593670 -0.540302
O16   O     O_R   0.087370 0.453010 0.093670 -0.541076
C5    C     C_R   0.615586 0.716769 0.616473 0.694447
C6    C     C_R   0.115589 0.283223 0.116466 0.694568
O17   O     O_R   0.440430 0.540520 0.569360 -0.548179
O18   O     O_R   0.940430 0.459480 0.069360 -0.547698
C7    C     C_R   0.418965 0.709297 0.584518 0.706341
C8    C     C_R   0.918787 0.290730 0.084331 0.706543
V3    V     V_3+5 0.501590 0.428960 0.509350 1.396822
V4    V     V_3+5 0.001590 0.571040 0.009350 1.396429
O19   O     O_3   0.491410 0.701330 0.449620 -0.374116
O20   O     O_3   0.991410 0.298670 0.949620 -0.373380
C9    C     C_R   0.313694 0.906426 0.714520 -0.142232
C10   C     C_R   0.784038 0.097504 0.179750 -0.146410
H1    H     H_    0.309440 0.042661 0.742503 0.100361
H2    H     H_    0.754499 0.964585 0.177992 0.104745
C11   C     C_R   0.360287 0.895069 0.668981 -0.139180
C12   C     C_R   0.831210 0.108636 0.134914 -0.124534
H3    H     H_    0.389476 0.023388 0.662391 0.121351
H4    H     H_    0.837047 0.983395 0.100932 0.132368
C13   C     C_R   0.369904 0.720152 0.633455 -0.045071
C14   C     C_R   0.869310 0.279674 0.132821 -0.058464
C15   C     C_R   0.331235 0.557127 0.644101 -0.166185
C16   C     C_R   0.859096 0.439318 0.176945 -0.171088
H5    H     H_    0.336693 0.420643 0.616828 0.119590
H6    H     H_    0.887727 0.573123 0.176953 0.124276
C17   C     C_R   0.283752 0.569090 0.688651 -0.134791
C18   C     C_R   0.812646 0.427416 0.222746 -0.138115
H7    H     H_    0.253590 0.441398 0.693528 0.100751
H8    H     H_    0.807842 0.552058 0.257484 0.101189
C19   C     C_R   0.274386 0.743845 0.724885 0.089345
C20   C     C_R   0.774191 0.256353 0.224765 0.087760
C21   C     C_R   0.213940 0.596602 0.817701 -0.145668
C22   C     C_R   0.685484 0.406578 0.284650 -0.143455
H9    H     H_    0.242864 0.462988 0.818627 0.102353
H10   H     H_    0.690034 0.543274 0.257150 0.102104
C23   C     C_R   0.167158 0.607788 0.862997 -0.161291
C24   C     C_R   0.639296 0.395184 0.330670 -0.163626
H11   H     H_    0.160944 0.481813 0.896373 0.119995
H12   H     H_    0.610669 0.523907 0.338033 0.122199
C25   C     C_R   0.129998 0.779754 0.866373 -0.052372
C26   C     C_R   0.629452 0.219850 0.365791 -0.051631
C27   C     C_R   0.140517 0.940011 0.822723 -0.167789
C28   C     C_R   0.667273 0.056262 0.353932 -0.165359
H13   H     H_    0.112514 0.074459 0.823542 0.121684
H14   H     H_    0.661511 0.919272 0.380659 0.117174
C29   C     C_R   0.186571 0.928072 0.776452 -0.139330
C30   C     C_R   0.714336 0.068227 0.308874 -0.140406
H15   H     H_    0.191724 0.053375 0.742242 0.102445
H16   H     H_    0.743931 0.940091 0.303169 0.098669
C31   C     C_R   0.224300 0.756305 0.773429 0.090937
C32   C     C_R   0.724122 0.243570 0.273318 0.092545
C33   C     C_R   0.766062 0.629792 0.813794 0.013497
C34   C     C_R   0.266041 0.370119 0.313791 0.014164
C35   C     C_R   0.814107 0.783543 0.818102 -0.076507
C36   C     C_R   0.314114 0.216438 0.318091 -0.076532
C37   C     C_R   0.791744 0.925730 0.758314 -0.113250
C38   C     C_R   0.291767 0.074253 0.258300 -0.114060
H17   H     H_    0.825871 0.049340 0.759518 0.113338
H18   H     H_    0.325904 0.950646 0.259506 0.113399
C39   C     C_R   0.727258 0.902914 0.693147 -0.173660
C40   C     C_R   0.227279 0.097071 0.193129 -0.173529
H19   H     H_    0.713542 0.011507 0.646664 0.117949
H20   H     H_    0.213573 0.988486 0.146645 0.118112
C41   C     C_R   0.683226 0.737022 0.685601 -0.097417
C42   C     C_R   0.183231 0.262954 0.185587 -0.097746
C43   C     C_R   0.702494 0.607287 0.749522 0.074671
C44   C     C_R   0.202476 0.392629 0.249524 0.075250
C45   C     C_3   0.709111 0.393012 0.751105 -0.405844
C46   C     C_3   0.209033 0.606919 0.251176 -0.406922
C47   C     C_3   0.778645 0.417158 0.822140 -0.170384
C48   C     C_3   0.278560 0.582744 0.322221 -0.172812
H21   H     H_    0.718954 0.336978 0.696746 0.154503
H22   H     H_    0.218877 0.663120 0.196843 0.154538
H23   H     H_    0.663776 0.322165 0.765553 0.186412
H24   H     H_    0.163673 0.677622 0.265633 0.186233
H25   H     H_    0.828599 0.371434 0.809923 0.130271
H26   H     H_    0.328516 0.628644 0.310052 0.130358
C49   C     C_2   0.773049 0.341344 0.899501 0.426663
H27   H     H_    0.775271 0.439159 0.948174 0.032437
O21   O     O_2   0.767266 0.168434 0.908713 -0.537473
C50   C     C_2   0.272896 0.658233 0.399593 0.431772
H28   H     H_    0.274467 0.560075 0.447950 0.029518
O22   O     O_2   0.267676 0.831217 0.409131 -0.534080

loop_
_geom_bond_atom_site_label_1
_geom_bond_atom_site_label_2
_ccdc_geom_bond_type
C24   C26   A    
V4    O20   S    
C27   H13   S    
O11   V3    S    
C38   C40   A    
O13   V3    S    
O4    C2    A    
V1    O19   S    
C48   H26   S    
C17   H7    S    
O9    V1    S    
C19   C31   S    
C28   C30   A    
C36   C38   A    
C12   C14   A    
O3    C1    A    
V2    O20   S    
C38   H18   S    
C23   H11   S    
C24   H12   S    
C42   C44   A    
C34   C48   S    
C25   C27   A    
O7    C3    A    
C33   C43   A    
C26   C28   A    
O13   V1    S    
O5    C7    A    
O7    V1    S    
O6    C8    A    
C3    C26   S    
O8    V2    S    
O3    V1    S    
O14   V4    S    
C45   C47   S    
C13   C15   A    
C29   C31   A    
C48   C50   S    
C18   H8    S    
C2    O12   A    
C11   C13   A    
C33   C35   A    
C14   C16   A    
C39   H19   S    
C16   H6    S    
C46   H22   S    
C27   C29   A    
C21   H9    S    
O17   V3    S    
C22   H10   S    
C41   C43   A    
C33   C47   S    
O8    C4    A    
C21   C23   A    
C17   C19   A    
C1    O11   A    
C40   C42   A    
C4    C25   S    
O15   V3    S    
C46   H24   S    
C2    C35   S    
C9    C11   A    
C9    C19   A    
C29   H15   S    
C28   H14   S    
C45   H23   S    
C20   C32   S    
C15   H5    S    
C7    C13   S    
C46   C48   S    
C49   H27   S    
C37   C39   A    
C30   C32   A    
O10   V2    S    
O1    V3    S    
C37   H17   S    
C47   H25   S    
C50   O22   D    
C35   C37   A    
C34   C36   A    
C30   H16   S    
C49   O21   D    
C44   C46   S    
O18   V4    S    
C40   H20   S    
O15   C5    A    
O16   C6    A    
O1    C3    A    
O12   V4    S    
C21   C31   A    
C22   C24   A    
O16   V4    S    
C10   C12   A    
C10   C20   A    
C23   C25   A    
C1    C36   S    
O5    V1    S    
O17   C7    A    
O6    V2    S    
O10   C6    A    
O18   C8    A    
O2    V4    S    
C47   C49   S    
C43   C45   S    
C11   H3    S    
C12   H4    S    
C15   C17   A    
O9    C5    A    
C9    H1    S    
C10   H2    S    
O14   V2    S    
C45   H21   S    
C50   H28   S    
O2    C4    A    
O4    V2    S    
C18   C20   A    
C22   C32   A    
V3    O19   S    
C5    C41   S    
C34   C44   A    
C6    C42   S    
C39   C41   A    
C16   C18   A    
C8    C14   S    
