data_mof_unit_43112.cif
_audit_creation_date              2012-12-10T20:39:57-0500
_audit_creation_method            fapswitch 2.2
_symmetry_space_group_name_H-M    P1
_symmetry_Int_Tables_number       1
_space_group_crystal_system       triclinic
_cell_length_a                    23.42725
_cell_length_b                    10.649033
_cell_length_c                    9.909348
_cell_angle_alpha                 90.215514
_cell_angle_beta                  89.010542
_cell_angle_gamma                 90.335062
_cell_volume                      2471.73248824

loop_
_atom_site_label
_atom_site_type_symbol
_atom_type_description
_atom_site_fract_x
_atom_site_fract_y
_atom_site_fract_z
_atom_type_partial_charge
C1    C     C_R   0.499907 0.260665 0.499788 0.918710
C2    C     C_R   0.976642 0.305295 0.457327 0.126875
C3    C     C_R   0.035777 0.314660 0.449640 -0.209815
C4    C     C_R   0.063048 0.430897 0.461469 -0.021786
C5    C     C_R   0.030916 0.541779 0.476839 -0.018784
C6    C     C_R   0.058997 0.659494 0.488273 -0.101799
C7    C     C_R   0.025892 0.770578 0.497536 -0.052807
C8    C     C_R   0.965761 0.762470 0.501149 0.042999
C9    C     C_R   0.122303 0.437860 0.460996 0.507876
C10   C     C_R   0.119365 0.659960 0.493468 0.522463
C11   C     C_R   0.242815 0.572799 0.377744 -0.109969
C12   C     C_R   0.389311 0.502936 0.501162 0.897267
C13   C     C_R   0.301360 0.557854 0.382727 -0.240425
C14   C     C_R   0.327176 0.518858 0.502277 -0.068707
C15   C     C_R   0.293412 0.500511 0.620275 0.079710
C16   C     C_R   0.234199 0.517257 0.615175 0.099342
C17   C     C_R   0.209222 0.550901 0.492532 0.263969
C18   C     C_R   0.764143 0.463856 0.385511 -0.204432
C19   C     C_R   0.704798 0.456853 0.383859 0.062118
C20   C     C_R   0.673000 0.499167 0.497251 -0.018577
C21   C     C_R   0.701384 0.541987 0.612464 -0.255098
C22   C     C_R   0.760788 0.545856 0.614592 0.137148
C23   C     C_R   0.500443 0.739268 0.500328 0.892123
C24   C     C_R   0.792053 0.508720 0.499519 0.288506
C25   C     C_R   0.550025 0.065266 0.498632 0.001168
C26   C     C_R   0.498537 0.128810 0.497936 -0.115392
C27   C     C_R   0.446341 0.064578 0.486112 0.078746
C28   C     C_R   0.446352 0.933376 0.485412 0.047613
C29   C     C_R   0.498609 0.870939 0.500273 -0.094206
C30   C     C_R   0.549908 0.936749 0.503476 0.065532
C31   C     C_3   0.598233 0.932603 0.602304 -0.220278
C32   C     C_3   0.598543 0.077250 0.594927 -0.349151
C33   C     C_R   0.453831 0.455560 0.073107 0.103455
C34   C     C_R   0.610623 0.498608 0.498869 0.937657
C35   C     C_R   0.542787 0.557952 0.067650 -0.040432
C36   C     C_R   0.542494 0.555677 0.924502 -0.145497
C37   C     C_R   0.455063 0.450818 0.931240 0.210417
C38   C     C_3   0.431925 0.318280 0.931586 -0.213703
C39   C     C_3   0.426957 0.328813 0.085119 -0.250634
C40   C     C_R   0.878104 0.632752 0.497800 0.570561
C41   C     C_R   0.883707 0.409218 0.486838 0.527096
C42   C     C_R   0.943460 0.414658 0.475157 -0.014294
C43   C     C_R   0.970779 0.533813 0.481866 -0.096859
C44   C     C_R   0.938058 0.644324 0.494329 -0.021461
H1    H     H_    0.677575 0.573544 0.700886 0.199748
H2    H     H_    0.585287 0.124796 0.690673 0.177896
H3    H     H_    0.060259 0.229287 0.436609 0.207981
H4    H     H_    0.576692 0.598989 0.866477 0.218832
H5    H     H_    0.390610 0.308013 0.878970 0.191774
H6    H     H_    0.453582 0.261127 0.141386 0.190610
H7    H     H_    0.223241 0.598583 0.283659 0.158977
H8    H     H_    0.326440 0.576481 0.292158 0.194153
H9    H     H_    0.788844 0.433459 0.298005 0.164001
N1    N     N_R   0.852904 0.517036 0.496638 -0.355359
N2    N     N_R   0.148771 0.550266 0.480821 -0.358245
N3    N     N_R   0.499610 0.499140 0.142800 -0.154958
N4    N     N_R   0.499610 0.499180 0.857150 -0.132579
O1    O     O_R   0.500010 0.316790 0.614690 -0.641408
O2    O     O_2   0.856058 0.297671 0.489125 -0.512144
O3    O     O_2   0.153641 0.332708 0.443751 -0.532710
O4    O     O_2   0.148815 0.767321 0.513915 -0.512290
O5    O     O_R   0.500000 0.316760 0.385350 -0.610849
O6    O     O_R   0.416160 0.499980 0.614700 -0.597660
O7    O     O_R   0.416150 0.499940 0.385360 -0.627648
O8    O     O_R   0.500000 0.683240 0.614650 -0.619168
O9    O     O_R   0.499990 0.683210 0.385310 -0.571371
O10   O     O_R   0.583850 0.500060 0.614640 -0.638191
O11   O     O_R   0.583840 0.500020 0.385300 -0.578677
O12   O     O_2   0.844681 0.735526 0.501083 -0.521217
Zn1   Zn    Zn3+2 0.500000 0.500020 0.653130 0.967874
Zn2   Zn    Zn3+2 0.500000 0.499980 0.346870 1.005605
N5    N     N_3   0.950977 0.183566 0.447319 -0.368782
H10   H     H_    0.964345 0.143122 0.355867 0.197625
H11   H     H_    0.966663 0.129492 0.526008 0.192630
N6    N     N_3   0.677473 0.402025 0.269433 -0.414838
H12   H     H_    0.692493 0.448407 0.183171 0.223407
H13   H     H_    0.691089 0.309073 0.260764 0.239484
N7    N     N_3   0.789568 0.587167 0.733231 -0.423840
H14   H     H_    0.776790 0.528941 0.813062 0.205698
H15   H     H_    0.775864 0.678184 0.756086 0.238642
N8    N     N_3   0.393773 0.132626 0.482592 -0.423075
H16   H     H_    0.371159 0.101517 0.398799 0.263795
H17   H     H_    0.369742 0.109175 0.568843 0.205645
N9    N     N_3   0.393356 0.865756 0.476227 -0.451947
H18   H     H_    0.388432 0.809524 0.561965 0.193401
H19   H     H_    0.395483 0.807086 0.391490 0.194853
C45   C     C_2   0.580530 0.886089 0.741714 0.912402
O13   O     O_2   0.612571 0.819713 0.806048 -0.608127
O14   O     O_R   0.527971 0.922022 0.798448 -0.799555
H20   H     H_    0.521081 0.885355 0.891627 0.351910
C46   C     C_2   0.651130 0.867621 0.545698 0.965616
O15   O     O_2   0.648494 0.802658 0.443945 -0.591347
O16   O     O_R   0.703077 0.881958 0.611558 -0.743084
H21   H     H_    0.735262 0.834706 0.564781 0.375028
C47   C     C_2   0.651049 0.137521 0.532079 0.980521
O17   O     O_2   0.663587 0.119156 0.413297 -0.602062
O18   O     O_R   0.686106 0.212151 0.612462 -0.776359
H22   H     H_    0.721457 0.242943 0.562014 0.364706
C48   C     C_2   0.590593 0.628597 0.127812 0.984634
O19   O     O_2   0.582404 0.699679 0.222487 -0.538247
O20   O     O_R   0.644584 0.624682 0.065508 -0.823051
H23   H     H_    0.673462 0.680562 0.112049 0.367594
N10   N     N_3   0.473517 0.221505 0.892691 -0.410740
H24   H     H_    0.514500 0.259267 0.879046 0.228909
H25   H     H_    0.461088 0.181096 0.801498 0.236834
C49   C     C_2   0.366018 0.336731 0.135535 0.954580
O21   O     O_2   0.350186 0.272187 0.230714 -0.619040
O22   O     O_R   0.327603 0.417231 0.073270 -0.841174
H26   H     H_    0.287831 0.412258 0.114940 0.351286
C50   C     C_2   0.052516 0.897021 0.499906 0.961972
O23   O     O_2   0.073181 0.941207 0.396237 -0.587345
O24   O     O_R   0.053568 0.965276 0.620550 -0.796212
H27   H     H_    0.072921 0.050105 0.609620 0.349777
N11   N     N_3   0.932548 0.875014 0.510039 -0.356152
H28   H     H_    0.942135 0.930213 0.425721 0.191167
H29   H     H_    0.942875 0.923228 0.598412 0.221012
N12   N     N_3   0.318805 0.462232 0.743960 -0.423690
H30   H     H_    0.299868 0.377517 0.774225 0.216821
H31   H     H_    0.309727 0.530118 0.817616 0.236717
N13   N     N_3   0.199782 0.497799 0.734466 -0.460866
H32   H     H_    0.176351 0.579401 0.753547 0.209385
H33   H     H_    0.171108 0.424361 0.716457 0.213260

loop_
_geom_bond_atom_site_label_1
_geom_bond_atom_site_label_2
_ccdc_geom_bond_type
C39   C49   S    
C45   O13   D    
O16   H21   S    
C28   N9    S    
C38   N10   S    
C41   C42   A    
C19   C20   A    
C43   C44   A    
C1    O5    A    
N11   H28   S    
C7    C8    A    
C38   H5    S    
C26   C27   A    
C33   C39   S    
C18   C24   A    
C23   C29   S    
C23   O9    A    
C28   C29   A    
C37   C38   S    
N9    H19   S    
N12   H31   S    
C30   C31   S    
C12   O7    A    
C2    N5    S    
C49   O21   D    
C24   N1    S    
C15   C16   A    
O18   H22   S    
O22   H26   S    
C18   C19   A    
O7    Zn2   S    
C3    H3    S    
C50   O23   D    
N10   H24   S    
C18   H9    S    
C48   O19   D    
C16   C17   A    
C9    N2    A    
N4    Zn1   S    
C17   N2    S    
C8    N11   S    
C20   C34   S    
C25   C32   S    
C5    C43   A    
C13   C14   A    
C1    O1    A    
C35   C48   S    
O24   H27   S    
N8    H17   S    
N13   H33   S    
N8    H16   S    
C21   H1    S    
C38   C39   S    
C31   C45   S    
C40   O12   S    
O20   H23   S    
C27   N8    S    
N9    H18   S    
C41   O2    S    
N5    H11   S    
C36   N4    A    
C34   O11   A    
C46   O15   D    
C12   O6    A    
N7    H14   S    
O1    Zn1   S    
C25   C26   A    
C33   C37   A    
C15   N12   S    
C35   C36   A    
N6    H12   S    
C29   C30   A    
C46   O16   S    
C13   H8    S    
O9    Zn2   S    
O6    Zn1   S    
C40   C44   A    
N3    Zn2   S    
C32   C47   S    
N10   H25   S    
C10   N2    A    
N6    H13   S    
C22   N7    S    
C48   O20   S    
C12   C14   S    
C31   C46   S    
C45   O14   S    
C1    C26   S    
C22   C24   A    
C10   O4    S    
C42   C43   A    
C3    C4    A    
C27   C28   A    
N13   H32   S    
C25   C30   A    
C11   C17   A    
C35   N3    A    
C32   H2    S    
C31   C32   S    
C8    C44   A    
N5    H10   S    
C34   O10   A    
C6    C10   A    
N11   H29   S    
C47   O18   S    
C6    C7    A    
C40   N1    A    
C7    C50   S    
C9    O3    S    
C23   O8    A    
C16   N13   S    
C2    C3    A    
C4    C9    A    
N12   H30   S    
C11   C13   A    
C33   N3    A    
C5    C6    A    
C49   O22   S    
C2    C42   A    
O11   Zn2   S    
C19   N6    S    
O5    Zn2   S    
C36   H4    S    
N7    H15   S    
C50   O24   S    
C41   N1    A    
C11   H7    S    
C4    C5    A    
C39   H6    S    
C20   C21   A    
C47   O17   D    
C14   C15   A    
O10   Zn1   S    
O14   H20   S    
C21   C22   A    
C37   N4    A    
O8    Zn1   S    
