data_mof_unit_40557.cif
_audit_creation_date              2013-03-05T15:42:40-0500
_audit_creation_method            fapswitch 2.2
_symmetry_space_group_name_H-M    P1
_symmetry_Int_Tables_number       1
_space_group_crystal_system       triclinic
_cell_length_a                    7.783874
_cell_length_b                    8.725203
_cell_length_c                    27.610375
_cell_angle_alpha                 91.641637
_cell_angle_beta                  85.916785
_cell_angle_gamma                 93.391425
_cell_volume                      1866.58511093

loop_
_atom_site_label
_atom_site_type_symbol
_atom_site_description
_atom_site_fract_x
_atom_site_fract_y
_atom_site_fract_z
_atom_type_partial_charge
O1    O     O_R   0.389250 0.738570 0.503220 -0.590986
O2    O     O_R   0.610750 0.261430 0.496780 -0.581152
O3    O     O_R   0.678390 0.711630 0.494810 -0.567680
O4    O     O_R   0.321610 0.288370 0.505190 -0.582383
C1    C     C_R   0.544839 0.793729 0.497871 0.906555
C2    C     C_R   0.455158 0.206173 0.501914 0.939797
O5    O     O_R   0.355440 0.513440 0.575450 -0.562951
O6    O     O_R   0.644560 0.486560 0.424550 -0.540585
O7    O     O_R   0.644590 0.486500 0.567040 -0.586346
O8    O     O_R   0.355410 0.513500 0.432960 -0.608737
C3    C     C_R   0.502222 0.501194 0.593708 0.938986
C4    C     C_R   0.498174 0.501253 0.406264 0.947016
Zn1   Zn    Zn3+2 0.306940 0.517990 0.505620 1.189144
Zn2   Zn    Zn3+2 0.693060 0.482010 0.494380 1.208907
C5    C     C_R   0.632062 0.617254 0.821928 0.598520
C6    C     C_R   0.334983 0.419318 0.178278 0.601057
O9    O     O_2   0.778430 0.659411 0.795298 -0.441508
O10   O     O_2   0.188074 0.380454 0.205138 -0.441147
N1    N     N_R   0.491530 0.559357 0.798983 -0.357308
N2    N     N_R   0.478623 0.471158 0.200971 -0.356611
C7    C     C_R   0.340798 0.514168 0.824277 0.583721
C8    C     C_R   0.629170 0.514412 0.175152 0.581487
C9    C     C_R   0.482632 0.398402 0.725238 -0.116056
C10   C     C_R   0.515983 0.620573 0.276093 -0.103294
C11   C     C_R   0.485494 0.381573 0.674772 0.310033
C12   C     C_R   0.531587 0.629840 0.326211 0.294721
C13   C     C_R   0.527913 0.660913 0.668661 -0.131749
C14   C     C_R   0.444770 0.354747 0.330135 -0.133944
C15   C     C_R   0.527561 0.674300 0.719044 -0.058973
C16   C     C_R   0.435174 0.349179 0.279901 -0.061227
C17   C     C_R   0.502651 0.543890 0.747243 0.191321
C18   C     C_R   0.472527 0.480872 0.252892 0.185424
C19   C     C_R   0.479166 0.562376 0.899384 -0.081592
C20   C     C_R   0.485168 0.476255 0.100593 -0.082203
C21   C     C_R   0.625932 0.627317 0.872993 -0.182839
C22   C     C_R   0.338729 0.411807 0.127186 -0.181188
C23   C     C_R   0.758620 0.703266 0.898275 0.247847
C24   C     C_R   0.204448 0.337749 0.102084 0.247390
C25   C     C_R   0.332477 0.512700 0.874892 0.013350
C26   C     C_R   0.633998 0.521698 0.124699 0.015972
C27   C     C_R   0.508170 0.513989 0.646254 -0.181943
C28   C     C_R   0.493214 0.495490 0.353607 -0.184090
H1    H     H_    0.538937 0.786706 0.736698 0.193173
H2    H     H_    0.405625 0.240731 0.261289 0.199076
C29   C     C_R   0.631362 0.564508 0.024197 0.117112
C30   C     C_R   0.330902 0.476629 0.975858 0.116240
C31   C     C_R   0.337098 0.441369 0.025560 -0.096209
C32   C     C_R   0.624550 0.600746 0.974673 -0.096355
C33   C     C_R   0.483868 0.494748 0.049972 0.081220
C34   C     C_R   0.478618 0.546297 0.950146 0.081000
C35   C     C_R   0.785321 0.585895 0.048227 -0.115661
C36   C     C_R   0.178056 0.453223 0.951372 -0.116402
C37   C     C_R   0.785430 0.569690 0.097912 -0.044474
C38   C     C_R   0.180222 0.465496 0.901447 -0.043734
O11   O     O_2   0.773323 0.551626 0.198405 -0.479725
O12   O     O_2   0.200378 0.468933 0.800358 -0.478466
C39   C     C_R   0.753691 0.696654 0.949190 0.134237
C40   C     C_R   0.207822 0.345757 0.051181 0.133533
H3    H     H_    0.544725 0.721210 0.254242 0.200820
H4    H     H_    0.464658 0.298243 0.747746 0.193917
H5    H     H_    0.905021 0.594658 0.115174 0.195606
H6    H     H_    0.061865 0.438080 0.883806 0.196588
H7    H     H_    0.908557 0.612725 0.029132 0.165466
H8    H     H_    0.054250 0.426910 0.970198 0.166249
C41   C     C_2   0.569465 0.955492 0.498963 -0.013282
C42   C     C_2   0.430863 0.044310 0.499741 -0.061431
N3    N     N_2   0.950320 0.457960 0.486880 0.040058
N4    N     N_2   0.049680 0.542040 0.513120 0.042290
C43   C     C_2   0.535528 0.802785 0.640734 1.003811
O13   O     O_2   0.648275 0.903431 0.647140 -0.475282
O14   O     O_R   0.408100 0.823915 0.608834 -0.744757
H9    H     H_    0.419774 0.928511 0.593818 0.379567
C44   C     C_2   0.415310 0.209208 0.356394 1.033519
O15   O     O_2   0.297516 0.117587 0.346180 -0.491368
O16   O     O_R   0.528192 0.172884 0.390842 -0.762404
H10   H     H_    0.503086 0.065265 0.403182 0.373891
N5    N     N_R   0.020708 0.428148 0.440367 0.303723
O17   O     O_R   0.059613 0.289010 0.427848 -0.286345
O18   O     O_R   0.010586 0.528193 0.406795 -0.297193
N6    N     N_R   0.979162 0.572137 0.559610 0.307358
O19   O     O_R   0.938496 0.710988 0.571918 -0.281601
O20   O     O_R   0.990009 0.472720 0.593321 -0.302278
N7    N     N_R   0.883332 0.806405 0.873497 0.283743
O21   O     O_R   0.042979 0.770518 0.865985 -0.308376
O22   O     O_R   0.834874 0.932439 0.855922 -0.293416
N8    N     N_R   0.081306 0.233063 0.126836 0.283525
O23   O     O_R   0.920580 0.265965 0.133921 -0.305034
O24   O     O_R   0.132033 0.108240 0.144641 -0.294690
N9    N     N_R   0.589994 0.774747 0.347702 0.216732
O25   O     O_R   0.587684 0.900201 0.323441 -0.338826
O26   O     O_R   0.670869 0.780295 0.387366 -0.347199
N10   N     N_R   0.460521 0.230705 0.653340 0.219344
O27   O     O_R   0.367349 0.124507 0.676856 -0.326644
O28   O     O_R   0.542317 0.194806 0.612293 -0.376962
N11   N     N_R   0.859242 0.808077 0.974781 0.219903
O29   O     O_R   0.788191 0.899504 0.007404 -0.275428
O30   O     O_R   0.025654 0.819625 0.965451 -0.304468
N12   N     N_R   0.101625 0.234705 0.025674 0.219681
O31   O     O_R   0.935054 0.224847 0.034728 -0.307040
O32   O     O_R   0.172373 0.141357 0.993591 -0.274759
N13   N     N_R   0.743551 0.015866 0.503190 0.248387
O33   O     O_R   0.854613 0.009701 0.465825 -0.201810
O34   O     O_R   0.795368 0.057879 0.545571 -0.233427
N14   N     N_R   0.257385 0.983876 0.494349 0.241642
O35   O     O_R   0.142794 0.991784 0.530803 -0.224502
O36   O     O_R   0.211179 0.934159 0.452056 -0.276618

loop_
_geom_bond_atom_site_label_1
_geom_bond_atom_site_label_2
_geom_bond_distance
_ccdc_geom_bond_type
N4    N6    1.383941 S    
N13   O33   1.299945 A    
C13   C15   1.392477 A    
C44   O15   1.223303 D    
N11   O29   1.301382 A    
N3    N5    1.383713 S    
C41   N13   1.435916 S    
O7    Zn2   2.014458 S    
N1    C17   1.428006 S    
N14   O36   1.301326 A    
C32   C39   1.428031 A    
C31   C33   1.416020 A    
N5    O17   1.299820 A    
C12   N9    1.443874 S    
C5    N1    1.366778 A    
C19   C25   1.408362 A    
C2    C42   1.413887 S    
C24   N8    1.434918 S    
O1    C1    1.276634 A    
N1    C7    1.365334 A    
C10   C12   1.397315 A    
N8    O24   1.301128 A    
C25   C38   1.395550 A    
C29   C35   1.410982 A    
C30   C36   1.411429 A    
C14   C28   1.415855 A    
O4    Zn1   2.013114 S    
C43   O14   1.396033 S    
C4    C28   1.456486 S    
C24   C40   1.407503 A    
C37   H5    1.083691 S    
C11   N10   1.436038 S    
C40   N12   1.437772 S    
Zn2   N3    2.021140 S    
N9    O26   1.299815 A    
C13   C43   1.473050 S    
O6    C4    1.293287 A    
C32   C34   1.414882 A    
N13   O34   1.300568 A    
C15   H1    1.084340 S    
C44   O16   1.395122 S    
C16   H2    1.084229 S    
O2    C2    1.276603 A    
C14   C44   1.478309 S    
C5    C21   1.407748 A    
N14   O35   1.299561 A    
C36   C38   1.384484 A    
N5    O18   1.300872 A    
C9    H4    1.083392 S    
N3    N4    1.281973 D    
C42   N14   1.436485 S    
C35   H7    1.077684 S    
C1    C41   1.412834 S    
C36   H8    1.077464 S    
C11   C27   1.412153 A    
N8    O23   1.300107 A    
C38   H6    1.083693 S    
C19   C34   1.412227 A    
C35   C37   1.383184 A    
C9    C17   1.396672 A    
O5    C3    1.292475 A    
O16   H10   1.011502 S    
C10   C18   1.395654 A    
C13   C27   1.412270 A    
N7    O21   1.300350 A    
C7    C25   1.394779 A    
C29   C33   1.421556 A    
C6    N2    1.367832 A    
C8    C26   1.394030 A    
N10   O28   1.299399 A    
O7    C3    1.296863 A    
O3    Zn2   2.013114 S    
O8    C4    1.297108 A    
O4    C2    1.293922 A    
N7    O22   1.301058 A    
N2    C8    1.366724 A    
N12   O31   1.301097 A    
N12   O32   1.301365 A    
C20   C26   1.408047 A    
O1    Zn1   1.993578 S    
C12   C28   1.418711 A    
N2    C18   1.431201 S    
C29   C32   1.417585 A    
C5    O9    1.349270 S    
C30   C31   1.419689 A    
C20   C33   1.412357 A    
O6    Zn2   1.992792 S    
C21   C23   1.410071 A    
N6    O19   1.299960 A    
O3    C1    1.293468 A    
O8    Zn1   2.014458 S    
C7    O12   1.350343 S    
N11   O30   1.301119 A    
C8    O11   1.350627 S    
C30   C34   1.421737 A    
C14   C16   1.393590 A    
O14   H9    1.009719 S    
C15   C17   1.393434 A    
C6    C22   1.408618 A    
C31   C40   1.429005 A    
C16   C18   1.392713 A    
C10   H3    1.083030 S    
C22   C24   1.409963 A    
N10   O27   1.301546 A    
C19   C21   1.409119 A    
N6    O20   1.300800 A    
C3    C27   1.455737 S    
C20   C22   1.408274 A    
C9    C11   1.395661 A    
C43   O13   1.222565 D    
O2    Zn2   1.993578 S    
C26   C37   1.395331 A    
O5    Zn1   1.992792 S    
C6    O10   1.349211 S    
C41   C42   1.363684 D    
C39   N11   1.438148 S    
C23   N7    1.434413 S    
N9    O25   1.301257 A    
C23   C39   1.406314 A    
Zn1   N4    2.021141 S    
