data_mof_unit_18696.cif
_audit_creation_date              2012-12-11T17:08:25-0500
_audit_creation_method            fapswitch 2.2
_symmetry_space_group_name_H-M    P1
_symmetry_Int_Tables_number       1
_space_group_crystal_system       triclinic
_cell_length_a                    6.989965
_cell_length_b                    14.552216
_cell_length_c                    16.051382
_cell_angle_alpha                 90.064577
_cell_angle_beta                  89.978749
_cell_angle_gamma                 90.180351
_cell_volume                      1632.72900265

loop_
_atom_site_label
_atom_site_type_symbol
_atom_type_description
_atom_site_fract_x
_atom_site_fract_y
_atom_site_fract_z
_atom_type_partial_charge
O1    O     O_R   0.505700 0.583890 0.413310 -0.543920
O2    O     O_R   0.175960 0.594920 0.586080 -0.540913
O3    O     O_R   0.005660 0.416110 0.586690 -0.546712
C1    C     C_R   0.345166 0.616845 0.614647 0.722189
O4    O     O_R   0.175980 0.594920 0.413930 -0.532691
O5    O     O_R   0.005680 0.416110 0.413310 -0.543936
C2    C     C_R   0.344966 0.616719 0.385119 0.700918
O6    O     O_R   0.505680 0.583890 0.586690 -0.534695
O7    O     O_3   0.339200 0.441330 0.500000 -0.387383
V1    V     V_3+5 0.064350 0.510880 0.500000 1.377947
O8    O     O_R   0.675960 0.405080 0.413920 -0.542444
C3    C     C_R   0.844976 0.383005 0.385327 0.660092
O9    O     O_R   0.675940 0.405080 0.586070 -0.531763
C4    C     C_R   0.845497 0.378497 0.610904 0.726633
V2    V     V_3+5 0.564340 0.489120 0.500000 1.378778
O10   O     O_3   0.839360 0.558670 0.500000 -0.369073
C5    C     C_R   0.028753 0.291433 0.717698 -0.138826
C6    C     C_R   0.860153 0.301816 0.672558 -0.205151
C7    C     C_R   0.726739 0.228681 0.678810 0.382993
C8    C     C_R   0.736834 0.166395 0.747538 0.367535
C9    C     C_R   0.882043 0.176254 0.808522 -0.232652
C10   C     C_R   0.038605 0.232316 0.787328 -0.129969
C11   C     C_3   0.228918 0.196506 0.758474 0.095328
C12   C     C_3   0.208061 0.253249 0.680044 0.427075
H1    H     H_    0.348328 0.219474 0.799360 0.094919
H2    H     H_    0.322385 0.305975 0.672255 0.052672
C13   C     C_R   0.728662 0.181954 0.242199 0.098639
C14   C     C_R   0.882362 0.181822 0.186025 -0.108751
C15   C     C_R   0.033981 0.243325 0.202089 -0.181503
H3    H     H_    0.156630 0.245318 0.161145 0.134042
C16   C     C_R   0.022684 0.307545 0.267660 -0.174614
H4    H     H_    0.137569 0.356773 0.275316 0.133463
C17   C     C_R   0.859155 0.312409 0.318988 -0.107801
C18   C     C_R   0.717206 0.245662 0.306882 0.086415
C19   C     C_3   0.506997 0.256841 0.295943 -0.409619
C20   C     C_3   0.519264 0.187097 0.225588 -0.393595
H5    H     H_    0.469230 0.327023 0.274401 0.170297
H6    H     H_    0.425041 0.231520 0.350693 0.160428
H7    H     H_    0.488003 0.216625 0.163245 0.171149
H8    H     H_    0.444679 0.121366 0.239777 0.163420
C21   C     C_R   0.511143 0.688179 0.737122 0.119403
C22   C     C_R   0.358435 0.687589 0.680710 -0.169737
C23   C     C_R   0.224708 0.759415 0.686562 -0.269577
H9    H     H_    0.111422 0.764834 0.640822 0.143410
C24   C     C_R   0.234299 0.824374 0.752344 0.446736
C25   C     C_R   0.379964 0.818412 0.813566 -0.208949
C26   C     C_R   0.520291 0.751217 0.802253 0.016848
C27   C     C_3   0.591380 0.680515 0.861956 -0.407464
C28   C     C_3   0.583753 0.611986 0.790511 -0.400469
H10   H     H_    0.486632 0.665351 0.912313 0.165782
H11   H     H_    0.739183 0.694758 0.883810 0.164000
H12   H     H_    0.476179 0.556452 0.799790 0.158184
H13   H     H_    0.727514 0.588212 0.770322 0.166713
C29   C     C_R   0.506282 0.682341 0.257779 0.051184
C30   C     C_R   0.353346 0.682213 0.314379 -0.127697
C31   C     C_R   0.202506 0.743925 0.298999 -0.123384
H14   H     H_    0.080802 0.746041 0.340450 0.129706
C32   C     C_R   0.212973 0.807926 0.233302 -0.178045
H15   H     H_    0.098319 0.856972 0.225980 0.122064
C33   C     C_R   0.375529 0.812850 0.181418 -0.103480
C34   C     C_R   0.517879 0.746747 0.193548 0.049326
C35   C     C_3   0.728150 0.759397 0.204098 -0.382743
C36   C     C_3   0.716661 0.688912 0.273984 0.037580
H16   H     H_    0.764310 0.829581 0.226588 0.135405
H17   H     H_    0.809625 0.736330 0.148393 0.182854
H18   H     H_    0.751545 0.716618 0.336786 0.126637
O11   O     O_R   0.229000 0.916070 0.913330 -0.524932
O12   O     O_R   0.558770 0.905070 0.086080 -0.541417
O13   O     O_R   0.729000 0.083900 0.086690 -0.538658
C37   C     C_R   0.389577 0.883203 0.114839 0.687922
O14   O     O_R   0.558720 0.905070 0.913930 -0.547296
O15   O     O_R   0.728960 0.083900 0.913310 -0.515776
C38   C     C_R   0.389734 0.883363 0.884973 0.748503
O16   O     O_R   0.229050 0.916070 0.086710 -0.542099
O17   O     O_3   0.395460 0.058650 0.000020 -0.371474
V3    V     V_3+5 0.670340 0.989120 0.000000 1.408287
O18   O     O_R   0.058670 0.094960 0.913900 -0.548230
C39   C     C_R   0.890575 0.114108 0.882719 0.767277
O19   O     O_R   0.058720 0.094960 0.086050 -0.545319
C40   C     C_R   0.890085 0.116686 0.114951 0.685552
V4    V     V_3+5 0.170330 0.010930 0.999970 1.404985
O20   O     O_3   0.895340 0.941350 0.999980 -0.378176
O21   O     O_3   0.594840 0.212949 0.616446 -0.549495
C41   C     C_3   0.689572 0.183423 0.543195 -0.272265
H19   H     H_    0.811824 0.136501 0.555836 0.150628
H20   H     H_    0.738316 0.243046 0.505999 0.131163
H21   H     H_    0.586453 0.144609 0.504136 0.145682
O22   O     O_3   0.105062 0.895704 0.755216 -0.570467
C42   C     C_3   0.928149 0.861359 0.783323 -0.216613
H22   H     H_    0.842057 0.919929 0.805922 0.175008
H23   H     H_    0.943399 0.813558 0.837059 0.132749
H24   H     H_    0.850248 0.827572 0.731293 0.125710
O23   O     O_3   0.609447 0.094066 0.755446 -0.544927
C43   C     C_3   0.638685 0.027957 0.692254 -0.160874
H25   H     H_    0.588274 0.960488 0.715601 0.127987
H26   H     H_    0.791486 0.020262 0.673941 0.106284
H27   H     H_    0.548705 0.043418 0.637274 0.203328
N1    N     N_3   0.818709 0.603904 0.254087 -0.643023
H28   H     H_    0.765086 0.575162 0.198985 0.227861
H29   H     H_    0.791279 0.556829 0.301705 0.240801
N2    N     N_3   0.231928 0.097083 0.741745 -0.533795
H30   H     H_    0.260002 0.061962 0.796940 0.276180
H31   H     H_    0.101917 0.073482 0.717691 0.262676
O24   O     O_3   0.169564 0.194508 0.610861 -0.543555
C44   C     C_3   0.208388 0.236254 0.533643 -0.130629
H32   H     H_    0.336069 0.281139 0.534551 0.184480
H33   H     H_    0.081717 0.273747 0.511132 0.116276
H34   H     H_    0.236297 0.181237 0.487408 0.116473

loop_
_geom_bond_atom_site_label_1
_geom_bond_atom_site_label_2
_ccdc_geom_bond_type
C8    O23   S    
O23   C43   S    
C21   C22   A    
C4    C6    S    
C7    C8    A    
C41   H21   S    
C2    C30   S    
C1    O6    A    
V4    O20   S    
O18   C39   A    
C44   H33   S    
C35   C36   S    
C14   C15   A    
C19   H5    S    
C12   H2    S    
C18   C19   S    
C36   N1    S    
O5    C3    A    
O14   V3    S    
C29   C36   S    
C32   C33   A    
V2    O10   S    
C31   H14   S    
O13   V3    S    
C6    C7    A    
C35   H16   S    
C29   C30   A    
O8    V2    S    
C27   H11   S    
O21   C41   S    
C9    C39   S    
C37   O16   A    
O15   C39   A    
C11   C12   S    
C16   C17   A    
O11   C38   A    
C33   C37   S    
C42   H23   S    
O7    V1    S    
O15   V3    S    
C27   H10   S    
C36   H18   S    
N2    H31   S    
O9    C4    A    
C43   H25   S    
C7    O21   S    
C21   C28   S    
O24   C44   S    
C5    C6    A    
C20   H7    S    
C13   C18   A    
C44   H34   S    
C5    C12   S    
N2    H30   S    
C20   H8    S    
C19   H6    S    
C41   H19   S    
V3    O20   S    
O19   V4    S    
O17   V4    S    
C43   H27   S    
C32   H15   S    
C24   C25   A    
C33   C34   A    
C12   O24   S    
C19   C20   S    
O2    C1    A    
O17   V3    S    
C15   H3    S    
C26   C27   S    
O18   V4    S    
C28   H12   S    
C24   O22   S    
C30   C31   A    
C17   C18   A    
C21   C26   A    
C8    C9    A    
C42   H24   S    
C43   H26   S    
C23   C24   A    
O3    C4    A    
O1    V2    S    
C27   C28   S    
O11   V4    S    
O6    V2    S    
N1    H29   S    
O9    V2    S    
C23   H9    S    
C22   C23   A    
O16   V4    S    
O2    V1    S    
O4    C2    A    
C25   C26   A    
C35   H17   S    
O1    C2    A    
C16   H4    S    
C41   H20   S    
O5    V1    S    
O8    C3    A    
C29   C34   A    
C13   C20   S    
O12   V3    S    
C44   H32   S    
C5    C10   A    
O7    V2    S    
O4    V1    S    
C15   C16   A    
O3    V1    S    
V1    O10   S    
C11   N2    S    
C1    C22   S    
C3    C17   S    
C28   H13   S    
C31   C32   A    
C11   H1    S    
C34   C35   S    
C14   C40   S    
O19   C40   A    
O22   C42   S    
O12   C37   A    
N1    H28   S    
O14   C38   A    
C13   C14   A    
C10   C11   S    
O13   C40   A    
C42   H22   S    
C9    C10   A    
C25   C38   S    
