data_mof_unit_42379.cif
_audit_creation_date              2012-12-10T18:13:36-0500
_audit_creation_method            fapswitch 2.2
_symmetry_space_group_name_H-M    P1
_symmetry_Int_Tables_number       1
_space_group_crystal_system       triclinic
_cell_length_a                    12.74385
_cell_length_b                    12.979404
_cell_length_c                    16.599833
_cell_angle_alpha                 88.560514
_cell_angle_beta                  97.161138
_cell_angle_gamma                 95.71912
_cell_volume                      2710.53509017

loop_
_atom_site_label
_atom_site_type_symbol
_atom_type_description
_atom_site_fract_x
_atom_site_fract_y
_atom_site_fract_z
_atom_type_partial_charge
C1    C     C_R   0.558737 0.691509 0.506534 0.868007
C2    C     C_R   0.473078 0.477752 0.735047 -0.196970
C3    C     C_R   0.343471 0.081934 0.353102 -0.249431
C4    C     C_R   0.511432 0.491040 0.349457 0.871985
C5    C     C_R   0.417594 0.201697 0.460350 -0.138131
C6    C     C_R   0.682763 0.834066 0.566693 -0.211654
C7    C     C_R   0.726140 0.936724 0.567362 -0.172468
C8    C     C_R   0.676411 0.009777 0.516559 -0.026033
C9    C     C_R   0.576964 0.977893 0.471622 0.012191
C10   C     C_R   0.554527 0.873452 0.451696 -0.065267
C11   C     C_R   0.498746 0.043819 0.445434 0.037087
C12   C     C_R   0.600717 0.458194 0.229529 -0.195792
C13   C     C_R   0.422611 0.015913 0.378543 -0.057059
C14   C     C_R   0.431651 0.924617 0.336649 0.510244
C15   C     C_R   0.495597 0.849455 0.375005 -0.162350
C16   C     C_R   0.442793 0.308457 0.487642 0.956982
C17   C     C_R   0.491272 0.132751 0.488297 -0.201359
C18   C     C_R   0.339805 0.174719 0.394195 0.478825
C19   C     C_R   0.598237 0.800830 0.507402 -0.013391
C20   C     C_R   0.888942 0.317136 0.582819 -0.291450
C21   C     C_R   0.202735 0.636034 0.408683 0.092267
C22   C     C_R   0.112941 0.686390 0.416223 -0.263501
C23   C     C_R   0.476187 0.354839 0.846462 -0.342278
C24   C     C_R   0.034074 0.638348 0.457716 -0.205701
C25   C     C_R   0.043872 0.538738 0.490847 0.019691
C26   C     C_R   0.146320 0.500732 0.498213 0.133976
C27   C     C_R   0.956159 0.476984 0.517995 0.003046
C28   C     C_R   0.486301 0.500363 0.650786 0.924858
C29   C     C_R   0.970375 0.376298 0.548821 0.156581
C30   C     C_R   0.067353 0.337048 0.550066 -0.362452
C31   C     C_R   0.157279 0.403183 0.538988 -0.011476
C32   C     C_R   0.852744 0.508455 0.512676 -0.053270
C33   C     C_R   0.790166 0.353169 0.577639 0.060840
C34   C     C_R   0.505916 0.384910 0.770845 0.499206
C35   C     C_R   0.507712 0.456503 0.266635 -0.018208
C36   C     C_R   0.411436 0.409529 0.227793 -0.102237
C37   C     C_R   0.406705 0.370111 0.150676 -0.172771
C38   C     C_R   0.497976 0.378925 0.111081 0.185777
C39   C     C_R   0.595719 0.419602 0.151639 -0.143113
C40   C     C_3   0.229965 0.569692 0.865714 -0.284550
C41   C     C_3   0.167674 0.208995 0.384051 -0.256281
C42   C     C_3   0.442054 0.963856 0.203764 -0.269428
C43   C     C_2   0.743276 0.102400 0.490970 0.866883
C44   C     C_2   0.522277 0.761884 0.327533 0.922080
C45   C     C_R   0.416519 0.541655 0.776550 -0.295160
C46   C     C_3   0.659679 0.311483 0.764488 -0.303185
C47   C     C_2   0.243566 0.651108 0.329752 0.945639
C48   C     C_2   0.235617 0.388765 0.609387 0.989992
C49   C     C_R   0.389497 0.512523 0.853413 0.577094
C50   C     C_R   0.422628 0.420029 0.889323 0.001051
C51   C     C_2   0.490197 0.361516 0.024140 -0.256886
C52   C     C_2   0.410193 0.397023 0.974381 -0.132511
H1    H     H_    0.339904 0.402069 0.257308 0.220130
H2    H     H_    0.963311 0.677521 0.457215 0.157254
H3    H     H_    0.096618 0.755710 0.381017 0.193984
H4    H     H_    0.392071 0.613271 0.748728 0.179553
H5    H     H_    0.345252 0.428357 0.999194 0.188088
H6    H     H_    0.666844 0.426314 0.121526 0.131687
H7    H     H_    0.495699 0.280554 0.872085 0.176436
H8    H     H_    0.676338 0.491015 0.259994 0.153609
H9    H     H_    0.561066 0.341423 0.000311 0.152425
H10   H     H_    0.331218 0.335918 0.120956 0.139358
H11   H     H_    0.193532 0.488351 0.869764 0.161237
H12   H     H_    0.286038 0.063074 0.300520 0.196515
H13   H     H_    0.217358 0.599195 0.802081 0.190796
H14   H     H_    0.188117 0.617762 0.903238 0.192390
H15   H     H_    0.169090 0.194524 0.450604 0.179692
H16   H     H_    0.134462 0.138039 0.349934 0.157977
H17   H     H_    0.113555 0.269959 0.366967 0.196593
H18   H     H_    0.402655 0.948649 0.141202 0.199584
H19   H     H_    0.522744 0.936659 0.208068 0.164182
H20   H     H_    0.448291 0.048946 0.213094 0.155686
H21   H     H_    0.891709 0.162087 0.474533 0.345684
H22   H     H_    0.635659 0.673243 0.302995 0.326662
H23   H     H_    0.547200 0.151682 0.541881 0.174419
H24   H     H_    0.662949 0.283635 0.828561 0.150171
H25   H     H_    0.707701 0.387569 0.761011 0.169792
H26   H     H_    0.696623 0.254300 0.731434 0.171620
H27   H     H_    0.254482 0.744472 0.231912 0.392832
H28   H     H_    0.331767 0.291974 0.671589 0.343661
H29   H     H_    0.719613 0.779354 0.608859 0.153883
H30   H     H_    0.800174 0.958166 0.605345 0.176039
H31   H     H_    0.724474 0.305532 0.598752 0.145449
H32   H     H_    0.076467 0.260638 0.577009 0.181500
H33   H     H_    0.901167 0.243036 0.612101 0.171638
H34   H     H_    0.831224 0.579772 0.483703 0.138677
N1    N     N_R   0.774070 0.445420 0.541180 -0.104264
N2    N     N_R   0.226730 0.554050 0.459240 -0.156528
O1    O     O_R   0.631480 0.627510 0.519670 -0.608777
O2    O     O_3   0.269260 0.244377 0.363513 -0.615617
O3    O     O_3   0.380050 0.909833 0.258873 -0.568962
O4    O     O_2   0.703671 0.172593 0.451441 -0.622721
O5    O     O_R   0.853936 0.103250 0.504383 -0.827495
O6    O     O_2   0.459108 0.723726 0.272365 -0.576099
O7    O     O_R   0.623765 0.727904 0.342503 -0.824367
O8    O     O_3   0.554535 0.317511 0.727447 -0.601120
O9    O     O_2   0.260319 0.576134 0.292122 -0.600612
O10   O     O_R   0.242105 0.747654 0.290938 -0.780606
O11   O     O_2   0.238256 0.444661 0.667943 -0.662037
O12   O     O_R   0.455770 0.662400 0.493360 -0.633118
O13   O     O_R   0.289690 0.299754 0.616266 -0.825346
O14   O     O_R   0.598240 0.480510 0.398910 -0.608119
O15   O     O_R   0.422540 0.515400 0.372600 -0.568258
O16   O     O_R   0.544230 0.337600 0.506640 -0.604069
O17   O     O_R   0.368520 0.372490 0.480330 -0.574037
O18   O     O_R   0.577460 0.484600 0.627400 -0.595953
O19   O     O_R   0.401760 0.519490 0.601090 -0.607637
O20   O     O_3   0.338750 0.578446 0.896254 -0.614027
Zn1   Zn    Zn3+2 0.617320 0.476700 0.517570 0.982688
Zn2   Zn    Zn3+2 0.382680 0.523300 0.482430 1.007945

loop_
_geom_bond_atom_site_label_1
_geom_bond_atom_site_label_2
_ccdc_geom_bond_type
O17   Zn2   S    
O12   Zn2   S    
C27   C29   A    
H27   O10   S    
C35   C36   A    
C51   H9    S    
C8    C43   S    
H21   O5    S    
C46   H24   S    
C37   H10   S    
C47   O10   S    
C7    C8    A    
C41   H15   S    
C3    H12   S    
C23   H7    S    
C6    C19   A    
C29   C30   A    
C40   H11   S    
O15   Zn2   S    
C36   C37   A    
C34   O8    S    
C15   C44   S    
C10   C15   A    
O16   Zn1   S    
C5    C17   A    
C28   O19   A    
C24   H2    S    
C4    O15   A    
O1    Zn1   S    
C42   H18   S    
C3    C18   A    
C42   O3    S    
C5    C16   S    
C36   H1    S    
C16   O16   A    
C45   H4    S    
C28   O18   A    
C8    C9    A    
C4    O14   A    
C50   C52   S    
C41   H16   S    
C9    C10   A    
C3    C13   A    
C40   O20   S    
N2    Zn2   S    
C2    C34   A    
C41   O2    S    
C21   N2    A    
C26   C31   A    
C6    H29   S    
C40   H14   S    
C13   C14   A    
C1    O12   A    
C49   O20   S    
C20   C29   A    
C2    C45   A    
C1    C19   S    
C51   C52   D    
C18   O2    S    
C24   C25   A    
C46   H26   S    
C23   C50   A    
C5    C18   A    
C25   C26   A    
C39   H6    S    
C37   C38   A    
C33   H31   S    
C45   C49   A    
C10   C19   A    
C23   C34   A    
C32   H34   S    
C20   H33   S    
C42   H20   S    
C12   C35   A    
C9    C11   A    
C22   H3    S    
C16   O17   A    
N1    Zn1   S    
C20   C33   A    
C40   H13   S    
O19   Zn2   S    
C22   C24   A    
C41   H17   S    
C48   O11   D    
C11   C17   A    
C1    O1    A    
C27   C32   A    
H22   O7    S    
C46   H25   S    
C6    C7    A    
C38   C51   S    
C25   C27   A    
C43   O4    D    
C47   O9    D    
H28   O13   S    
C31   C48   S    
C12   C39   A    
C33   N1    A    
C44   O7    S    
C11   C13   A    
C30   C31   A    
C38   C39   A    
C48   O13   S    
C42   H19   S    
C43   O5    S    
C30   H32   S    
C14   O3    S    
C4    C35   S    
C44   O6    D    
C52   H5    S    
C12   H8    S    
C32   N1    A    
C7    H30   S    
C46   O8    S    
C26   N2    A    
C49   C50   A    
C17   H23   S    
C14   C15   A    
O14   Zn1   S    
C2    C28   S    
C21   C22   A    
C21   C47   S    
O18   Zn1   S    
