data_mof_unit_21921.cif
_audit_creation_date              2012-12-11T15:28:38-0500
_audit_creation_method            fapswitch 2.2
_symmetry_space_group_name_H-M    P1
_symmetry_Int_Tables_number       1
_space_group_crystal_system       triclinic
_cell_length_a                    6.960996
_cell_length_b                    19.596043
_cell_length_c                    23.394178
_cell_angle_alpha                 96.095807
_cell_angle_beta                  91.233298
_cell_angle_gamma                 88.611124
_cell_volume                      3171.60017425

loop_
_atom_site_label
_atom_site_type_symbol
_atom_type_description
_atom_site_fract_x
_atom_site_fract_y
_atom_site_fract_z
_atom_type_partial_charge
O1    O     O_R   0.617180 0.809390 0.808140 -0.521710
O2    O     O_R   0.382820 0.190610 0.191860 -0.521710
O3    O     O_R   0.293300 0.672410 0.795490 -0.535246
O4    O     O_R   0.706700 0.327590 0.204510 -0.535247
O5    O     O_R   0.117220 0.690610 0.691850 -0.521905
O6    O     O_R   0.882780 0.309390 0.308150 -0.521905
C1    C     C_R   0.465000 0.647904 0.805335 0.697070
C2    C     C_R   0.535000 0.352096 0.194665 0.697071
O7    O     O_R   0.287840 0.807750 0.814460 -0.525078
O8    O     O_R   0.712160 0.192250 0.185540 -0.525078
O9    O     O_R   0.111720 0.826910 0.710960 -0.532655
O10   O     O_R   0.888280 0.173090 0.289040 -0.532655
C3    C     C_R   0.456521 0.830744 0.833173 0.716157
C4    C     C_R   0.543479 0.169256 0.166827 0.716156
O11   O     O_R   0.622680 0.673080 0.789040 -0.532796
O12   O     O_R   0.377320 0.326920 0.210960 -0.532797
O13   O     O_3   0.448820 0.756130 0.716020 -0.359236
O14   O     O_3   0.551180 0.243870 0.283980 -0.359236
V1    V     V_3+5 0.176220 0.748860 0.756300 1.416073
V2    V     V_3+5 0.823780 0.251140 0.243700 1.416073
O15   O     O_R   0.781670 0.827580 0.704500 -0.534864
O16   O     O_R   0.218330 0.172420 0.295500 -0.534864
C5    C     C_R   0.947722 0.851812 0.694099 0.695916
C6    C     C_R   0.052278 0.148188 0.305901 0.695917
O17   O     O_R   0.787130 0.692240 0.685530 -0.525542
O18   O     O_R   0.212870 0.307760 0.314470 -0.525542
C7    C     C_R   0.956087 0.669237 0.666795 0.715379
C8    C     C_R   0.043913 0.330763 0.333204 0.715379
V3    V     V_3+5 0.675510 0.751130 0.743690 1.417239
V4    V     V_3+5 0.324490 0.248870 0.256310 1.417239
O19   O     O_3   0.952780 0.743870 0.783980 -0.358366
O20   O     O_3   0.047220 0.256130 0.216020 -0.358366
C9    C     C_1   0.966593 0.617176 0.614738 -0.218938
C10   C     C_1   0.033407 0.382824 0.385261 -0.218938
C11   C     C_1   0.978164 0.573662 0.571922 -0.002610
C12   C     C_1   0.021836 0.426338 0.428078 -0.002610
C13   C     C_1   0.993412 0.521859 0.521316 -0.004175
C14   C     C_1   0.006588 0.478141 0.478684 -0.004175
C15   C     C_R   0.945753 0.913959 0.663434 -0.046534
C16   C     C_R   0.054247 0.086041 0.336566 -0.046534
C17   C     C_R   0.858364 0.034083 0.662948 -0.161864
C18   C     C_R   0.141636 0.965917 0.337052 -0.161864
C19   C     C_R   0.877197 0.975707 0.691805 -0.165612
C20   C     C_R   0.122803 0.024293 0.308195 -0.165612
C21   C     C_R   0.995024 0.910923 0.605125 -0.215203
C22   C     C_R   0.004976 0.089076 0.394874 -0.215203
C23   C     C_R   0.973242 0.969728 0.574114 0.086769
C24   C     C_R   0.026758 0.030272 0.425886 0.086769
C25   C     C_R   0.903995 0.031611 0.604624 0.139241
C26   C     C_R   0.096004 0.968389 0.395376 0.139241
C27   C     C_R   0.014460 0.969299 0.514057 0.057647
C28   C     C_R   0.985540 0.030701 0.485943 0.057647
C29   C     C_R   0.917067 0.090470 0.518871 -0.186832
C30   C     C_R   0.082933 0.909529 0.481129 -0.186832
C31   C     C_R   0.877840 0.090735 0.576808 -0.201143
C32   C     C_R   0.122160 0.909265 0.423192 -0.201143
H1    H     H_    0.824818 0.137984 0.600125 0.123229
H2    H     H_    0.175182 0.862016 0.399875 0.123229
H3    H     H_    0.955848 0.138277 0.414840 0.095546
H4    H     H_    0.044152 0.861722 0.585160 0.095546
H5    H     H_    0.163466 0.021453 0.263537 0.107562
H6    H     H_    0.836534 0.978547 0.736463 0.107562
H7    H     H_    0.804686 0.081264 0.686176 0.113324
H8    H     H_    0.195314 0.918736 0.313824 0.113324
H9    H     H_    0.891290 0.138385 0.501097 0.123883
H10   H     H_    0.108710 0.861615 0.498903 0.123883
C33   C     C_R   0.485509 0.585790 0.835537 -0.045961
C34   C     C_R   0.514491 0.414210 0.164463 -0.045961
C35   C     C_R   0.591532 0.467221 0.833623 -0.162352
C36   C     C_R   0.408467 0.532779 0.166377 -0.162352
C37   C     C_R   0.554265 0.525179 0.805341 -0.166470
C38   C     C_R   0.445733 0.474821 0.194659 -0.166469
C39   C     C_R   0.454857 0.588227 0.894929 -0.215159
C40   C     C_R   0.545143 0.411773 0.105071 -0.215159
C41   C     C_R   0.496448 0.530064 0.925296 0.086577
C42   C     C_R   0.503552 0.469936 0.074704 0.086576
C43   C     C_R   0.565055 0.469217 0.893057 0.139606
C44   C     C_R   0.434944 0.530783 0.106943 0.139606
C45   C     C_R   0.475856 0.530310 0.986314 0.057441
C46   C     C_R   0.524144 0.469690 0.013686 0.057441
C47   C     C_R   0.590545 0.410825 0.979102 -0.186802
C48   C     C_R   0.409454 0.589175 0.020897 -0.186802
C49   C     C_R   0.609910 0.410767 0.920207 -0.201137
C50   C     C_R   0.390089 0.589233 0.079793 -0.201137
H11   H     H_    0.662341 0.364289 0.895593 0.123309
H12   H     H_    0.337657 0.635711 0.104407 0.123309
H13   H     H_    0.644827 0.420879 0.809038 0.113308
H14   H     H_    0.355171 0.579121 0.190962 0.113308
H15   H     H_    0.629911 0.363481 0.996210 0.123939
H16   H     H_    0.370088 0.636519 0.003790 0.123939
C51   C     C_1   0.467261 0.882811 0.885232 -0.218376
C52   C     C_1   0.532739 0.117189 0.114768 -0.218376
C53   C     C_1   0.478688 0.926329 0.928057 -0.002284
C54   C     C_1   0.521312 0.073671 0.071943 -0.002284
C55   C     C_1   0.493581 0.978138 0.978677 -0.003852
C56   C     C_1   0.506419 0.021862 0.021323 -0.003852
H17   H     H_    0.595193 0.363312 0.083923 0.095967
H18   H     H_    0.404809 0.636688 0.916076 0.095967
H19   H     H_    0.419228 0.477042 0.240302 0.107519
H20   H     H_    0.580770 0.522958 0.759698 0.107519

loop_
_geom_bond_atom_site_label_1
_geom_bond_atom_site_label_2
_ccdc_geom_bond_type
C21   H4    S    
C22   H3    S    
C36   C44   A    
O13   V3    S    
C34   C40   A    
C35   C43   A    
C55   C56   T    
O4    C2    A    
V1    O19   S    
C23   C25   A    
C7    C9    S    
C16   C22   A    
C39   C41   A    
O9    V1    S    
C40   C42   A    
C11   C13   S    
C42   C44   A    
O5    V1    S    
O3    C1    A    
C9    C11   T    
C43   C49   A    
O12   V4    S    
C21   C23   A    
C17   C25   A    
C35   C37   A    
O7    C3    A    
C6    C16   S    
O5    C7    A    
O7    V1    S    
O6    C8    A    
O8    V2    S    
O3    V1    S    
C33   C39   A    
C29   H9    S    
O14   V2    S    
C35   H13   S    
C15   C21   A    
C47   H15   S    
C24   C26   A    
C36   H14   S    
C2    O12   A    
C3    C51   S    
C17   C19   A    
C18   C20   A    
O1    V3    S    
C47   C49   A    
O11   V3    S    
C40   H17   S    
C22   C24   A    
C29   C31   A    
O17   V3    S    
C39   H18   S    
C30   C32   A    
C27   C28   A    
O8    C4    A    
C15   C19   A    
C1    O11   A    
C25   C31   A    
O15   V3    S    
C26   C32   A    
C13   C14   T    
C51   C53   T    
C16   C20   A    
C34   C38   A    
O10   V2    S    
C52   C54   T    
C54   C56   S    
C41   C43   A    
C4    C52   S    
C18   C26   A    
O14   V4    S    
C49   H11   S    
C2    C34   S    
C48   C50   A    
C31   H1    S    
O16   C6    A    
O1    C3    A    
C17   H7    S    
C12   C14   S    
C18   H8    S    
C28   C29   A    
V2    O20   S    
O16   V4    S    
C42   C46   A    
C50   H12   S    
C46   C47   A    
C45   C48   A    
C23   C27   A    
O18   V4    S    
C30   H10   S    
C20   H5    S    
O17   C7    A    
O6    V2    S    
C37   H20   S    
O10   C6    A    
O18   C8    A    
C48   H16   S    
O2    V4    S    
C27   C30   A    
O15   C5    A    
V3    O19   S    
V4    O20   S    
C5    C15   S    
O9    C5    A    
O13   V1    S    
C10   C12   T    
C32   H2    S    
C33   C37   A    
C8    C10   S    
O2    C4    A    
C1    C33   S    
C45   C46   A    
O4    V2    S    
C44   C50   A    
C24   C28   A    
C53   C55   S    
C36   C38   A    
C41   C45   A    
C19   H6    S    
C38   H19   S    
