data_mof_unit_42026.cif
_audit_creation_date              2013-03-05T16:00:49-0500
_audit_creation_method            fapswitch 2.2
_symmetry_space_group_name_H-M    P1
_symmetry_Int_Tables_number       1
_space_group_crystal_system       triclinic
_cell_length_a                    14.704214
_cell_length_b                    14.669306
_cell_length_c                    15.878469
_cell_angle_alpha                 76.853378
_cell_angle_beta                  102.707742
_cell_angle_gamma                 114.819145
_cell_volume                      2996.99311039

loop_
_atom_site_label
_atom_site_type_symbol
_atom_site_description
_atom_site_fract_x
_atom_site_fract_y
_atom_site_fract_z
_atom_type_partial_charge
O1    O     O_R   0.977910 0.338120 0.529720 -0.537060
O2    O     O_R   0.839850 0.379180 0.491640 -0.542221
C1    C     C_R   0.880038 0.311634 0.513539 0.854031
O3    O     O_R   0.069060 0.479460 0.639610 -0.575590
O4    O     O_R   0.931000 0.520530 0.601530 -0.592969
C2    C     C_R   0.999623 0.499937 0.659651 0.820998
Cu1   Cu    Cu3+1 0.081750 0.475690 0.522550 0.982601
Cu2   Cu    Cu3+1 0.918250 0.524310 0.477450 0.978563
O5    O     O_R   0.160150 0.620820 0.508360 -0.595869
O6    O     O_R   0.022090 0.661880 0.470280 -0.594986
O7    O     O_R   0.069000 0.479470 0.398470 -0.578898
O8    O     O_R   0.930940 0.520540 0.360390 -0.563858
C3    C     C_R   0.119663 0.687957 0.486101 0.785321
C4    C     C_R   0.000275 0.499870 0.340350 0.832057
C5    C     C_3   0.037360 0.415999 0.976539 -0.133352
C6    C     C_3   0.892157 0.473231 0.935064 -0.409213
C7    C     C_3   0.892459 0.472670 0.032863 -0.360654
H1    H     H_    0.991573 0.341822 0.105603 0.165336
H2    H     H_    0.980188 0.340477 0.961393 0.137335
H3    H     H_    0.862742 0.530191 0.894178 0.180347
H4    H     H_    0.839812 0.397635 0.916662 0.172247
H5    H     H_    0.840899 0.396542 0.061555 0.182117
H6    H     H_    0.862833 0.529084 0.038772 0.175604
C8    C     C_1   0.000820 0.499339 0.250899 -0.148639
C9    C     C_3   0.000614 0.498677 0.917565 0.224123
C10   C     C_3   0.039977 0.418339 0.074681 -0.418658
C11   C     C_3   0.001064 0.498472 0.083409 0.281937
C12   C     C_3   0.071149 0.604209 0.041480 -0.365952
C13   C     C_3   0.068865 0.605224 0.943312 -0.350168
C14   C     C_1   0.001037 0.498898 0.175478 -0.085865
C15   C     C_1   0.999185 0.499484 0.824831 -0.089695
C16   C     C_1   0.998920 0.499852 0.749163 -0.137427
H7    H     H_    0.146976 0.630185 0.928647 0.206222
H8    H     H_    0.039020 0.662440 0.903745 0.166300
H9    H     H_    0.150147 0.623256 0.075492 0.185743
H10   H     H_    0.117767 0.435862 0.111239 0.190901
H11   H     H_    0.046451 0.663758 0.048796 0.165615
C17   C     C_R   0.811863 0.203016 0.529958 -0.285270
C18   C     C_R   0.187024 0.796066 0.481332 -0.053759
C19   C     C_R   0.777415 0.033718 0.613303 -0.242838
C20   C     C_R   0.846553 0.130978 0.587143 0.320683
C21   C     C_R   0.707683 0.172546 0.495701 0.217131
C22   C     C_R   0.637208 0.079370 0.533146 -0.009445
C23   C     C_R   0.673837 0.007589 0.587347 0.049704
C24   C     C_R   0.530941 0.053897 0.515845 0.095886
C25   C     C_R   0.463789 0.951210 0.535235 0.064764
C26   C     C_R   0.503676 0.880259 0.585770 -0.209257
C27   C     C_R   0.606743 0.909204 0.613654 -0.159559
C28   C     C_R   0.490010 0.128944 0.486235 -0.146398
C29   C     C_R   0.386123 0.102803 0.465730 -0.219514
C30   C     C_R   0.320021 0.000868 0.472826 0.149344
C31   C     C_R   0.358521 0.923950 0.506520 0.085751
C32   C     C_R   0.215682 0.974766 0.447043 -0.166812
C33   C     C_R   0.149439 0.872916 0.451827 -0.182880
C34   C     C_R   0.290876 0.822135 0.507891 -0.243719
H12   H     H_    0.634279 0.853489 0.654681 0.144884
H13   H     H_    0.318236 0.761767 0.526784 0.153052
H14   H     H_    0.069238 0.854416 0.431317 0.157803
H15   H     H_    0.357570 0.162643 0.443140 0.161677
H16   H     H_    0.805115 0.978298 0.654778 0.177245
H17   H     H_    0.456429 0.803130 0.609186 0.142245
H18   H     H_    0.537362 0.208709 0.483185 0.187890
H19   H     H_    0.185456 0.033165 0.422542 0.150623
N1    N     N_R   0.795410 0.560790 0.443550 -0.174625
N2    N     N_R   0.204590 0.439170 0.556520 -0.192735
C35   C     C_R   0.714138 0.666323 0.353235 -0.299283
C36   C     C_R   0.796535 0.638044 0.377373 0.093164
C37   C     C_R   0.714534 0.508739 0.487984 0.076341
C38   C     C_R   0.627691 0.533425 0.466400 -0.024519
C39   C     C_R   0.629731 0.614660 0.397601 0.157269
C40   C     C_R   0.540254 0.481791 0.510663 0.079700
C41   C     C_R   0.457070 0.513893 0.485808 0.078899
C42   C     C_R   0.463705 0.595692 0.417021 -0.223337
C43   C     C_R   0.548070 0.644455 0.373810 -0.173639
C44   C     C_R   0.533184 0.399333 0.578869 -0.231218
C45   C     C_R   0.449413 0.351492 0.622883 -0.187980
C46   C     C_R   0.368744 0.382816 0.600394 0.142630
C47   C     C_R   0.370354 0.463395 0.531035 -0.020185
C48   C     C_R   0.285944 0.333682 0.646873 -0.284616
C49   C     C_R   0.204616 0.363631 0.624099 0.161459
C50   C     C_R   0.284163 0.489157 0.510363 0.004546
H20   H     H_    0.549628 0.706858 0.321370 0.150309
H21   H     H_    0.277621 0.547774 0.457647 0.127093
H22   H     H_    0.140749 0.326013 0.659982 0.182087
H23   H     H_    0.447802 0.289030 0.675272 0.147518
H24   H     H_    0.716578 0.728546 0.300445 0.145205
H25   H     H_    0.861987 0.678103 0.343492 0.123054
H26   H     H_    0.720552 0.449372 0.540114 0.119882
H27   H     H_    0.404835 0.624566 0.394834 0.135609
H28   H     H_    0.591427 0.369518 0.600187 0.131899
H29   H     H_    0.284049 0.272360 0.700441 0.159196
C51   C     C_2   0.137482 0.423444 0.958484 0.850459
O9    O     O_2   0.216110 0.494837 0.977229 -0.603011
O10   O     O_R   0.139404 0.347261 0.920500 -0.749869
H30   H     H_    0.210090 0.360138 0.911164 0.338980
N3    N     N_R   0.951877 0.152981 0.616458 0.123415
O11   O     O_R   0.010237 0.165044 0.560498 -0.355752
O12   O     O_R   0.982998 0.135439 0.699498 -0.378698
N4    N     N_R   0.678150 0.219155 0.409815 0.126346
O13   O     O_R   0.643625 0.166119 0.345937 -0.339978
O14   O     O_R   0.672718 0.307663 0.396809 -0.361164

loop_
_geom_bond_atom_site_label_1
_geom_bond_atom_site_label_2
_geom_bond_distance
_ccdc_geom_bond_type
C9    C15   1.465404 S    
C2    C16   1.423322 S    
C6    H4    1.113306 S    
C19   H16   1.084864 S    
C25   C31   1.420044 A    
C42   C43   1.388386 A    
H1    C10   1.113516 S    
C49   H22   1.080925 S    
Cu1   Cu2   2.692787 S    
C32   C33   1.394980 A    
C5    H2    1.114585 S    
C10   C11   1.549842 S    
C7    H6    1.113282 S    
C29   H15   1.084155 S    
N1    C37   1.362657 A    
C12   C13   1.548521 S    
C17   C21   1.418273 A    
O4    C2    1.296345 A    
O7    C4    1.296295 A    
C5    C9    1.565463 S    
C18   C33   1.401669 A    
C13   H7    1.110547 S    
Cu1   O5    1.935941 S    
C4    C8    1.423934 S    
C38   C40   1.434753 A    
O5    C3    1.300217 A    
C41   C47   1.434658 A    
C44   H28   1.076517 S    
C5    C51   1.515913 S    
C18   C34   1.398492 A    
C15   C16   1.199434 T    
C12   H9    1.113205 S    
C37   C38   1.420707 A    
N3    O12   1.301249 A    
C39   C43   1.393372 A    
C26   C27   1.386801 A    
C48   H29   1.083865 S    
C31   C34   1.402895 A    
C6    H3    1.113467 S    
C35   C36   1.390059 A    
N2    C49   1.355957 A    
C11   C14   1.463432 S    
C38   C39   1.416539 A    
C43   H20   1.084372 S    
O3    Cu1   1.923739 S    
C50   H21   1.075121 S    
C46   C48   1.401112 A    
C9    C13   1.552593 S    
C30   C31   1.417135 A    
C7    C11   1.550655 S    
N1    C36   1.356066 A    
C45   C46   1.393649 A    
C1    C17   1.482142 S    
C17   C20   1.419046 A    
O3    C2    1.295338 A    
C6    C7    1.550085 S    
C5    C10   1.558174 S    
C24   C25   1.418792 A    
C13   H8    1.113462 S    
O1    C1    1.304365 A    
Cu1   O7    1.927807 S    
C44   C45   1.388579 A    
C35   H24   1.083865 S    
Cu1   N2    2.023071 S    
N2    C50   1.362504 A    
N4    O13   1.301013 A    
C24   C28   1.411227 A    
Cu2   O8    1.923741 S    
N3    O11   1.301442 A    
C51   O10   1.397903 S    
C29   C30   1.394556 A    
C22   C24   1.422817 A    
Cu2   N1    2.022718 S    
C10   H10   1.113709 S    
C19   C20   1.392903 A    
N4    O14   1.300987 A    
O8    C4    1.295662 A    
C34   H13   1.077588 S    
C22   C23   1.414027 A    
C37   H26   1.075176 S    
C21   C22   1.417000 A    
C33   H14   1.083054 S    
C6    C9    1.551746 S    
C27   H12   1.084371 S    
C25   C26   1.413019 A    
C28   H18   1.077662 S    
O1    Cu1   1.949883 S    
O2    Cu2   1.935940 S    
C41   C42   1.412352 A    
O6    C3    1.300888 A    
C26   H17   1.078620 S    
O4    Cu2   1.927807 S    
C36   H25   1.081753 S    
C7    H5    1.113201 S    
O2    C1    1.302441 A    
C42   H27   1.076378 S    
C40   C41   1.435364 A    
C21   N4    1.442362 S    
C40   C44   1.412421 A    
C32   H19   1.083862 S    
C47   C50   1.421057 A    
C35   C39   1.401142 A    
C12   H11   1.113321 S    
C51   O9    1.223110 D    
O10   H30   1.013996 S    
C8    C14   1.199775 T    
C3    C18   1.470209 S    
C48   C49   1.390125 A    
C20   N3    1.432081 S    
C19   C23   1.393575 A    
Cu2   O6    1.949883 S    
C28   C29   1.390234 A    
C11   C12   1.549631 S    
C46   C47   1.416501 A    
C30   C32   1.403520 A    
C45   H23   1.084359 S    
C23   C27   1.393729 A    
