data_mof_unit_63429.cif
_audit_creation_date              2013-03-05T16:17:08-0500
_audit_creation_method            fapswitch 2.2
_symmetry_space_group_name_H-M    P1
_symmetry_Int_Tables_number       1
_space_group_crystal_system       triclinic
_cell_length_a                    8.618579
_cell_length_b                    19.321196
_cell_length_c                    18.913094
_cell_angle_alpha                 101.847759
_cell_angle_beta                  93.848749
_cell_angle_gamma                 92.285192
_cell_volume                      3070.74096471

loop_
_atom_site_label
_atom_site_type_symbol
_atom_site_description
_atom_site_fract_x
_atom_site_fract_y
_atom_site_fract_z
_atom_type_partial_charge
P1    P     P_3+3 0.945300 0.665790 0.568510 0.609233
O1    O     O_2   0.117290 0.676350 0.548250 -0.340228
O2    O     O_3   0.869060 0.586940 0.542720 -0.324328
O3    O     O_3   0.356990 0.628630 0.417250 -0.308915
O4    O     O_2   0.314542 0.759133 0.481255 -0.298674
O5    O     O_3   0.921391 0.703093 0.663807 -0.575671
O6    O     O_3   0.331373 0.745834 0.344383 -0.533688
C1    C     C_3   0.421538 0.777749 0.236360 -0.157268
P2    P     P_3+3 0.360080 0.438780 0.334620 0.545200
P3    P     P_3+3 0.893569 0.578136 0.285486 0.571702
O7    O     O_2   0.186600 0.460070 0.325400 -0.367426
O8    O     O_3   0.942970 0.591450 0.378940 -0.358372
O9    O     O_2   0.971416 0.510047 0.249818 -0.332572
O10   O     O_3   0.381207 0.351755 0.284384 -0.561403
O11   O     O_3   0.986106 0.645579 0.250205 -0.419008
C2    C     C_3   0.917268 0.711039 0.272737 0.621996
C3    C     C_3   0.958299 0.764831 0.225479 -0.016906
C4    C     C_3   0.804379 0.371109 0.304900 0.204183
C5    C     C_3   0.847936 0.349395 0.226723 -0.054180
Ba1   Ba    Ba6+2 0.153490 0.533960 0.468530 1.736322
C6    C     C_3   0.978981 0.670737 0.720842 0.699043
C7    C     C_3   0.923600 0.702762 0.798026 0.284971
H1    H     H_    0.958550 0.760211 0.812527 0.155804
C8    C     C_3   0.285579 0.296999 0.299764 0.113732
C9    C     C_3   0.274664 0.232272 0.235554 0.639494
P4    P     P_3+3 0.865000 0.334200 0.431430 0.591442
O12   O     O_2   0.693010 0.323600 0.451730 -0.300557
O13   O     O_3   0.941240 0.413050 0.457220 -0.337964
O14   O     O_3   0.453310 0.371360 0.582690 -0.274327
O15   O     O_3   0.850295 0.315470 0.336942 -0.547157
P5    P     P_3+3 0.897474 0.410508 0.714881 0.650687
O16   O     O_3   0.371310 0.539060 0.587050 -0.291237
O17   O     O_3   0.867330 0.408540 0.621000 -0.295125
O18   O     O_2   0.771954 0.458234 0.750348 -0.247260
O19   O     O_3   0.841318 0.326760 0.728793 -0.440257
Ba2   Ba    Ba6+2 0.656680 0.466030 0.531410 1.786555
P6    P     P_3+3 0.412345 0.719190 0.421561 0.538148
C10   C     C_3   0.417071 0.722264 0.284173 0.642966
O20   O     O_3   0.438990 0.460930 0.412890 -0.342967
C11   C     C_3   0.474004 0.692353 0.649605 0.570653
H2    H     H_    0.352993 0.699708 0.631401 0.144984
C12   C     C_3   0.555497 0.765110 0.680938 -0.137826
H3    H     H_    0.498053 0.791052 0.729624 0.227951
P7    P     P_3+3 0.448401 0.562269 0.678934 0.628001
O21   O     O_2   0.623700 0.539890 0.674570 -0.263446
O22   O     O_3   0.480311 0.654012 0.705421 -0.530684
C13   C     C_3   0.965269 0.282195 0.714034 0.148932
H4    H     H_    0.061773 0.298357 0.757454 0.061089
C14   C     C_3   0.906298 0.206219 0.712981 0.371252
P8    P     P_3+3 0.424619 0.277888 0.571629 0.623027
C15   C     C_3   0.409673 0.278293 0.710443 0.578620
O23   O     O_2   0.551599 0.251890 0.520629 -0.264358
O24   O     O_3   0.493529 0.249281 0.650924 -0.457469
H5    H     H_    0.333615 0.248346 0.807879 0.077317
C16   C     C_3   0.437766 0.241521 0.776039 0.368944
C17   C     C_R   0.006813 0.954836 0.526645 0.018866
C18   C     C_R   0.092875 0.914245 0.566708 -0.021914
C19   C     C_R   0.241489 0.941161 0.596620 -0.121910
C20   C     C_R   0.308287 0.003253 0.583939 0.418612
C21   C     C_R   0.215992 0.048994 0.551295 -0.102542
C22   C     C_R   0.063232 0.024828 0.523329 0.015357
C23   C     C_R   0.275298 0.114297 0.539516 0.393238
C24   C     C_R   0.175254 0.164869 0.520429 -0.145932
C25   C     C_R   0.024324 0.139796 0.487052 -0.000448
C26   C     C_R   0.973562 0.067749 0.485901 0.068263
C27   C     C_R   0.229975 0.236221 0.523457 0.124617
C28   C     C_R   0.134829 0.279166 0.489556 -0.029858
C29   C     C_R   0.979255 0.259624 0.461722 0.190667
C30   C     C_R   0.928261 0.184621 0.452270 -0.111286
C31   C     C_R   0.865940 0.925566 0.489843 0.031055
C32   C     C_R   0.813670 0.853940 0.490209 0.048319
C33   C     C_R   0.901588 0.810837 0.530366 -0.101829
C34   C     C_R   0.033844 0.846718 0.574780 0.375442
C35   C     C_R   0.796024 0.149200 0.405823 0.367423
C36   C     C_R   0.755039 0.075757 0.401224 0.026706
C37   C     C_R   0.836203 0.037221 0.445968 0.020102
C38   C     C_R   0.782321 0.966614 0.448333 0.086090
C39   C     C_R   0.627589 0.039803 0.354741 -0.018233
C40   C     C_R   0.569739 0.973230 0.360979 -0.169950
C41   C     C_R   0.644019 0.936949 0.408854 0.129814
C42   C     C_R   0.670331 0.826253 0.451359 0.081631
C43   C     C_R   0.583613 0.870427 0.415440 -0.246506
C44   C     C_R   0.622144 0.754159 0.445889 0.142433
C45   C     C_R   0.732486 0.709099 0.465978 -0.380823
C46   C     C_R   0.856273 0.734623 0.518425 0.367218
H6    H     H_    0.708065 0.652708 0.449191 0.156687
N1    N     N_R   0.386922 0.566184 0.982776 0.005183
N2    N     N_R   0.435608 0.568461 0.051656 0.017021
C47   C     C_2   0.586973 0.531075 0.306656 -0.464214
C48   C     C_3   0.678388 0.570641 0.260366 0.024447
C49   C     C_2   0.633272 0.547919 0.179447 0.338927
C50   C     C_2   0.494170 0.512736 0.156206 -0.062242
C51   C     C_2   0.404456 0.482896 0.209631 -0.138070
C52   C     C_1   0.459900 0.491433 0.278740 0.347008
N3    N     N_R   0.366246 0.448105 0.038004 -0.009841
N4    N     N_R   0.317177 0.445867 0.969029 -0.014448
C53   C     C_R   0.326746 0.504712 0.939907 0.264890
C54   C     C_R   0.427671 0.509513 0.080626 0.273969
C55   C     C_R   0.366021 0.533992 0.817918 -0.185029
C56   C     C_R   0.331158 0.520281 0.742202 0.228584
C57   C     C_R   0.094658 0.449810 0.757431 0.037473
C58   C     C_R   0.131921 0.463056 0.832698 0.232921
C59   C     C_R   0.273319 0.501233 0.862723 -0.051987
C60   C     C_R   0.201820 0.473587 0.713536 0.024917
H7    H     H_    0.293185 0.454670 0.191119 0.181129
Br1   Br    Br    0.305857 0.639194 0.227518 -0.421018
H8    H     H_    0.829253 0.290913 0.208460 0.240127
Br2   Br    Br    0.724239 0.386007 0.155829 -0.400015
H9    H     H_    0.972873 0.364648 0.224012 0.167991
Br3   Br    Br    0.192867 0.691771 0.742228 -0.479975
Br4   Br    Br    0.943022 0.573144 0.695647 -0.387476
Br5   Br    Br    0.015554 0.659136 0.875001 -0.302620
Br6   Br    Br    0.709902 0.698501 0.816562 -0.360201
H10   H     H_    0.166526 0.314118 0.311120 0.097876
H11   H     H_    0.345847 0.278976 0.346047 0.144823
H12   H     H_    0.302804 0.782400 0.211378 0.199380
Br7   Br    Br    0.119525 0.240993 0.159323 -0.359749
Br8   Br    Br    0.220784 0.146442 0.269619 -0.445246
Br9   Br    Br    0.469303 0.219426 0.189338 -0.262049
H13   H     H_    0.538279 0.710238 0.299435 -0.055096
Br10  Br    Br    0.553560 0.750115 0.157632 -0.396739
Br11  Br    Br    0.562155 0.646878 0.565557 -0.439238
H14   H     H_    0.679329 0.759620 0.696626 0.203592
Br12  Br    Br    0.552325 0.828490 0.615510 -0.492539
H15   H     H_    0.464826 0.831391 0.267394 0.105546
H16   H     H_    0.865665 0.803674 0.227317 0.126460
H17   H     H_    0.009542 0.284209 0.660162 0.064907
Br13  Br    Br    0.781366 0.168166 0.624225 -0.336353
Br14  Br    Br    0.073393 0.144115 0.717960 -0.465047
H18   H     H_    0.836926 0.204378 0.759912 0.187146
H19   H     H_    0.283074 0.273175 0.693807 -0.118402
Br15  Br    Br    0.473027 0.376295 0.743431 -0.461593
Br16  Br    Br    0.614475 0.278769 0.845538 -0.288801
Br17  Br    Br    0.999703 0.753362 0.369554 -0.542244
Br18  Br    Br    0.463128 0.141593 0.748870 -0.271293
H20   H     H_    0.313590 0.912138 0.626918 0.235639
Br19  Br    Br    0.528551 0.015118 0.610944 -0.304349
Br20  Br    Br    0.237851 0.355957 0.460269 -0.388427
Br21  Br    Br    0.461825 0.107310 0.492439 -0.446981
Br22  Br    Br    0.122529 0.818227 0.658499 -0.436648
Br23  Br    Br    0.667873 0.193262 0.342804 -0.413678
H21   H     H_    0.561481 0.063576 0.316474 0.207288
H22   H     H_    0.465247 0.950409 0.328213 0.148521
H23   H     H_    0.471267 0.852829 0.389205 0.171083
H24   H     H_    0.788330 0.704536 0.271011 -0.038352
Br24  Br    Br    0.773833 0.567444 0.109426 -0.276935
H25   H     H_    0.469269 0.566533 0.841179 0.208265
Br25  Br    Br    0.986083 0.431963 0.894433 -0.314149
H26   H     H_    0.617108 0.542608 0.364630 0.160775
Br26  Br    Br    0.169825 0.439089 0.613644 -0.386389
H27   H     H_    0.067703 0.796038 0.246666 0.122733
Br27  Br    Br    0.985517 0.723989 0.125219 -0.222738
H28   H     H_    0.676985 0.375478 0.306544 0.133196
H29   H     H_    0.866408 0.422327 0.331072 0.114076

loop_
_geom_bond_atom_site_label_1
_geom_bond_atom_site_label_2
_geom_bond_distance
_ccdc_geom_bond_type
C55   C59   1.424024 A    
N1    N2    1.332942 A    
C8    H10   1.111680 S    
C57   C58   1.406246 A    
O4    P6    1.550042 D    
C12   Br12  1.911020 S    
N3    N4    1.335599 A    
P2    O20   1.555165 S    
C36   C37   1.407360 A    
C2    Br17  1.921089 S    
C9    Br8   1.948914 S    
C33   C46   1.475680 A    
C48   C49   1.522093 S    
N3    C54   1.355605 A    
C50   C54   1.492072 S    
C13   C14   1.529933 S    
C11   O22   1.408086 S    
O14   Ba2   2.838932 S    
P4    O12   1.571965 D    
C51   C52   1.336147 D    
C26   C37   1.400413 A    
C21   C22   1.409692 A    
O16   Ba2   3.026868 S    
C58   Br25  1.931028 S    
C45   H6    1.078366 S    
C4    C5    1.528220 S    
P3    O11   1.767751 S    
C39   H21   1.077704 S    
C3    H16   1.114745 S    
C20   Br19  1.924648 S    
C18   C34   1.422550 A    
O11   C2    1.416213 S    
C56   C60   1.410060 A    
O17   Ba2   2.814540 S    
C17   C18   1.397976 A    
C21   C23   1.407869 A    
P1    O1    1.571603 D    
O10   C8    1.404325 S    
C47   C52   1.324488 D    
C28   Br20  1.896037 S    
C51   H7    1.083732 S    
C7    Br6   1.899536 S    
C40   H22   1.081988 S    
C44   C45   1.400023 A    
C29   C30   1.468821 A    
P8    O23   1.538504 D    
P5    O17   1.769509 S    
C31   C32   1.439731 A    
C4    O15   1.395965 S    
C23   Br21  1.885601 S    
C4    H29   1.109634 S    
C10   H13   1.111316 S    
C5    Br2   1.921576 S    
C11   C12   1.530998 S    
C27   C28   1.405048 A    
C24   C27   1.427721 A    
O19   C13   1.405438 S    
C20   C21   1.417462 A    
C6    C7    1.577297 S    
C31   C38   1.410679 A    
C3    H27   1.103603 S    
C1    C10   1.538806 S    
C9    Br9   1.944382 S    
C42   C44   1.418582 A    
P7    O22   1.745479 S    
C12   H14   1.103529 S    
C6    Br3   1.870702 S    
O14   P8    1.780117 S    
C5    H9    1.112318 S    
P1    C46   1.938010 S    
O7    Ba1   2.827876 S    
P8    O24   1.776051 S    
C35   C36   1.432175 A    
C24   C25   1.428003 A    
O1    Ba1   2.892707 S    
C28   C29   1.414477 A    
Ba2   O21   2.827973 S    
C8    C9    1.548966 S    
C43   H23   1.067384 S    
C49   C50   1.354315 D    
Ba1   O20   3.027828 S    
C15   H19   1.109870 S    
C39   C40   1.391418 A    
C2    C3    1.548781 S    
Ba1   O13   2.872460 S    
C19   H20   1.068120 S    
C19   C20   1.381958 A    
C16   Br16  1.954627 S    
O5    C6    1.424973 S    
C14   Br14  1.920583 S    
C42   C43   1.403344 A    
P1    O5    1.827227 S    
C2    H24   1.110885 S    
C15   O24   1.409297 S    
O3    Ba1   2.839621 S    
C10   Br1   1.917353 S    
P2    O10   1.776158 S    
C23   C24   1.413772 A    
P8    C27   1.917893 S    
C6    Br4   1.855597 S    
P2    Ba1   3.452600 S    
C13   H4    1.116229 S    
N4    C53   1.363302 A    
O8    Ba1   2.813846 S    
O16   P7    1.778696 S    
P5    O18   1.547108 D    
O2    Ba1   3.016299 S    
C17   C22   1.433749 A    
C25   C30   1.444396 A    
C45   C46   1.407296 A    
P2    O7    1.574355 D    
P3    C48   1.875661 S    
C53   C59   1.488126 S    
C4    H28   1.106569 S    
P3    O8    1.753592 S    
C41   C43   1.399845 A    
C11   H2    1.100081 S    
C35   Br23  1.918389 S    
P4    O15   1.743847 S    
C57   C60   1.406755 A    
C17   C31   1.395905 A    
P5    O19   1.746777 S    
C3    Br27  1.932211 S    
C12   H3    1.111619 S    
P5    C57   1.890759 S    
P7    O21   1.590774 D    
Ba1   O16   2.808607 S    
C38   C41   1.398980 A    
P4    Ba2   3.482768 S    
C14   Br13  1.924888 S    
C55   H25   1.081641 S    
H5    C16   1.111381 S    
P1    Ba1   3.482116 S    
C7    H1    1.111415 S    
Ba2   O20   2.807920 S    
C33   C34   1.433465 A    
P3    O9    1.550048 D    
C9    Br7   1.937483 S    
C15   Br15  1.912981 S    
C60   Br26  1.867608 S    
C13   H17   1.119162 S    
C34   Br22  1.903508 S    
C32   C42   1.419945 A    
O12   Ba2   2.893318 S    
C11   Br11  1.875600 S    
C14   H18   1.108661 S    
P4    O13   1.600831 S    
C55   C56   1.411121 A    
P4    C29   1.936618 S    
C25   C26   1.437827 A    
C32   C33   1.441307 A    
C37   C38   1.433882 A    
P7    C56   1.899105 S    
C18   C19   1.399952 A    
O2    Ba2   2.873132 S    
C16   Br18  1.918561 S    
C47   H26   1.084515 S    
C50   C51   1.503258 S    
O6    C10   1.405864 S    
C15   C16   1.561373 S    
C58   C59   1.419533 A    
C1    Br10  1.935534 S    
C36   C39   1.421530 A    
C1    H12   1.112810 S    
C40   C41   1.392733 A    
Ba1   Ba2   4.727272 S    
C22   C26   1.415906 A    
C1    H15   1.117072 S    
O3    P6    1.779172 S    
O13   Ba2   3.017260 S    
C8    H11   1.111705 S    
C30   C35   1.447582 A    
P6    C44   1.897608 S    
O6    P6    1.755868 S    
P1    O2    1.600829 S    
C47   C48   1.513600 S    
P2    C52   1.840059 S    
C49   Br24  1.935916 S    
N2    C54   1.362774 A    
C7    Br5   1.964774 S    
N1    C53   1.354993 A    
C5    H8    1.113451 S    
