data_mof_unit_35737.cif
_audit_creation_date              2012-12-10T18:47:48-0500
_audit_creation_method            fapswitch 2.2
_symmetry_space_group_name_H-M    P1
_symmetry_Int_Tables_number       1
_space_group_crystal_system       triclinic
_cell_length_a                    9.876507
_cell_length_b                    10.63207
_cell_length_c                    15.60878
_cell_angle_alpha                 90.850006
_cell_angle_beta                  67.951639
_cell_angle_gamma                 90.371659
_cell_volume                      1519.00685126

loop_
_atom_site_label
_atom_site_type_symbol
_atom_type_description
_atom_site_fract_x
_atom_site_fract_y
_atom_site_fract_z
_atom_type_partial_charge
C1    C     C_R   0.500857 0.739644 0.499279 1.030218
C2    C     C_R   0.387145 0.934835 0.567628 0.630139
C3    C     C_R   0.498371 0.128014 0.500965 -0.446091
C4    C     C_R   0.501629 0.871986 0.499034 -0.446092
C5    C     C_R   0.959784 0.418863 0.444236 0.622992
C6    C     C_R   0.040216 0.581137 0.555764 0.622991
C7    C     C_R   0.103284 0.418387 0.444208 0.268747
C8    C     C_R   0.896716 0.581612 0.555793 0.268742
C9    C     C_R   0.408824 0.499002 0.675863 1.014785
C10   C     C_R   0.591176 0.500997 0.324137 1.014784
C11   C     C_R   0.352765 0.503019 0.777068 -0.435396
C12   C     C_R   0.499143 0.260356 0.500721 1.030218
C13   C     C_R   0.647235 0.496979 0.222932 -0.435394
C14   C     C_R   0.175658 0.580555 0.921990 0.695788
C15   C     C_R   0.824344 0.419449 0.078009 0.695786
C16   C     C_R   0.211313 0.545651 0.829596 0.565049
C17   C     C_R   0.788688 0.454353 0.170403 0.565051
C18   C     C_R   0.448988 0.476055 0.821136 0.640934
C19   C     C_R   0.551009 0.523937 0.178865 0.640938
C20   C     C_R   0.407886 0.495921 0.916131 -0.123383
C21   C     C_R   0.592112 0.504076 0.083869 -0.123383
C22   C     C_R   0.279789 0.567162 0.963475 -0.317230
C23   C     C_R   0.389279 0.632019 0.072423 0.424034
C24   C     C_R   0.720211 0.432838 0.036525 -0.317229
C25   C     C_R   0.504484 0.465103 0.960405 -0.035403
C26   C     C_R   0.495514 0.534893 0.039596 -0.035398
C27   C     C_R   0.610717 0.367975 0.927580 0.424038
C28   C     C_R   0.270987 0.635572 0.043473 0.434300
C29   C     C_R   0.729010 0.364425 0.956528 0.434290
C30   C     C_R   0.614948 0.935800 0.430953 0.258881
C31   C     C_R   0.385052 0.064200 0.569047 0.258881
C32   C     C_R   0.612855 0.065165 0.432372 0.630138
Cl1   Cl    Cl    0.126346 0.741526 0.100303 -0.268420
Cl2   Cl    Cl    0.873649 0.258467 0.899700 -0.268422
Cl3   Cl    Cl    0.418486 0.764793 0.133833 -0.348666
Cl4   Cl    Cl    0.581502 0.235194 0.866177 -0.348651
Cl5   Cl    Cl    0.755903 0.856664 0.341238 -0.353756
Cl6   Cl    Cl    0.244097 0.143336 0.658762 -0.353757
Cl7   Cl    Cl    0.229008 0.310097 0.371224 -0.347787
Cl8   Cl    Cl    0.770991 0.689902 0.628777 -0.347795
F1    F     F_    0.408836 0.550981 0.230354 -0.579360
F2    F     F_    0.076564 0.661932 0.611701 -0.485415
F3    F     F_    0.591160 0.448996 0.769646 -0.579361
F4    F     F_    0.886909 0.432995 0.210387 -0.506549
F5    F     F_    0.113094 0.567014 0.789611 -0.506547
F6    F     F_    0.042849 0.633428 0.967616 -0.544971
F7    F     F_    0.957155 0.366580 0.032381 -0.544975
F8    F     F_    0.719611 0.129848 0.365972 -0.516234
F9    F     F_    0.280389 0.870152 0.634028 -0.516232
F10   F     F_    0.923436 0.338068 0.388299 -0.485416
N1    N     N_R   0.142780 0.500030 0.500020 -0.238842
N2    N     N_R   0.857220 0.499970 0.499980 -0.238840
O1    O     O_R   0.385370 0.683250 0.500010 -0.550828
O2    O     O_R   0.614630 0.316750 0.499990 -0.550827
O3    O     O_R   0.614700 0.683220 0.500000 -0.581083
O4    O     O_R   0.385300 0.316780 0.500000 -0.581084
O5    O     O_R   0.319830 0.500020 0.632250 -0.533534
O6    O     O_R   0.680170 0.499980 0.367750 -0.533535
O7    O     O_R   0.549160 0.499990 0.632240 -0.543211
O8    O     O_R   0.450840 0.500010 0.367760 -0.543208
Zn1   Zn    Zn3+2 0.346870 0.500020 0.500000 1.170293
Zn2   Zn    Zn3+2 0.653130 0.499980 0.500000 1.170293

loop_
_geom_bond_atom_site_label_1
_geom_bond_atom_site_label_2
_ccdc_geom_bond_type
C16   F5    S    
O6    Zn2   S    
C2    C4    A    
C21   C26   A    
C5    C7    A    
C11   C18   A    
O5    Zn1   S    
O4    Zn1   S    
C2    F9    S    
C15   F7    S    
C27   Cl4   S    
C27   C29   A    
C32   F8    S    
C11   C16   A    
C8    N2    A    
C10   O8    A    
N1    Zn1   S    
C31   Cl6   S    
C13   C17   A    
C1    C4    S    
C14   C22   A    
C1    O3    A    
C17   F4    S    
C7    N1    A    
C5    N2    A    
C22   C28   A    
C23   C28   A    
C3    C31   A    
C9    C11   S    
C12   O4    A    
C6    C8    A    
C15   C24   A    
C10   O6    A    
C20   C22   A    
C28   Cl1   S    
C18   C20   A    
C3    C32   A    
C6    N1    A    
C23   Cl3   S    
C14   C16   A    
C5    F10   S    
C21   C24   A    
C4    C30   A    
C25   C27   A    
C20   C25   A    
C13   C19   A    
C30   C32   A    
O3    Zn2   S    
C8    Cl8   S    
C9    O5    A    
C14   F6    S    
C6    F2    S    
C23   C26   A    
C15   C17   A    
C1    O1    A    
C24   C29   A    
C2    C31   A    
O7    Zn2   S    
C7    Cl7   S    
C3    C12   S    
O2    Zn2   S    
C19   C21   A    
C25   C26   A    
C18   F3    S    
O1    Zn1   S    
C29   Cl2   S    
N2    Zn2   S    
C12   O2    A    
C19   F1    S    
C30   Cl5   S    
O8    Zn1   S    
C9    O7    A    
C10   C13   S    
