data_mof_unit_32056.cif
_audit_creation_date              2012-12-11T15:45:02-0500
_audit_creation_method            fapswitch 2.2
_symmetry_space_group_name_H-M    P1
_symmetry_Int_Tables_number       1
_space_group_crystal_system       triclinic
_cell_length_a                    6.953341
_cell_length_b                    16.816673
_cell_length_c                    17.11697
_cell_angle_alpha                 100.197079
_cell_angle_beta                  89.449648
_cell_angle_gamma                 90.344111
_cell_volume                      1969.79808942

loop_
_atom_site_label
_atom_site_type_symbol
_atom_type_description
_atom_site_fract_x
_atom_site_fract_y
_atom_site_fract_z
_atom_type_partial_charge
O1    O     O_R   0.494370 0.415690 0.413450 -0.523078
O2    O     O_R   0.819420 0.429360 0.578420 -0.531707
O3    O     O_R   0.994280 0.584310 0.586550 -0.562823
C1    C     C_R   0.650327 0.412962 0.604099 0.860618
O4    O     O_R   0.823790 0.406230 0.413570 -0.510586
O5    O     O_R   0.998670 0.561000 0.420530 -0.540952
C2    C     C_R   0.655375 0.383267 0.385005 0.905026
O6    O     O_R   0.489970 0.439000 0.579470 -0.534347
O7    O     O_3   0.662300 0.550810 0.502470 -0.392371
V1    V     V_3+5 0.935380 0.490570 0.499540 1.653170
O8    O     O_R   0.328650 0.570640 0.421580 -0.506510
C3    C     C_R   0.159837 0.585792 0.394537 0.846521
O9    O     O_R   0.324290 0.593770 0.586430 -0.526921
C4    C     C_R   0.152938 0.617983 0.613834 0.768304
V2    V     V_3+5 0.435930 0.509430 0.500460 1.663041
O10   O     O_3   0.159140 0.449190 0.497530 -0.359972
C5    C     C_R   0.296069 0.718918 0.723622 0.354011
C6    C     C_R   0.285253 0.793782 0.774304 0.310103
C7    C     C_R   0.111700 0.816075 0.814130 -0.260335
C8    C     C_R   0.942319 0.776379 0.780701 0.265149
C9    C     C_R   0.953762 0.723463 0.707125 0.267736
C10   C     C_R   0.134005 0.688538 0.680470 -0.272804
C11   C     C_R   0.142255 0.635399 0.330605 -0.235072
C12   C     C_R   0.117558 0.864132 0.168802 -0.274203
C13   C     C_R   0.204962 0.852136 0.304577 0.300752
C14   C     C_R   0.197827 0.897347 0.242587 0.318657
C15   C     C_R   0.054997 0.783048 0.155377 0.371150
C16   C     C_R   0.065934 0.735728 0.216713 -0.141141
C17   C     C_R   0.167047 0.767375 0.287536 -0.132786
C18   C     C_R   0.225232 0.713213 0.338395 0.296018
C19   C     C_R   0.017477 0.608863 0.266648 0.304888
C20   C     C_R   0.979696 0.657939 0.210093 0.453071
C21   C     C_R   0.642608 0.362172 0.666829 -0.281828
C22   C     C_R   0.629543 0.135651 0.830999 -0.250615
C23   C     C_R   0.702090 0.145864 0.692800 0.440395
C24   C     C_R   0.700632 0.101215 0.755347 0.304085
C25   C     C_R   0.582649 0.218647 0.846320 0.183450
C26   C     C_R   0.621128 0.267300 0.787820 -0.111384
C27   C     C_R   0.651199 0.229155 0.707699 -0.168071
C28   C     C_R   0.636428 0.277121 0.646933 0.374799
C29   C     C_R   0.660719 0.398638 0.746688 0.309325
C30   C     C_R   0.636575 0.352956 0.807509 0.253777
C31   C     C_R   0.760916 0.245690 0.312420 0.353186
C32   C     C_R   0.745868 0.180822 0.248003 0.359003
C33   C     C_R   0.617644 0.184382 0.185072 -0.311957
C34   C     C_R   0.498367 0.253017 0.189803 0.322735
C35   C     C_R   0.514649 0.318271 0.253664 0.362526
C36   C     C_R   0.644970 0.315105 0.315997 -0.324447
O11   O     O_R   0.774880 0.061150 0.920630 -0.538510
O12   O     O_R   0.440980 0.093710 0.086500 -0.506882
O13   O     O_R   0.266190 0.938890 0.079390 -0.527844
C37   C     C_R   0.609006 0.116550 0.115377 0.858701
O14   O     O_R   0.445420 0.070740 0.921670 -0.537960
O15   O     O_R   0.270660 0.915760 0.913380 -0.528778
C38   C     C_R   0.615151 0.085771 0.894669 0.788192
O16   O     O_R   0.770400 0.084270 0.086640 -0.526935
O17   O     O_3   0.602590 0.949210 0.997500 -0.386384
V3    V     V_3+5 0.329470 0.009420 0.000470 1.631927
O18   O     O_R   0.940650 0.906250 0.913470 -0.558068
C39   C     C_R   0.108185 0.883932 0.884049 0.801799
O19   O     O_R   0.936210 0.929220 0.078300 -0.526694
C40   C     C_R   0.105083 0.913990 0.105096 0.881355
V4    V     V_3+5 0.828930 0.990510 0.999490 1.584066
O20   O     O_3   0.105680 0.050790 0.002500 -0.368157
Cl1   Cl    Cl    0.448303 0.647394 0.752326 -0.601750
Cl2   Cl    Cl    0.014721 0.737684 0.055538 -0.610118
Cl3   Cl    Cl    0.586321 0.234389 0.547054 -0.478909
Cl4   Cl    Cl    0.732356 0.500828 0.771035 -0.583491
Cl5   Cl    Cl    0.802239 0.098527 0.600858 -0.430059
N1    N     N_2   0.660022 0.392732 0.887734 -0.481897
H1    H     H_    0.732364 0.362649 0.925930 0.285431
C41   C     C_3   0.508375 0.446762 0.922583 -0.236837
H2    H     H_    0.438570 0.422815 0.972280 0.203417
H3    H     H_    0.396668 0.454359 0.878432 0.190217
H4    H     H_    0.571496 0.506827 0.946411 0.246157
Cl6   Cl    Cl    0.788138 0.000907 0.738356 -0.535496
N2    N     N_2   0.485232 0.252519 0.917950 -0.506196
H5    H     H_    0.522237 0.228754 0.967161 0.272056
C42   C     C_3   0.279540 0.259864 0.908907 -0.401150
H6    H     H_    0.215875 0.293772 0.964489 0.236405
H7    H     H_    0.211486 0.199064 0.895597 0.193231
H8    H     H_    0.247531 0.293664 0.860363 0.187728
Cl7   Cl    Cl    0.921651 0.237097 0.390094 -0.428593
Cl8   Cl    Cl    0.877486 0.091779 0.250543 -0.493624
Cl9   Cl    Cl    0.326638 0.259402 0.115805 -0.579417
Cl10  Cl    Cl    0.417620 0.872325 0.744172 -0.572599
Cl11  Cl    Cl    0.377315 0.406373 0.251945 -0.461269
N3    N     N_2   0.758174 0.790018 0.817005 -0.461119
H9    H     H_    0.714033 0.849054 0.826854 0.321317
C43   C     C_3   0.722397 0.748768 0.883087 -0.277923
H10   H     H_    0.758487 0.683638 0.866637 0.261889
H11   H     H_    0.568180 0.754530 0.900450 0.201098
H12   H     H_    0.808434 0.776030 0.934872 0.199767
N4    N     N_2   0.782647 0.708250 0.662004 -0.457036
H13   H     H_    0.736595 0.649262 0.649718 0.318042
C44   C     C_3   0.768037 0.751484 0.596469 -0.329216
H14   H     H_    0.623386 0.741120 0.569550 0.223115
H15   H     H_    0.878672 0.730008 0.550421 0.145117
H16   H     H_    0.786775 0.817408 0.617792 0.251047
Cl12  Cl    Cl    0.430476 0.734121 0.399493 -0.649697
Cl13  Cl    Cl    0.913960 0.510687 0.253900 -0.473764
N5    N     N_2   0.222602 0.894735 0.384712 -0.483589
H17   H     H_    0.244112 0.861306 0.428360 0.305480
C45   C     C_3   0.082039 0.957732 0.411222 -0.229148
H18   H     H_    0.999090 0.943694 0.463018 0.191573
H19   H     H_    0.976631 0.964317 0.364382 0.218410
H20   H     H_    0.157851 0.016184 0.429811 0.272683
Cl14  Cl    Cl    0.794210 0.625254 0.141224 -0.437382
Cl15  Cl    Cl    0.298936 0.995769 0.257940 -0.511319

loop_
_geom_bond_atom_site_label_1
_geom_bond_atom_site_label_2
_ccdc_geom_bond_type
O11   V4    S    
C22   C25   A    
C31   Cl7   S    
C29   C30   A    
O2    C1    A    
C7    C8    A    
C12   C15   A    
C1    O6    A    
C45   H19   S    
C43   H10   S    
O15   C39   A    
C33   C34   A    
C3    C11   S    
C6    Cl10  S    
C19   Cl13  S    
C16   C17   A    
C12   C14   A    
C26   C30   A    
O5    C3    A    
C26   C27   A    
C13   N5    S    
C9    N4    S    
V2    O10   S    
C44   H16   S    
C18   Cl12  S    
C30   N1    S    
C6    C7    A    
O19   V4    S    
C24   Cl6   S    
C34   C35   A    
O8    V2    S    
C23   C24   A    
C28   Cl3   S    
C44   H15   S    
O12   C37   A    
N1    H1    S    
O1    V2    S    
C17   C18   A    
O7    V1    S    
O19   C40   A    
N2    H5    S    
N4    C44   S    
C34   Cl9   S    
O14   C38   A    
C22   C38   S    
O9    C4    A    
V3    O20   S    
N5    H17   S    
O13   C40   A    
C41   H4    S    
C45   H18   S    
O17   V4    S    
C29   Cl4   S    
N2    C42   S    
C13   C17   A    
C21   C28   A    
O12   V3    S    
C11   C18   A    
C16   C20   A    
C41   H3    S    
C27   C28   A    
O4    C2    A    
C33   C37   S    
C13   C14   A    
O11   C38   A    
C25   N2    S    
C42   H6    S    
C35   Cl11  S    
C23   C27   A    
C31   C32   A    
C25   C26   A    
C43   H11   S    
C35   C36   A    
O14   V3    S    
C44   H14   S    
O15   V3    S    
C5    C6    A    
O16   V4    S    
O13   V3    S    
C8    C9    A    
N5    C45   S    
C14   Cl15  S    
O3    C4    A    
N3    C43   S    
O6    V2    S    
O9    V2    S    
O2    V1    S    
C32   C33   A    
C43   H12   S    
C42   H7    S    
C31   C36   A    
C1    C21   S    
C12   C40   S    
O1    C2    A    
C5    Cl1   S    
C19   C20   A    
C41   H2    S    
C32   Cl8   S    
O5    V1    S    
C42   H8    S    
O8    C3    A    
C7    C39   S    
O18   V4    S    
C5    C10   A    
C21   C29   A    
C2    C36   S    
C4    C10   S    
O7    V2    S    
O4    V1    S    
O3    V1    S    
V1    O10   S    
O17   V3    S    
C8    N3    S    
C22   C24   A    
N4    H13   S    
V4    O20   S    
O18   C39   A    
N3    H9    S    
C23   Cl5   S    
C20   Cl14  S    
C15   C16   A    
C15   Cl2   S    
N1    C41   S    
C9    C10   A    
C45   H20   S    
C37   O16   A    
C11   C19   A    
