data_mof_unit_55021.cif
_audit_creation_date              2012-12-11T16:04:58-0500
_audit_creation_method            fapswitch 2.2
_symmetry_space_group_name_H-M    P1
_symmetry_Int_Tables_number       1
_space_group_crystal_system       triclinic
_cell_length_a                    10.665292
_cell_length_b                    10.689987
_cell_length_c                    16.92796
_cell_angle_alpha                 98.858067
_cell_angle_beta                  99.061063
_cell_angle_gamma                 61.483074
_cell_volume                      1667.75200008

loop_
_atom_site_label
_atom_site_type_symbol
_atom_type_description
_atom_site_fract_x
_atom_site_fract_y
_atom_site_fract_z
_atom_type_partial_charge
C1    C     C_R   0.352940 0.778340 0.399842 0.545823
C2    C     C_3   0.733125 0.299568 0.249595 -0.118407
C3    C     C_3   0.812246 0.350870 0.320178 0.062190
C4    C     C_3   0.957012 0.250990 0.289444 -0.153219
C5    C     C_3   0.938709 0.372284 0.242377 -0.113408
C6    C     C_3   0.792739 0.472967 0.274078 -0.105240
C7    C     C_3   0.714970 0.420930 0.202425 -0.149646
C8    C     C_3   0.859542 0.321452 0.171680 0.062224
C9    C     C_3   0.469362 0.777946 0.222264 -0.132559
C10   C     C_3   0.404740 0.695707 0.254883 -0.113607
C11   C     C_3   0.342143 0.819351 0.320517 0.053997
C12   C     C_R   0.370169 0.346752 0.358876 0.538261
C13   C     C_3   0.407935 0.900237 0.289715 -0.126136
C14   C     C_3   0.266903 0.973956 0.235342 -0.110188
C15   C     C_3   0.202113 0.891852 0.267439 -0.121490
C16   C     C_3   0.263883 0.769049 0.201143 -0.114559
C17   C     C_3   0.328517 0.850251 0.169607 0.060300
C18   C     C_3   0.462619 0.276081 0.780721 -0.129321
C19   C     C_3   0.392164 0.416736 0.739876 -0.117717
C20   C     C_3   0.344966 0.340193 0.665832 0.041718
C21   C     C_3   0.416731 0.200551 0.705315 -0.121993
C22   C     C_3   0.273419 0.247681 0.737399 0.031151
C23   C     C_R   0.774883 0.377752 0.401307 0.545005
C24   C     C_3   0.201457 0.387779 0.697235 -0.146356
C25   C     C_3   0.247851 0.462970 0.773561 -0.135184
C26   C     C_3   0.319023 0.321994 0.813046 0.062234
C27   C     C_1   0.837211 0.333639 0.706828 -0.047814
C28   C     C_1   0.879860 0.300710 0.774071 0.001358
C29   C     C_1   0.358885 0.763655 0.715189 -0.042945
C30   C     C_1   0.328463 0.807170 0.783293 -0.008075
C31   C     C_R   0.896112 0.308868 0.091821 0.548524
C32   C     C_R   0.319499 0.299499 0.120179 0.534774
C33   C     C_R   0.296682 0.888226 0.087727 0.529710
C34   C     C_R   0.379516 0.716582 0.631825 0.545576
C35   C     C_R   0.933701 0.279518 0.855793 0.634113
C36   C     C_R   0.307774 0.293482 0.891600 0.571740
C37   C     C_R   0.285072 0.875245 0.861498 0.590966
C38   C     C_R   0.370186 0.348196 0.586931 0.540937
C39   C     C_R   0.776502 0.378745 0.629032 0.529984
C40   C     C_1   0.343540 0.336503 0.275090 -0.065310
C41   C     C_1   0.332272 0.326280 0.203855 -0.061440
C42   C     C_3   0.879433 0.198753 0.217194 -0.116133
Cr1   Cr    Cr6+3 0.608340 0.611040 0.520430 1.018979
Cr2   Cr    Cr6+3 0.287650 0.601120 0.489350 1.022168
Cr3   Cr    Cr6+3 0.604040 0.287870 0.490280 1.017249
Cr4   Cr    Cr6+3 0.054020 0.052700 0.970850 1.036140
Cr5   Cr    Cr6+3 0.059230 0.375120 0.993390 1.027418
Cr6   Cr    Cr6+3 0.374950 0.061200 0.992340 1.043436
H1    H     H_    0.648792 0.269429 0.254869 0.135328
H2    H     H_    0.213634 0.088204 0.223536 0.115998
H3    H     H_    0.094375 0.936557 0.288625 0.118865
H4    H     H_    0.207116 0.713334 0.163488 0.124363
H5    H     H_    0.444637 0.484015 0.738147 0.099644
H6    H     H_    0.569042 0.232028 0.816213 0.132561
H7    H     H_    0.484182 0.092895 0.676011 0.133414
H8    H     H_    0.095615 0.431305 0.661116 0.125448
H9    H     H_    0.180383 0.570037 0.803349 0.130804
H10   H     H_    0.913039 0.087255 0.190424 0.130852
H11   H     H_    0.052530 0.186682 0.329602 0.103456
H12   H     H_    0.023286 0.402317 0.237376 0.128015
H13   H     H_    0.759156 0.585217 0.299467 0.133754
H14   H     H_    0.619680 0.484753 0.161996 0.104271
H15   H     H_    0.457942 0.581443 0.266641 0.115940
H16   H     H_    0.576506 0.733947 0.200470 0.114058
H17   H     H_    0.464660 0.955344 0.328019 0.129536
O1    O     O_R   0.751220 0.499230 0.435170 -0.522642
O2    O     O_R   0.297880 0.469080 0.560050 -0.513763
O3    O     O_R   0.489720 0.254590 0.564810 -0.517670
O4    O     O_R   0.725220 0.304230 0.585080 -0.494267
O5    O     O_3   0.500010 0.500010 0.500020 -0.274926
O6    O     O_R   0.171830 0.913880 0.057510 -0.528867
O7    O     O_R   0.940690 0.186050 0.054730 -0.508518
O8    O     O_R   0.920470 0.405720 0.075010 -0.521275
O9    O     O_R   0.196690 0.370460 0.084120 -0.509554
O10   O     O_R   0.412990 0.180750 0.091610 -0.513442
O11   O     O_R   0.366620 0.943130 0.065760 -0.507391
O12   O     O_R   0.477220 0.727600 0.436870 -0.500070
O13   O     O_R   0.160510 0.906330 0.879210 -0.503142
O14   O     O_R   0.930190 0.179050 0.889450 -0.490054
O15   O     O_R   0.909140 0.398170 0.896710 -0.522927
O16   O     O_R   0.186190 0.363460 0.918830 -0.504769
O17   O     O_R   0.401670 0.173200 0.913310 -0.500683
O18   O     O_R   0.356120 0.936130 0.900470 -0.466003
O19   O     O_3   0.162740 0.163010 0.985530 -0.257305
O20   O     O_R   0.258650 0.745120 0.411470 -0.513262
O21   O     O_R   0.297070 0.467240 0.395960 -0.496079
O22   O     O_R   0.488830 0.252610 0.387790 -0.518938
O23   O     O_R   0.724400 0.302390 0.420980 -0.504006
O24   O     O_R   0.752100 0.501210 0.612190 -0.516606
O25   O     O_R   0.478040 0.729440 0.600970 -0.494173
O26   O     O_R   0.259530 0.747110 0.588490 -0.502252
C43   C     C_2   0.209140 0.149506 0.725639 0.192646
H18   H     H_    0.185705 0.108284 0.665606 0.108564
O27   O     O_2   0.182802 0.115202 0.783302 -0.520163

loop_
_geom_bond_atom_site_label_1
_geom_bond_atom_site_label_2
_ccdc_geom_bond_type
C18   C21   S    
C1    O12   A    
Cr6   O11   S    
C3    C23   S    
C19   C20   S    
C1    C11   S    
C3    C6    S    
C42   H10   S    
C32   O10   A    
C7    C8    S    
C13   H17   S    
Cr1   O24   S    
C25   H9    S    
C6    H13   S    
Cr3   O22   S    
C8    C42   S    
C32   O9    A    
C5    C6    S    
C31   O8    A    
C15   C16   S    
C9    H16   S    
C35   O15   A    
C18   C19   S    
C9    C13   S    
C34   O26   A    
C11   C15   S    
C10   H15   S    
C2    C7    S    
C28   C35   S    
C36   O17   A    
C16   C17   S    
C18   C26   S    
C32   C41   S    
Cr2   O5    S    
C15   H3    S    
C9    C10   S    
Cr4   O7    S    
C5    H12   S    
C19   H5    S    
C21   C22   S    
Cr6   O10   S    
C17   C33   S    
Cr5   O15   S    
Cr2   O21   S    
C1    O20   A    
Cr1   O25   S    
C14   H2    S    
Cr3   O4    S    
C20   C24   S    
Cr3   O23   S    
C24   C25   S    
Cr5   O8    S    
C27   C39   S    
C21   H7    S    
C18   H6    S    
C25   C26   S    
C29   C34   S    
Cr6   O19   S    
C30   C37   S    
C12   C40   S    
C34   O25   A    
C7    H14   S    
C29   C30   T    
C2    H1    S    
C20   C38   S    
C33   O11   A    
C36   O16   A    
Cr3   O3    S    
C43   O27   D    
C39   O4    A    
Cr5   O19   S    
C20   C21   S    
Cr4   O6    S    
Cr2   O26   S    
Cr4   O19   S    
C9    C17   S    
C31   O7    A    
C38   O3    A    
Cr1   O5    S    
C23   O23   A    
C22   C24   S    
Cr1   O12   S    
C3    C4    S    
C23   O1    A    
Cr4   O13   S    
C26   C36   S    
C40   C41   T    
C12   O22   A    
Cr3   O5    S    
C8    C31   S    
C16   H4    S    
Cr5   O9    S    
C4    C5    S    
C5    C8    S    
C6    C7    S    
C24   H8    S    
C37   O13   A    
Cr6   O18   S    
C12   O21   A    
C2    C3    S    
C10   C16   S    
C11   C13   S    
Cr4   O14   S    
C4    C42   S    
C2    C42   S    
Cr1   O1    S    
C4    H11   S    
C35   O14   A    
C43   H18   S    
Cr6   O17   S    
Cr5   O16   S    
C19   C25   S    
C10   C11   S    
C33   O6    A    
C38   O2    A    
C22   C26   S    
C27   C28   T    
C22   C43   S    
C14   C15   S    
C37   O18   A    
Cr2   O2    S    
C13   C14   S    
C39   O24   A    
Cr2   O20   S    
C14   C17   S    
