data_mof_unit_48916.cif
_audit_creation_date              2012-12-10T17:23:14-0500
_audit_creation_method            fapswitch 2.2
_symmetry_space_group_name_H-M    P1
_symmetry_Int_Tables_number       1
_space_group_crystal_system       triclinic
_cell_length_a                    15.85349
_cell_length_b                    10.850864
_cell_length_c                    9.660528
_cell_angle_alpha                 89.46713
_cell_angle_beta                  90.513914
_cell_angle_gamma                 92.939663
_cell_volume                      1659.52467195

loop_
_atom_site_label
_atom_site_type_symbol
_atom_type_description
_atom_site_fract_x
_atom_site_fract_y
_atom_site_fract_z
_atom_type_partial_charge
C1    C     C_R   0.506246 0.262814 0.501399 0.798326
C2    C     C_R   0.504550 0.066230 0.882627 -0.005764
C3    C     C_R   0.460155 0.951634 0.878350 -0.169972
C4    C     C_R   0.340083 0.499354 0.499443 0.808440
C5    C     C_R   0.455882 0.883907 0.756983 -0.181951
C6    C     C_R   0.487598 0.935702 0.632290 0.096560
C7    C     C_R   0.517180 0.060366 0.632326 0.040543
C8    C     C_R   0.513016 0.127803 0.505663 -0.077624
C9    C     C_R   0.498983 0.063858 0.382327 -0.154328
C10   C     C_R   0.485958 0.937310 0.381561 -0.163391
C11   C     C_R   0.485505 0.870805 0.505332 -0.124745
C12   C     C_3   0.082802 0.495357 0.496617 0.093856
C13   C     C_R   0.641076 0.614958 0.137613 0.021465
C14   C     C_R   0.716043 0.627822 0.062389 -0.237940
C15   C     C_R   0.710298 0.646718 0.919810 -0.061650
C16   C     C_R   0.492787 0.736641 0.500609 0.801800
C17   C     C_R   0.631662 0.625598 0.856007 -0.168464
C18   C     C_R   0.565760 0.559624 0.925038 0.217376
C19   C     C_R   0.567863 0.556930 0.073559 0.157908
C20   C     C_R   0.434662 0.449247 0.073231 -0.027469
C21   C     C_R   0.435582 0.446631 0.925970 -0.016792
C22   C     C_R   0.659821 0.499228 0.500580 0.879125
C23   C     C_3   0.976294 0.608972 0.531856 -0.127757
C24   C     C_3   0.968843 0.412164 0.590038 -0.206887
C25   C     C_3   0.022861 0.384117 0.462771 -0.039670
C26   C     C_1   0.250283 0.498353 0.498196 -0.133953
C27   C     C_1   0.749466 0.498533 0.501380 -0.052277
C28   C     C_3   0.029905 0.524536 0.623988 -0.132211
C29   C     C_2   0.047147 0.257167 0.424662 0.876087
C30   C     C_2   0.633727 0.725223 0.222513 0.896339
C31   C     C_2   0.783336 0.699470 0.840019 0.875404
C32   C     C_2   0.937716 0.436866 0.228740 0.884804
C33   C     C_2   0.617297 0.204656 0.763326 0.910928
C34   C     C_3   0.916601 0.496786 0.497781 0.094722
C35   C     C_2   0.494999 0.140135 0.007892 0.839139
C36   C     C_3   0.030530 0.579925 0.404297 -0.217766
C37   C     C_3   0.969749 0.467851 0.371445 -0.042445
C38   C     C_1   0.174635 0.497119 0.497355 0.028945
C39   C     C_1   0.824983 0.497921 0.500490 0.041742
C40   C     C_R   0.542879 0.114315 0.760383 -0.097508
Cu1   Cu    Cu3+1 0.499990 0.499990 0.640660 0.966736
Cu2   Cu    Cu3+1 0.500010 0.500010 0.359340 0.995843
H1    H     H_    0.419919 0.796612 0.759918 0.171746
H2    H     H_    0.382917 0.401521 0.871451 0.149781
H3    H     H_    0.942636 0.343334 0.666030 0.174130
H4    H     H_    0.837442 0.407518 0.101287 0.353501
H5    H     H_    0.056602 0.648499 0.327919 0.169810
H6    H     H_    0.956576 0.701951 0.560334 0.161100
H7    H     H_    0.055706 0.548127 0.728167 0.172461
H8    H     H_    0.497079 0.112075 0.285854 0.204223
H9    H     H_    0.726688 0.263532 0.673200 0.326715
H10   H     H_    0.411846 0.204336 0.144528 0.320856
H11   H     H_    0.140397 0.142401 0.388657 0.340064
H12   H     H_    0.429138 0.913773 0.970041 0.171279
H13   H     H_    0.473562 0.892063 0.283938 0.209567
H14   H     H_    0.380486 0.408687 0.127109 0.141949
H15   H     H_    0.675351 0.825126 0.386823 0.346441
H16   H     H_    0.774040 0.657836 0.115425 0.213446
H17   H     H_    0.826131 0.773664 0.659874 0.339140
H18   H     H_    0.622910 0.663102 0.754460 0.226653
N1    N     N_R   0.500800 0.501210 0.147910 -0.199306
N2    N     N_R   0.500830 0.501290 0.852040 -0.191542
O1    O     O_R   0.499990 0.319640 0.618810 -0.585759
O2    O     O_R   0.132277 0.231159 0.415194 -0.756717
O3    O     O_2   0.591548 0.808256 0.178429 -0.627455
O4    O     O_R   0.683812 0.742934 0.341237 -0.757670
O5    O     O_2   0.853415 0.710161 0.893931 -0.582133
O6    O     O_R   0.772113 0.737564 0.702657 -0.770994
O7    O     O_2   0.988000 0.418816 0.136883 -0.576246
O8    O     O_R   0.850956 0.428647 0.201333 -0.743682
O9    O     O_2   0.624188 0.285459 0.850379 -0.545516
O10   O     O_R   0.679264 0.198010 0.661851 -0.761069
O11   O     O_2   0.556170 0.189451 0.066688 -0.538744
O12   O     O_R   0.500000 0.319660 0.381240 -0.570043
O13   O     O_R   0.413606 0.150346 0.060033 -0.788763
O14   O     O_R   0.379070 0.499980 0.618770 -0.590997
O15   O     O_R   0.379080 0.500000 0.381190 -0.584485
O16   O     O_R   0.500000 0.680340 0.618760 -0.614303
O17   O     O_R   0.500010 0.680360 0.381190 -0.576651
O18   O     O_R   0.620920 0.500000 0.618810 -0.590279
O19   O     O_R   0.620930 0.500020 0.381230 -0.560345
O20   O     O_2   0.992015 0.176860 0.401978 -0.565685

loop_
_geom_bond_atom_site_label_1
_geom_bond_atom_site_label_2
_ccdc_geom_bond_type
C2    C35   S    
C34   C37   S    
Cu1   Cu2   S    
H15   O4    S    
C20   H14   S    
H10   O13   S    
Cu1   O18   S    
C7    C8    A    
C31   O5    D    
C35   O13   S    
C12   C28   S    
C24   H3    S    
C36   C37   S    
C5    C6    A    
C3    H12   S    
C1    C8    S    
C36   H5    S    
C18   C19   A    
C28   H7    S    
C20   N1    A    
C33   O10   S    
C25   C37   S    
C27   C39   T    
C8    C9    A    
C7    C40   A    
C12   C36   S    
C9    C10   A    
C5    H1    S    
C29   O2    S    
Cu2   O17   S    
C13   C14   A    
Cu2   O19   S    
Cu1   N2    S    
C1    O1    A    
C25   C29   S    
C31   O6    S    
C14   H16   S    
Cu2   O12   S    
C33   C40   S    
H4    O8    S    
C13   C19   A    
C34   C39   S    
C22   O19   A    
C13   C30   S    
C24   C25   S    
Cu1   O16   S    
C18   N2    A    
C32   O8    S    
C32   C37   S    
C24   C34   S    
H17   O6    S    
C21   H2    S    
C11   C16   S    
C23   C34   S    
C17   C18   A    
C23   C28   S    
C10   H13   S    
Cu2   N1    S    
C21   N2    A    
C30   O4    S    
C22   C27   S    
H9    O10   S    
C1    O12   A    
C6    C11   A    
C15   C17   A    
C35   O11   D    
C23   H6    S    
C32   O7    D    
C26   C38   T    
C9    H8    S    
C24   C28   S    
C3    C5    A    
C4    C26   S    
C15   C31   S    
C6    C7    A    
C12   C25   S    
C16   O17   A    
C2    C3    A    
C22   O18   A    
C4    O15   A    
Cu1   O14   S    
C19   N1    A    
H11   O2    S    
C16   O16   A    
C12   C38   S    
C4    O14   A    
C30   O3    D    
C10   C11   A    
C33   O9    D    
C17   H18   S    
C2    C40   A    
C29   O20   D    
C20   C21   A    
Cu2   O15   S    
C23   C36   S    
Cu1   O1    S    
C14   C15   A    
