data_mof_unit_42662.cif
_audit_creation_date              2012-12-10T17:19:01-0500
_audit_creation_method            fapswitch 2.2
_symmetry_space_group_name_H-M    P1
_symmetry_Int_Tables_number       1
_space_group_crystal_system       triclinic
_cell_length_a                    10.282562
_cell_length_b                    10.696115
_cell_length_c                    13.498505
_cell_angle_alpha                 93.013229
_cell_angle_beta                  100.361923
_cell_angle_gamma                 96.032383
_cell_volume                      1448.43237163

loop_
_atom_site_label
_atom_site_type_symbol
_atom_type_description
_atom_site_fract_x
_atom_site_fract_y
_atom_site_fract_z
_atom_type_partial_charge
C1    C     C_R   0.054814 0.733341 0.497460 0.865838
C2    C     C_2   0.031056 0.073572 0.553063 -0.130590
C3    C     C_2   0.430134 0.504200 0.517726 0.655227
C4    C     C_2   0.569381 0.475707 0.506354 0.497912
C5    C     C_R   0.092285 0.510643 0.685969 0.927319
C6    C     C_R   0.907202 0.487658 0.313886 0.950013
C7    C     C_R   0.138859 0.512618 0.794362 -0.220973
C8    C     C_R   0.856691 0.471726 0.205559 -0.209061
C9    C     C_R   0.142827 0.596477 0.964697 0.454968
C10   C     C_R   0.852162 0.367387 0.041318 0.452125
C11   C     C_R   0.086534 0.587282 0.862170 -0.260379
C12   C     C_R   0.948527 0.267456 0.510054 0.848244
C13   C     C_R   0.914306 0.395657 0.141935 -0.250568
C14   C     C_R   0.243506 0.444229 0.829765 0.481034
C15   C     C_R   0.739303 0.520996 0.167726 0.453375
C16   C     C_R   0.322595 0.480642 0.924575 -0.034476
C17   C     C_R   0.660068 0.466098 0.077475 -0.040932
C18   C     C_R   0.263230 0.544855 0.996476 -0.047630
C19   C     C_R   0.723216 0.401923 0.008518 -0.045530
C20   C     C_R   0.457601 0.456375 0.950031 -0.006925
C21   C     C_R   0.522409 0.478335 0.052360 -0.010779
C22   C     C_R   0.447004 0.508001 0.127131 0.517897
C23   C     C_R   0.533287 0.420520 0.876529 0.511487
C24   C     C_R   0.322739 0.550791 0.098126 -0.215408
C25   C     C_R   0.659535 0.381885 0.907847 -0.224515
C26   C     C_2   0.092210 0.868388 0.508560 0.237047
C27   C     C_2   0.924523 0.135759 0.528837 0.231865
C28   C     C_2   0.017305 0.938577 0.554994 -0.184984
Cl1   Cl    Cl    0.712421 0.670329 0.219639 -0.461203
Cl2   Cl    Cl    0.244794 0.292367 0.770212 -0.510024
Cl3   Cl    Cl    0.065450 0.681708 0.048447 -0.540806
Cl4   Cl    Cl    0.936074 0.283243 0.961527 -0.546712
Cl5   Cl    Cl    0.759051 0.062953 0.514191 -0.437262
Cl6   Cl    Cl    0.228123 0.933655 0.456828 -0.433490
H1    H     H_    0.271319 0.584356 0.155736 0.200024
H2    H     H_    0.490785 0.597504 0.647590 0.366323
H3    H     H_    0.749512 0.716796 0.590206 0.387846
H4    H     H_    0.242860 0.331102 0.353652 0.375391
H5    H     H_    0.711398 0.345231 0.851665 0.202873
H6    H     H_    0.007639 0.359673 0.169862 0.205921
H7    H     H_    0.001525 0.636626 0.835834 0.207298
H8    H     H_    0.131575 0.121331 0.561943 0.234008
H9    H     H_    0.935001 0.895418 0.586650 0.196853
H10   H     H_    0.432800 0.521453 0.269369 0.362463
H11   H     H_    0.552426 0.403358 0.735139 0.335611
H12   H     H_    0.649111 0.368349 0.421820 0.388295
N1    N     N_2   0.322180 0.446120 0.460900 0.025597
N2    N     N_2   0.677820 0.553880 0.539100 -0.025709
O1    O     O_R   0.935190 0.693030 0.507870 -0.630718
O2    O     O_3   0.487834 0.432271 0.775205 -0.740520
O3    O     O_3   0.579060 0.358457 0.462823 -0.662366
O4    O     O_3   0.412951 0.591369 0.591936 -0.698556
O5    O     O_3   0.659356 0.672545 0.565487 -0.661780
O6    O     O_3   0.335267 0.363250 0.386313 -0.636006
O7    O     O_R   0.064810 0.306970 0.492130 -0.625812
O8    O     O_R   0.142080 0.658430 0.482770 -0.538682
O9    O     O_R   0.857920 0.341570 0.517230 -0.587440
O10   O     O_R   0.969700 0.527180 0.651960 -0.630985
O11   O     O_R   0.030300 0.472820 0.348040 -0.630089
O12   O     O_R   0.176600 0.492580 0.626860 -0.528855
O13   O     O_R   0.823400 0.507420 0.373140 -0.577828
O14   O     O_3   0.493856 0.489887 0.227349 -0.705680
Zn1   Zn    Zn3+2 0.861850 0.523100 0.516760 1.038471
Zn2   Zn    Zn3+2 0.138150 0.476900 0.483240 1.081951

loop_
_geom_bond_atom_site_label_1
_geom_bond_atom_site_label_2
_ccdc_geom_bond_type
C6    C8    S    
C3    O4    S    
O8    Zn2   S    
C11   H7    S    
C2    C27   D    
O1    Zn1   S    
N2    O5    S    
C22   O14   S    
C5    C7    S    
C28   H9    S    
C26   C28   D    
H2    O4    S    
C20   C23   A    
C16   C20   A    
C10   C19   A    
O12   Zn2   S    
H3    O5    S    
O7    Zn2   S    
C17   C21   A    
C6    O11   A    
C21   C22   A    
C27   Cl5   S    
C7    C11   A    
C9    C11   A    
C13   H6    S    
O11   Zn2   S    
C8    C13   A    
C5    O10   A    
C2    H8    S    
N1    O6    S    
C18   C24   A    
C12   O9    A    
H11   O2    S    
C6    O13   A    
C3    N1    D    
C17   C19   A    
C1    O8    A    
C14   Cl2   S    
C15   Cl1   S    
C8    C15   A    
C22   C24   A    
C23   C25   A    
C1    C26   S    
C19   C25   A    
C14   C16   A    
C24   H1    S    
C9    Cl3   S    
C4    O3    S    
C3    C4    S    
C12   O7    A    
C10   Cl4   S    
C9    C18   A    
N1    Zn2   S    
C20   C21   A    
C16   C18   A    
C4    N2    D    
O10   Zn1   S    
O13   Zn1   S    
C23   O2    S    
C2    C28   S    
C12   C27   S    
C5    O12   A    
H10   O14   S    
C15   C17   A    
C1    O1    A    
H12   O3    S    
C26   Cl6   S    
C7    C14   A    
C25   H5    S    
O9    Zn1   S    
N2    Zn1   S    
C10   C13   A    
H4    O6    S    
