data_mof_unit_5026.cif
_audit_creation_date              2012-12-11T20:50:46-0500
_audit_creation_method            fapswitch 2.2
_symmetry_space_group_name_H-M    P1
_symmetry_Int_Tables_number       1
_space_group_crystal_system       triclinic
_cell_length_a                    30.488391
_cell_length_b                    33.951888
_cell_length_c                    8.437447
_cell_angle_alpha                 90.0
_cell_angle_beta                  89.85975
_cell_angle_gamma                 90.453668
_cell_volume                      8733.62574482

loop_
_atom_site_label
_atom_site_type_symbol
_atom_type_description
_atom_site_fract_x
_atom_site_fract_y
_atom_site_fract_z
_atom_type_partial_charge
Ba1   Ba    Ba6+2 0.999930 0.472870 0.844940 1.675579
Ba2   Ba    Ba6+2 0.999930 0.527130 0.344940 1.673508
Ba3   Ba    Ba6+2 0.499930 0.972870 0.844940 1.663348
Ba4   Ba    Ba6+2 0.499930 0.027130 0.344940 1.665595
C1    C     C_3   0.005056 0.285183 0.445363 -0.236799
C2    C     C_3   0.013403 0.721865 0.037810 -0.184177
C3    C     C_3   0.511881 0.781039 0.510497 -0.226957
C4    C     C_3   0.514146 0.221640 0.037744 -0.181144
C5    C     C_R   0.245941 0.698325 0.023696 -0.025663
C6    C     C_R   0.225905 0.295762 0.680844 -0.026711
C7    C     C_R   0.745330 0.200908 0.005153 -0.026831
C8    C     C_R   0.719013 0.790875 0.691775 -0.026753
C9    C     C_R   0.213468 0.670144 0.981631 0.588907
C10   C     C_R   0.198329 0.326648 0.630714 0.579200
C11   C     C_R   0.713135 0.172438 0.963393 0.591260
C12   C     C_R   0.689954 0.820923 0.643658 0.590244
C13   C     C_R   0.156688 0.717153 0.032189 0.584798
C14   C     C_R   0.185324 0.293093 0.385267 0.584955
C15   C     C_R   0.655889 0.215199 0.054411 0.585806
C16   C     C_R   0.679038 0.788105 0.395332 0.582904
C17   C     C_R   0.188275 0.746005 0.074331 -0.019034
C18   C     C_R   0.218969 0.266072 0.421155 -0.020652
C19   C     C_R   0.687166 0.244234 0.097545 -0.018933
C20   C     C_R   0.713625 0.762007 0.430261 -0.019018
C21   C     C_R   0.233159 0.736473 0.070196 -0.052648
C22   C     C_R   0.237670 0.266276 0.572756 -0.054272
C23   C     C_R   0.732150 0.237007 0.072590 -0.051879
C24   C     C_R   0.732338 0.762381 0.581747 -0.055716
C25   C     C_R   0.290925 0.689322 0.020040 -0.075182
C26   C     C_R   0.242345 0.293873 0.836619 -0.067564
C27   C     C_R   0.790391 0.194203 0.980889 -0.075194
C28   C     C_R   0.735571 0.788978 0.847470 -0.063080
C29   C     C_R   0.821726 0.222674 0.022714 -0.079379
C30   C     C_R   0.764037 0.758838 0.892432 -0.089101
C31   C     C_R   0.322529 0.717503 0.062190 -0.085596
C32   C     C_R   0.269138 0.262718 0.883753 -0.087276
C33   C     C_R   0.809071 0.258768 0.090692 -0.023296
C34   C     C_R   0.778907 0.731105 0.780837 -0.022538
C35   C     C_R   0.310268 0.755615 0.109766 -0.023249
C36   C     C_R   0.282678 0.234029 0.773841 -0.022191
C37   C     C_R   0.764073 0.265951 0.115753 -0.052099
C38   C     C_R   0.764215 0.733885 0.623815 -0.051238
C39   C     C_R   0.265367 0.765172 0.113287 -0.051455
C40   C     C_R   0.268225 0.236820 0.616543 -0.051333
C41   C     C_R   0.175965 0.784161 0.121317 -0.081251
C42   C     C_R   0.233461 0.237990 0.310044 -0.082378
C43   C     C_R   0.674488 0.280305 0.165600 -0.080965
C44   C     C_R   0.729145 0.734706 0.317823 -0.085718
C45   C     C_3   0.055435 0.317303 0.999216 0.283417
C46   C     C_3   0.006856 0.683666 0.562290 0.339765
C47   C     C_3   0.526026 0.809308 0.061856 0.327334
C48   C     C_3   0.507769 0.184128 0.563394 0.339957
C49   C     C_R   0.705810 0.308694 0.207975 -0.077724
C50   C     C_R   0.763468 0.709198 0.354791 -0.071840
C51   C     C_R   0.207560 0.812339 0.163237 -0.078373
C52   C     C_R   0.266677 0.211447 0.348610 -0.068755
C53   C     C_R   0.750862 0.301959 0.183875 -0.024019
C54   C     C_R   0.781109 0.708193 0.508778 -0.033617
C55   C     C_R   0.252528 0.803289 0.159972 -0.023441
C56   C     C_R   0.284124 0.210258 0.502907 -0.034960
C57   C     C_R   0.783007 0.330283 0.227028 0.584203
C58   C     C_R   0.815651 0.682553 0.549612 0.567982
C59   C     C_R   0.284907 0.831383 0.203190 0.583276
C60   C     C_R   0.317641 0.183688 0.545308 0.568887
C61   C     C_R   0.840345 0.287797 0.134477 0.590585
C62   C     C_R   0.807672 0.700414 0.823144 0.573837
C63   C     C_R   0.341827 0.784358 0.154008 0.586005
C64   C     C_R   0.310010 0.202470 0.817945 0.574090
C65   C     C_2   0.107011 0.656833 0.816329 -0.093827
C66   C     C_2   0.121210 0.357053 0.297277 -0.098590
C67   C     C_2   0.606873 0.156995 0.817532 -0.093764
C68   C     C_2   0.615629 0.851865 0.301110 -0.099580
C69   C     C_3   0.069342 0.631787 0.790378 -0.084475
C70   C     C_3   0.077270 0.372481 0.281646 -0.113785
C71   C     C_3   0.569330 0.131798 0.791023 -0.086507
C72   C     C_3   0.573717 0.870601 0.282797 -0.098303
C73   C     C_1   0.096826 0.587993 0.001788 0.014413
C74   C     C_1   0.094036 0.410255 0.518807 0.024335
C75   C     C_1   0.596824 0.088092 0.002687 0.028256
C76   C     C_1   0.593136 0.910304 0.512935 0.026539
C77   C     C_2   0.130197 0.614031 0.039204 -0.106857
C78   C     C_2   0.121074 0.380520 0.570485 -0.109724
C79   C     C_2   0.630224 0.114104 0.039932 -0.104359
C80   C     C_2   0.616547 0.878497 0.570360 -0.092515
C81   C     C_2   0.136201 0.650436 0.943232 0.237452
C82   C     C_2   0.140434 0.353122 0.449766 0.175101
C83   C     C_2   0.636134 0.150462 0.943973 0.239866
C84   C     C_2   0.634384 0.848666 0.454908 0.168558
C85   C     C_R   0.881118 0.347571 0.390673 -0.117096
C86   C     C_R   0.890355 0.656558 0.873605 -0.099205
C87   C     C_R   0.384308 0.845669 0.384740 -0.107248
C88   C     C_R   0.391136 0.156886 0.872074 -0.098869
C89   C     C_3   0.056734 0.283865 0.877119 0.324213
C90   C     C_3   0.998674 0.725451 0.500371 0.313774
C91   C     C_3   0.518450 0.770489 0.973617 0.321722
C92   C     C_3   0.499408 0.225608 0.498999 0.315329
C93   C     C_R   0.914464 0.377125 0.438621 -0.045460
C94   C     C_R   0.922510 0.626781 0.922873 -0.060852
C95   C     C_R   0.417576 0.875236 0.432538 -0.051088
C96   C     C_R   0.422588 0.126696 0.922873 -0.059639
C97   C     C_R   0.901832 0.412826 0.193768 0.045779
C98   C     C_R   0.903558 0.587517 0.693257 0.040962
C99   C     C_R   0.402749 0.912386 0.192567 0.042843
C100  C     C_R   0.403480 0.087467 0.693484 0.038680
C101  C     C_R   0.869004 0.384944 0.153972 -0.084106
C102  C     C_R   0.868146 0.613207 0.665157 -0.101527
C103  C     C_R   0.369951 0.884427 0.153337 -0.086666
C104  C     C_R   0.368508 0.113569 0.664070 -0.101112
C105  C     C_R   0.859817 0.351880 0.251444 0.247855
C106  C     C_R   0.862696 0.649199 0.750556 0.201028
C107  C     C_R   0.361827 0.850651 0.248295 0.244501
C108  C     C_R   0.363580 0.149793 0.748460 0.201929
C109  C     C_2   0.068033 0.595878 0.879846 -0.256543
C110  C     C_2   0.068049 0.403609 0.389320 -0.217132
C111  C     C_2   0.568014 0.095931 0.880732 -0.262117
C112  C     C_2   0.570193 0.905914 0.373482 -0.268221
C113  C     C_3   0.141268 0.491836 0.250311 0.375011
C114  C     C_3   0.124822 0.525279 0.675444 0.272482
C115  C     C_3   0.626668 0.977324 0.196162 0.310438
C116  C     C_3   0.625370 0.025067 0.675905 0.286450
C117  C     C_3   0.180092 0.464014 0.240352 -0.370115
C118  C     C_3   0.165750 0.550979 0.688383 -0.343972
C119  C     C_3   0.666957 0.951198 0.193981 -0.342450
C120  C     C_3   0.665953 0.051385 0.678269 -0.332051
C121  C     C_3   0.876842 0.527175 0.024907 0.317658
C122  C     C_3   0.873055 0.474112 0.521792 0.315943
C123  C     C_3   0.376572 0.026971 0.024497 0.319236
C124  C     C_3   0.374474 0.973470 0.522975 0.318535
C125  C     C_3   0.837536 0.554680 0.039892 -0.216371
C126  C     C_3   0.831730 0.448320 0.531394 -0.226798
C127  C     C_3   0.337174 0.054401 0.038286 -0.217603
C128  C     C_3   0.333889 0.946784 0.533653 -0.229758
C129  C     C_3   0.003155 0.327380 0.508860 0.336126
C130  C     C_3   0.006564 0.677452 0.058841 0.360908
C131  C     C_3   0.504884 0.824842 0.543158 0.368200
C132  C     C_3   0.506771 0.177287 0.058274 0.363270
C133  C     C_R   0.925277 0.408576 0.326385 -0.289559
C134  C     C_R   0.930902 0.594193 0.814242 -0.283180
C135  C     C_R   0.427280 0.907496 0.322436 -0.284569
C136  C     C_R   0.430687 0.093928 0.815015 -0.282880
H1    H     H_    0.036234 0.335882 0.552364 0.012242
H2    H     H_    0.037764 0.664180 0.099739 0.061127
H3    H     H_    0.535988 0.837690 0.588262 0.023749
H4    H     H_    0.537795 0.163706 0.099186 0.066404
H5    H     H_    0.210889 0.481170 0.222724 0.112376
H6    H     H_    0.188669 0.538217 0.776272 0.141042
H7    H     H_    0.695528 0.967407 0.243967 0.121584
H8    H     H_    0.691358 0.038367 0.756000 0.134218
H9    H     H_    0.182629 0.446916 0.352125 0.079086
H10   H     H_    0.156774 0.581068 0.726993 0.088960
H11   H     H_    0.661003 0.924467 0.266443 0.057144
H12   H     H_    0.657445 0.080972 0.724108 0.089331
H13   H     H_    0.176170 0.443181 0.140084 0.159800
H14   H     H_    0.182407 0.553060 0.571478 0.119364
H15   H     H_    0.674620 0.942213 0.070464 0.154192
H16   H     H_    0.679339 0.054632 0.556375 0.132346
H17   H     H_    0.887542 0.525429 0.899896 -0.000028
H18   H     H_    0.883837 0.476857 0.396969 0.005794
H19   H     H_    0.387338 0.025041 0.899575 -0.000641
H20   H     H_    0.385406 0.975911 0.398254 0.002038
H21   H     H_    0.903802 0.539640 0.098049 0.056359
H22   H     H_    0.899095 0.459936 0.593315 0.039177
H23   H     H_    0.403456 0.039645 0.097463 0.055587
H24   H     H_    0.400774 0.960040 0.595540 0.048425
H25   H     H_    0.847984 0.585339 0.013737 0.083390
H26   H     H_    0.839938 0.417389 0.503382 0.078857
H27   H     H_    0.347584 0.085052 0.011624 0.081976
H28   H     H_    0.343085 0.915955 0.507617 0.073989
H29   H     H_    0.825079 0.553942 0.163839 0.133492
H30   H     H_    0.818563 0.448978 0.654374 0.123385
H31   H     H_    0.324560 0.053794 0.162034 0.134224
H32   H     H_    0.320592 0.947597 0.656432 0.125539
H33   H     H_    0.995287 0.346832 0.406474 -0.064618
H34   H     H_    0.998734 0.665305 0.939879 -0.097211
H35   H     H_    0.497073 0.839026 0.427634 -0.092902
H36   H     H_    0.498789 0.165313 0.939166 -0.100687
H37   H     H_    0.030542 0.283782 0.350947 0.085292
H38   H     H_    0.036405 0.726897 0.937361 0.127494
H39   H     H_    0.538386 0.777709 0.421224 0.097946
H40   H     H_    0.537723 0.226526 0.938863 0.118616
H41   H     H_    0.014612 0.264438 0.540716 0.109572
H42   H     H_    0.028621 0.734733 0.145527 0.123669
H43   H     H_    0.522822 0.765854 0.619193 0.093051
H44   H     H_    0.528952 0.234382 0.146339 0.128635
H45   H     H_    0.694567 0.336006 0.260068 0.118061
H46   H     H_    0.775245 0.689426 0.263718 0.163887
H47   H     H_    0.196584 0.841308 0.198686 0.118978
H48   H     H_    0.277716 0.191049 0.258580 0.164569
H49   H     H_    0.141730 0.792406 0.125908 0.114980
H50   H     H_    0.219826 0.237018 0.191676 0.122486
H51   H     H_    0.640182 0.286732 0.186489 0.112225
H52   H     H_    0.715460 0.733603 0.199556 0.121011
H53   H     H_    0.856028 0.216243 0.001909 0.109725
H54   H     H_    0.775394 0.757995 0.013872 0.110120
H55   H     H_    0.356704 0.709292 0.057424 0.100809
H56   H     H_    0.280353 0.261843 0.005374 0.110102
H57   H     H_    0.873813 0.322799 0.467303 0.075393
H58   H     H_    0.889573 0.683843 0.939231 0.118875
H59   H     H_    0.377811 0.820444 0.459964 0.079367
H60   H     H_    0.390891 0.184315 0.936777 0.118843
H61   H     H_    0.301902 0.660362 0.984526 0.118849
H62   H     H_    0.233518 0.315863 0.923841 0.127467
H63   H     H_    0.801630 0.166838 0.929244 0.120639
H64   H     H_    0.725724 0.810231 0.936209 0.129097
H65   H     H_    0.151257 0.608626 0.140325 0.091980
H66   H     H_    0.122029 0.374228 0.695974 0.164092
H67   H     H_    0.651473 0.108649 0.140485 0.093854
H68   H     H_    0.613110 0.871236 0.694674 0.163486
H69   H     H_    0.110189 0.683682 0.747193 0.081854
H70   H     H_    0.138454 0.347991 0.191212 0.139708
H71   H     H_    0.609833 0.184062 0.749680 0.073761
H72   H     H_    0.632037 0.841045 0.196192 0.152978
H73   H     H_    0.850360 0.388926 0.046175 0.081282
H74   H     H_    0.844721 0.604599 0.575435 0.117582
H75   H     H_    0.350572 0.888855 0.047551 0.089763
H76   H     H_    0.345153 0.105163 0.573830 0.118423
H77   H     H_    0.950231 0.429954 0.358314 0.070093
H78   H     H_    0.956966 0.573860 0.841184 0.071773
H79   H     H_    0.452174 0.928937 0.354289 0.071371
H80   H     H_    0.456490 0.073385 0.842670 0.072704
H81   H     H_    0.039763 0.576754 0.862964 0.068541
H82   H     H_    0.035913 0.417056 0.383934 0.064719
H83   H     H_    0.539749 0.076799 0.863823 0.071439
H84   H     H_    0.541533 0.924052 0.354082 0.072775
H85   H     H_    0.020808 0.321396 0.038065 -0.030782
H86   H     H_    0.976065 0.666003 0.551694 0.017632
H87   H     H_    0.493782 0.820766 0.102653 0.005831
H88   H     H_    0.476879 0.166543 0.556337 0.015257
H89   H     H_    0.075235 0.307835 0.102661 0.031767
H90   H     H_    0.015585 0.686493 0.689410 -0.053643
H91   H     H_    0.546893 0.802872 0.166163 -0.009389
H92   H     H_    0.517215 0.187526 0.689534 -0.053304
H93   H     H_    0.037085 0.292816 0.773412 0.040423
H94   H     H_    0.989597 0.723578 0.373103 0.058415
H95   H     H_    0.498212 0.777585 0.867934 0.062685
H96   H     H_    0.489926 0.223105 0.372392 0.059504
H97   H     H_    0.149477 0.514447 0.340515 0.036455
H98   H     H_    0.109629 0.522573 0.794067 0.033462
H99   H     H_    0.619413 0.985226 0.320191 0.026674
H100  H     H_    0.613025 0.021702 0.798490 0.017245
H101  H     H_    0.111589 0.474825 0.285048 0.001687
H102  H     H_    0.101498 0.539538 0.593349 0.076434
H103  H     H_    0.598480 0.961021 0.144453 0.058518
H104  H     H_    0.600014 0.039290 0.601837 0.077586
N1    N     N_R   0.169382 0.679761 0.985537 -0.424646
N2    N     N_R   0.175531 0.324421 0.487249 -0.419000
N3    N     N_R   0.668979 0.179905 0.987220 -0.425967
N4    N     N_R   0.668415 0.819232 0.497324 -0.417966
N5    N     N_R   0.827166 0.322908 0.203001 -0.426812
N6    N     N_R   0.828169 0.677514 0.707390 -0.425105
N7    N     N_R   0.328979 0.821716 0.200529 -0.425442
N8    N     N_R   0.329851 0.178719 0.703483 -0.424725
O1    O     O_2   0.914200 0.445720 0.903420 -0.463096
O2    O     O_2   0.914200 0.554280 0.403420 -0.458651
O3    O     O_2   0.414200 0.945720 0.903420 -0.459407
O4    O     O_2   0.414200 0.054280 0.403420 -0.457303
O5    O     O_3   0.136641 0.488128 0.618184 -0.636628
O6    O     O_3   0.134629 0.509655 0.102783 -0.620410
O7    O     O_3   0.636622 0.988265 0.613623 -0.627661
O8    O     O_3   0.635728 0.011346 0.108588 -0.631605
O9    O     O_3   0.072252 0.352677 0.933967 -0.616782
O10   O     O_3   0.040589 0.665635 0.474360 -0.601447
O11   O     O_3   0.546566 0.836863 0.960810 -0.608465
O12   O     O_3   0.540931 0.165566 0.474433 -0.598908
O13   O     O_3   0.049930 0.518940 0.045960 -0.464587
O14   O     O_3   0.049930 0.481060 0.545960 -0.505550
O15   O     O_3   0.549930 0.018940 0.045960 -0.491229
O16   O     O_3   0.549930 0.981060 0.545960 -0.503866
O17   O     O_2   0.224469 0.637158 0.940335 -0.597387
O18   O     O_2   0.195319 0.355650 0.715206 -0.598313
O19   O     O_2   0.724384 0.141123 0.905031 -0.593016
O20   O     O_2   0.684585 0.848737 0.732818 -0.595707
O21   O     O_2   0.117778 0.725212 0.038848 -0.631825
O22   O     O_2   0.164300 0.287733 0.264356 -0.621009
O23   O     O_2   0.616960 0.221190 0.078111 -0.629974
O24   O     O_2   0.657888 0.782016 0.275299 -0.621878
O25   O     O_2   0.771726 0.361432 0.286706 -0.605564
O26   O     O_2   0.835070 0.665499 0.443473 -0.579772
O27   O     O_2   0.273852 0.864347 0.244621 -0.608385
O28   O     O_2   0.336486 0.165782 0.440135 -0.579282
O29   O     O_2   0.879315 0.281879 0.111117 -0.615979
O30   O     O_2   0.813726 0.693797 0.963607 -0.605884
O31   O     O_2   0.380786 0.776205 0.150449 -0.616025
O32   O     O_2   0.315440 0.195915 0.958793 -0.606861
O33   O     O_3   0.950020 0.480960 0.143730 -0.492594
O34   O     O_3   0.950020 0.519040 0.643730 -0.492242
O35   O     O_3   0.450020 0.980960 0.143730 -0.493724
O36   O     O_3   0.450020 0.019040 0.643730 -0.492789
O37   O     O_3   0.985090 0.412220 0.642040 -0.477866
O38   O     O_3   0.985090 0.587780 0.142040 -0.481171
O39   O     O_3   0.485090 0.912220 0.642040 -0.476502
O40   O     O_3   0.485090 0.087780 0.142040 -0.480735
O41   O     O_2   0.915882 0.375741 0.774391 -0.468072
O42   O     O_2   0.911617 0.619909 0.252665 -0.434819
O43   O     O_2   0.413053 0.878647 0.765289 -0.473465
O44   O     O_2   0.411690 0.120023 0.252693 -0.432975
O45   O     O_3   0.864548 0.489654 0.078284 -0.646190
O46   O     O_3   0.863300 0.511297 0.582320 -0.646863
O47   O     O_3   0.364425 0.989506 0.079019 -0.644659
O48   O     O_3   0.363712 0.010741 0.580875 -0.646368
O49   O     O_3   0.973292 0.329786 0.637030 -0.595103
O50   O     O_3   0.973592 0.669829 0.172532 -0.598089
O51   O     O_3   0.472061 0.829762 0.659443 -0.585956
O52   O     O_3   0.473682 0.169890 0.171747 -0.598569
O53   O     O_2   0.085560 0.445380 0.786390 -0.411762
O54   O     O_2   0.085560 0.554620 0.286390 -0.481169
O55   O     O_2   0.585560 0.945380 0.786390 -0.434515
O56   O     O_2   0.585560 0.054620 0.286390 -0.457019
O57   O     O_3   0.014550 0.412170 0.047860 -0.456975
O58   O     O_3   0.014550 0.587830 0.547860 -0.467427
O59   O     O_3   0.514550 0.912170 0.047860 -0.460709
O60   O     O_3   0.514550 0.087830 0.547860 -0.467804
O61   O     O_2   0.101314 0.420718 0.043249 -0.457933
O62   O     O_2   0.097520 0.608780 0.485288 -0.482372
O63   O     O_2   0.599023 0.896948 0.988393 -0.470003
O64   O     O_2   0.597629 0.108549 0.486391 -0.477433
P1    P     P_3+3 0.909970 0.458430 0.077330 0.986018
P2    P     P_3+3 0.909970 0.541570 0.577330 0.987663
P3    P     P_3+3 0.409970 0.958430 0.077330 0.987157
P4    P     P_3+3 0.409970 0.041570 0.577330 0.987623
P5    P     P_3+3 0.089830 0.458070 0.612460 0.996016
P6    P     P_3+3 0.089830 0.541930 0.112460 1.001142
P7    P     P_3+3 0.589830 0.958070 0.612460 0.993736
P8    P     P_3+3 0.589830 0.041930 0.112460 0.989035
P9    P     P_3+3 0.065571 0.389414 0.077198 0.988394
P10   P     P_3+3 0.056351 0.623020 0.575335 0.958611
P11   P     P_3+3 0.558291 0.879208 0.071285 0.965047
P12   P     P_3+3 0.556440 0.122945 0.575877 0.962967
P13   P     P_3+3 0.947022 0.625748 0.122790 0.985671
P14   P     P_3+3 0.945571 0.374612 0.625245 0.977382
P15   P     P_3+3 0.447079 0.125778 0.122703 0.987647
P16   P     P_3+3 0.445716 0.874532 0.625661 0.976845
C137  C     C_3   0.800563 0.543235 0.926805 -0.400536
H105  H     H_    0.812007 0.545182 0.802090 0.132834
H106  H     H_    0.788832 0.512791 0.951511 0.155886
H107  H     H_    0.772717 0.563752 0.942605 0.127890
C138  C     C_3   0.796399 0.462006 0.416379 -0.357693
H108  H     H_    0.808212 0.459388 0.292319 0.142102
H109  H     H_    0.766672 0.443219 0.430357 0.154345
H110  H     H_    0.787388 0.493064 0.440650 0.139358
C139  C     C_3   0.300391 0.042724 0.924768 -0.398903
H111  H     H_    0.311987 0.044613 0.800210 0.132120
H112  H     H_    0.288773 0.012257 0.949698 0.157337
H113  H     H_    0.272430 0.063149 0.939836 0.128805
C140  C     C_3   0.298283 0.959201 0.417409 -0.355574
H114  H     H_    0.310273 0.956361 0.293658 0.146104
H115  H     H_    0.269078 0.939802 0.432293 0.154238
H116  H     H_    0.288379 0.990128 0.439596 0.140194
O65   O     O_3   0.041369 0.248285 0.946579 -0.647135
C141  C     C_3   0.995666 0.243625 0.925168 0.264425
H117  H     H_    0.986821 0.244085 0.797391 0.050986
H118  H     H_    0.977423 0.267108 0.988656 0.072499
C142  C     C_3   0.981381 0.203911 0.991671 -0.305734
H119  H     H_    0.991375 0.201387 0.117561 0.126282
H120  H     H_    0.945200 0.200805 0.983624 0.074149
H121  H     H_    0.996857 0.179775 0.922970 0.121973
O66   O     O_3   0.966067 0.743572 0.594960 -0.664709
C143  C     C_3   0.925152 0.743943 0.515171 0.241646
H122  H     H_    0.914159 0.713304 0.485185 0.086627
H123  H     H_    0.927469 0.762056 0.404555 0.047407
C144  C     C_3   0.891022 0.762541 0.622748 -0.316666
H124  H     H_    0.901390 0.793011 0.655008 0.131364
H125  H     H_    0.858957 0.763798 0.560424 0.069069
H126  H     H_    0.887187 0.744823 0.732840 0.108667
O67   O     O_3   0.497083 0.743649 0.077374 -0.654204
C145  C     C_3   0.467174 0.719462 0.993336 0.283002
H127  H     H_    0.483375 0.704629 0.891387 0.018741
H128  H     H_    0.439237 0.737262 0.949152 0.086173
C146  C     C_3   0.449254 0.687767 0.103739 -0.317031
H129  H     H_    0.476616 0.670205 0.152867 0.123518
H130  H     H_    0.430796 0.701476 0.202658 0.137958
H131  H     H_    0.426828 0.667834 0.037501 0.054616
O68   O     O_3   0.467070 0.244103 0.593520 -0.665611
C147  C     C_3   0.426441 0.245452 0.513942 0.241283
H132  H     H_    0.414663 0.215191 0.484301 0.086311
H133  H     H_    0.429386 0.263279 0.403500 0.047548
C148  C     C_3   0.392829 0.264968 0.620993 -0.319307
H134  H     H_    0.404001 0.295176 0.652738 0.132087
H135  H     H_    0.360915 0.266903 0.558588 0.069038
H136  H     H_    0.388417 0.247516 0.731207 0.109225
C149  C     C_3   0.961083 0.272103 0.375691 -0.356017
H137  H     H_    0.963593 0.241475 0.330825 0.123825
H138  H     H_    0.935045 0.272733 0.467971 0.147206
H139  H     H_    0.951977 0.291781 0.275860 0.154374
C150  C     C_3   0.970529 0.742966 0.001690 -0.391522
H140  H     H_    0.948015 0.741435 0.105236 0.135085
H141  H     H_    0.977431 0.774432 0.974595 0.138064
H142  H     H_    0.954257 0.729245 0.897751 0.158450
C151  C     C_3   0.470183 0.761141 0.449256 -0.343684
H143  H     H_    0.477157 0.729882 0.420999 0.135996
H144  H     H_    0.443947 0.761988 0.540720 0.131145
H145  H     H_    0.458503 0.776115 0.340421 0.177517
C152  C     C_3   0.471628 0.243061 0.999343 -0.395128
H146  H     H_    0.448690 0.241698 0.101709 0.135343
H147  H     H_    0.478927 0.274465 0.972563 0.137816
H148  H     H_    0.455651 0.229447 0.894647 0.159919
C153  C     C_3   0.103530 0.277163 0.817579 -0.296799
H149  H     H_    0.125727 0.270060 0.917691 0.147795
H150  H     H_    0.103852 0.252316 0.731858 0.106486
H151  H     H_    0.116017 0.303759 0.755836 0.088238
C154  C     C_3   0.040547 0.750518 0.510166 -0.317718
H152  H     H_    0.052444 0.752184 0.634442 0.116084
H153  H     H_    0.066755 0.737944 0.434247 0.111628
H154  H     H_    0.033704 0.780847 0.467768 0.111440
C155  C     C_3   0.562448 0.753146 0.919956 -0.340228
H155  H     H_    0.583528 0.746955 0.024142 0.152558
H156  H     H_    0.556983 0.725228 0.854330 0.089429
H157  H     H_    0.580059 0.773899 0.839787 0.107521
C156  C     C_3   0.541282 0.250695 0.505417 -0.322926
H158  H     H_    0.553408 0.253013 0.629167 0.113055
H159  H     H_    0.567334 0.237730 0.429907 0.119520
H160  H     H_    0.534376 0.280761 0.460668 0.109995

loop_
_geom_bond_atom_site_label_1
_geom_bond_atom_site_label_2
_ccdc_geom_bond_type
O66   C143  S    
C51   C55   A    
C79   C83   S    
C38   C54   A    
C138  H108  S    
C137  H105  S    
C127  H31   S    
O53   P5    D    
C94   C134  S    
C86   H58   S    
C153  H150  S    
O11   P11   S    
C70   C110  A    
C89   C153  S    
C143  C144  S    
C62   O30   D    
C5    C9    A    
C126  C138  S    
C154  H153  S    
C7    C11   A    
C136  H80   S    
C8    C12   A    
Ba1   P1    S    
C66   C70   A    
Ba3   P3    S    
C125  C137  S    
C43   C49   A    
C146  H131  S    
C30   H54   S    
C115  O8    S    
C113  H97   S    
O52   P15   S    
C73   C109  A    
Ba2   O2    S    
Ba1   O34   S    
C142  H120  S    
C124  O48   S    
C12   N4    Am   
Ba3   O36   S    
C26   H62   S    
O16   P7    S    
O12   P12   S    
O47   P3    S    
C63   O31   D    
C1    C149  S    
C97   C133  D    
C90   H94   S    
O48   P4    S    
C100  C136  D    
C28   C30   A    
C15   C19   A    
C16   O24   D    
C144  H125  S    
C4    H40   S    
C7    C23   A    
C105  N5    S    
C10   O18   D    
Ba1   O37   S    
O43   P16   D    
C140  H116  S    
C83   N3    S    
C109  H81   S    
C67   H71   S    
C149  H137  S    
C46   H86   S    
C71   C111  A    
C138  H110  S    
C146  H130  S    
C137  H107  S    
Ba3   O16   S    
C130  H34   S    
C80   C84   S    
C90   O66   S    
C13   O21   D    
C53   C57   A    
C91   C155  S    
C115  C119  S    
C152  H146  S    
C25   C31   A    
C55   C59   A    
C26   C32   A    
C56   C60   A    
C155  H155  S    
Ba1   O53   S    
C117  H9    S    
C3    H43   S    
C118  H6    S    
C141  H117  S    
C123  C127  S    
C18   C22   A    
C121  C125  S    
O37   P14   S    
C58   N6    Am   
C103  H75   S    
C133  H77   S    
O64   P12   D    
C99   C103  A    
C128  H32   S    
O61   P9    D    
C156  H158  S    
O67   C145  S    
C129  H33   S    
C47   C91   S    
C150  H141  S    
O42   P13   D    
C62   N6    Am   
O65   C141  S    
C75   C111  A    
C92   C156  S    
O45   P1    S    
C57   O25   D    
C21   C39   A    
C154  H152  S    
C22   C40   A    
Ba4   O15   S    
C1    C129  S    
C17   C21   A    
C2    H42   S    
C40   C56   A    
O51   P16   S    
Ba2   O14   S    
C124  H24   S    
C114  C118  S    
C14   N2    Am   
C147  H132  S    
C79   H67   S    
C60   N8    Am   
Ba3   P7    S    
O60   P12   S    
C74   P5    S    
C33   C61   A    
C151  H145  S    
C64   N8    Am   
Ba4   P4    S    
O56   P8    D    
C70   P9    S    
C39   C55   A    
C131  H3    S    
C127  H27   S    
C81   N1    S    
C95   C135  S    
C93   C133  S    
C17   C41   A    
C139  H112  S    
C102  H74   S    
C152  H148  S    
Ba4   O35   S    
C19   C43   A    
C47   H91   S    
C20   C44   A    
C76   C112  A    
C6    C10   A    
C155  H157  S    
C46   C90   S    
C47   O11   S    
Ba2   P2    S    
C147  C148  S    
C32   H56   S    
C9    O17   D    
C84   N4    S    
C80   H68   S    
O58   P10   S    
C13   N1    Am   
C156  H160  S    
C143  H123  S    
O54   P6    D    
C145  C146  S    
Ba4   O56   S    
Ba2   O33   S    
C50   H46   S    
C66   H70   S    
C6    C26   A    
Ba4   O4    S    
C45   H85   S    
Ba3   Ba4   S    
C78   H66   S    
C154  H154  S    
C65   C81   A    
C149  H138  S    
O14   P5    S    
C101  C105  A    
C14   C18   A    
C103  C107  A    
C119  H11   S    
O7    P7    S    
C20   C24   A    
O1    P1    D    
C43   H51   S    
C113  C117  S    
C95   P16   S    
C85   H57   S    
C45   C89   S    
Ba2   O38   S    
C90   C154  S    
C120  H16   S    
C153  H149  S    
C113  O6    S    
C59   O27   D    
C60   O28   D    
C2    C150  S    
C46   H90   S    
C33   C37   A    
C148  H135  S    
C123  O47   S    
C135  H79   S    
C36   C40   A    
C65   H69   S    
C41   C51   A    
C57   N5    Am   
C91   O67   S    
C42   C52   A    
C76   P7    S    
C87   C95   S    
C88   H60   S    
O59   P11   S    
C114  H102  S    
O63   P11   D    
C64   O32   D    
C54   C58   A    
C59   N7    Am   
C4    C132  S    
C145  H128  S    
C76   C80   A    
O57   P9    S    
C132  H36   S    
C142  H119  S    
C5    C21   A    
C119  H15   S    
C106  N6    S    
C120  H8    S    
C124  H20   S    
C117  H13   S    
C8    C24   A    
C118  H10   S    
C111  H83   S    
C45   O9    S    
C102  C106  A    
C121  H17   S    
C122  C126  S    
C69   C109  A    
O2    P2    D    
C145  H127  S    
C89   O65   S    
C138  H109  S    
C48   H88   S    
Ba1   O14   S    
C65   C69   A    
C140  H115  S    
C31   H55   S    
C114  H98   S    
C29   H53   S    
C113  H101  S    
C71   P12   S    
C2    H38   S    
C74   C110  A    
C129  O49   S    
C1    H41   S    
C12   O20   D    
Ba1   O1    S    
C97   P1    S    
C137  H106  S    
C48   O12   S    
O33   P1    S    
C25   H61   S    
O35   P3    S    
C99   P3    S    
O36   P4    S    
C153  H151  S    
O8    P8    S    
C49   C53   A    
C88   C108  D    
O4    P4    D    
C141  C142  S    
C89   H93   S    
C78   C82   S    
C29   C33   A    
C52   C56   A    
C28   H64   S    
C31   C35   A    
Ba4   O40   S    
C130  H2    S    
C121  O45   S    
C126  H26   S    
C73   C77   A    
C110  H82   S    
C141  H118  S    
C104  H76   S    
C116  H100  S    
C67   C83   A    
C18   C42   A    
C11   N3    Am   
C3    C151  S    
C47   H87   S    
C100  C104  A    
C142  H121  S    
C150  H140  S    
C46   O10   S    
Ba1   O57   S    
C123  H23   S    
Ba2   O54   S    
Ba3   O59   S    
C121  H21   S    
C75   P8    S    
C131  O51   S    
Ba1   P5    S    
C132  O52   S    
Ba4   O16   S    
C116  O7    S    
C129  H1    S    
C125  H25   S    
C37   C53   A    
C132  H4    S    
Ba4   O60   S    
C75   C79   A    
C126  H30   S    
C45   H89   S    
C13   C17   A    
C44   H52   S    
O38   P13   S    
C104  C108  A    
C36   C64   A    
C151  H144  S    
C61   O29   D    
O50   P13   S    
O41   P14   D    
C112  H84   S    
C61   N5    Am   
Ba3   O39   S    
C68   C72   A    
C115  H99   S    
C15   N3    Am   
C114  O5    S    
C68   H72   S    
C139  H111  S    
C44   C50   A    
C152  H147  S    
C125  H29   S    
C34   C38   A    
C155  H156  S    
C116  H104  S    
C107  N7    S    
C85   C105  D    
Ba1   Ba2   S    
C98   C134  D    
C87   C107  D    
C74   C78   A    
C49   H45   S    
C96   C136  S    
O13   P6    S    
C15   O23   D    
C16   C20   A    
Ba2   P6    S    
O9    P9    S    
C73   P6    S    
C27   C29   A    
C98   C102  A    
C19   C23   A    
C127  C139  S    
O46   P2    S    
C27   H63   S    
C5    C25   A    
C93   P14   S    
C150  H142  S    
C87   H59   S    
C69   P10   S    
C4    H44   S    
C120  H12   S    
C7    C27   A    
C82   N2    S    
C8    C28   A    
C118  H14   S    
C91   H95   S    
C42   H50   S    
C11   O19   D    
C124  C128  S    
C68   C84   A    
C108  N8    S    
Ba3   O3    S    
C122  H18   S    
C97   C101  A    
C96   P15   S    
O39   P16   S    
C101  H73   S    
C100  P4    S    
C52   H48   S    
C32   C36   A    
C48   H92   S    
C35   C39   A    
Ba2   O13   S    
C144  H126  S    
C85   C93   S    
O49   P14   S    
C131  H35   S    
C3    C131  S    
O40   P15   S    
C99   C135  D    
C149  H139  S    
C23   C37   A    
O5    P5    S    
C92   H96   S    
C3    H39   S    
O55   P7    D    
Ba3   O15   S    
C1    H37   S    
C148  H134  S    
C41   H49   S    
C98   P2    S    
C119  H7    S    
C51   H47   S    
O34   P2    S    
C117  H5    S    
C156  H159  S    
C86   C106  D    
C66   C82   A    
C123  H19   S    
O15   P8    S    
C88   C96   S    
C77   H65   S    
C146  H129  S    
C50   C54   A    
C139  H113  S    
O10   P10   S    
C34   C62   A    
C30   C34   A    
C35   C63   A    
C128  H28   S    
O6    P6    S    
C122  O46   S    
C130  O50   S    
C144  H124  S    
C94   P13   S    
O44   P15   D    
C2    C130  S    
O68   C147  S    
C67   C71   A    
C6    C22   A    
C151  H143  S    
C148  H136  S    
C24   C38   A    
C72   C112  A    
C147  H133  S    
C9    N1    Am   
C48   C92   S    
C143  H122  S    
C77   C81   S    
C92   O68   S    
C16   N4    Am   
Ba1   O13   S    
C134  H78   S    
C128  C140  S    
Ba2   O58   S    
Ba4   P8    S    
Ba3   O55   S    
C58   O26   D    
C14   O22   D    
C140  H114  S    
C122  H22   S    
C115  H103  S    
C86   C94   S    
O3    P3    D    
C116  C120  S    
O62   P10   D    
C4    C152  S    
C10   N2    Am   
C72   P11   S    
C63   N7    Am   
