data_mof_unit_43817.cif
_audit_creation_date              2012-12-10T17:38:16-0500
_audit_creation_method            fapswitch 2.2
_symmetry_space_group_name_H-M    P1
_symmetry_Int_Tables_number       1
_space_group_crystal_system       triclinic
_cell_length_a                    11.968779
_cell_length_b                    12.941313
_cell_length_c                    19.24391
_cell_angle_alpha                 90.394181
_cell_angle_beta                  86.519017
_cell_angle_gamma                 93.467208
_cell_volume                      2969.76149954

loop_
_atom_site_label
_atom_site_type_symbol
_atom_type_description
_atom_site_fract_x
_atom_site_fract_y
_atom_site_fract_z
_atom_type_partial_charge
C1    C     C_R   0.522306 0.700860 0.497150 1.006187
C2    C     C_R   0.554411 0.131956 0.466539 0.396023
C3    C     C_R   0.445938 0.972577 0.482940 -0.312397
C4    C     C_R   0.550767 0.026509 0.477996 -0.289930
C5    C     C_R   0.957314 0.441710 0.416998 -0.163035
C6    C     C_R   0.043126 0.561612 0.582021 -0.177424
C7    C     C_R   0.840733 0.444672 0.426578 -0.003596
C8    C     C_R   0.159847 0.560791 0.571818 -0.021370
C9    C     C_R   0.856780 0.518438 0.538903 0.805754
C10   C     C_R   0.143369 0.479185 0.461806 0.816013
C11   C     C_R   0.974793 0.520202 0.530713 -0.117216
C12   C     C_R   0.477370 0.299037 0.499199 0.990654
C13   C     C_R   0.025499 0.479921 0.469238 -0.120697
C14   C     C_R   0.500319 0.499408 0.634439 0.965822
C15   C     C_R   0.499564 0.499369 0.365554 0.999266
C16   C     C_R   0.399662 0.499976 0.750380 -0.234150
C17   C     C_R   0.599645 0.485618 0.250271 -0.212006
C18   C     C_R   0.399145 0.494014 0.822260 0.638043
C19   C     C_R   0.599817 0.479679 0.178439 0.636753
C20   C     C_R   0.500064 0.483286 0.854388 -0.229486
C21   C     C_R   0.498667 0.483569 0.145466 -0.231704
C22   C     C_R   0.601122 0.478076 0.813746 0.625889
C23   C     C_R   0.462199 0.186922 0.493060 -0.447068
C24   C     C_R   0.397402 0.492634 0.185370 0.635047
C25   C     C_R   0.601074 0.483957 0.741890 -0.206101
C26   C     C_R   0.397780 0.498361 0.257347 -0.231026
C27   C     C_R   0.500525 0.495141 0.709894 -0.228234
C28   C     C_R   0.498843 0.495164 0.290072 -0.226189
C29   C     C_R   0.499577 0.480840 0.069869 0.371381
C30   C     C_R   0.500474 0.480389 0.929879 0.370638
C31   C     C_R   0.536009 0.812750 0.489718 -0.430729
C32   C     C_R   0.647990 0.974622 0.487610 0.703219
C33   C     C_R   0.349545 0.025176 0.501471 0.692683
C34   C     C_R   0.638940 0.869104 0.502338 0.250429
C35   C     C_R   0.359592 0.131354 0.515089 0.281402
C36   C     C_R   0.441917 0.866636 0.472090 0.455293
F1    F     F_    0.300542 0.501698 0.860191 -0.589382
F2    F     F_    0.698650 0.468191 0.141500 -0.585003
F3    F     F_    0.699577 0.465265 0.843234 -0.587428
F4    F     F_    0.298592 0.498816 0.154955 -0.585895
F5    F     F_    0.748035 0.028790 0.491920 -0.524626
F6    F     F_    0.249784 0.971311 0.514968 -0.532077
F7    F     F_    0.193373 0.435666 0.404650 -0.649307
F8    F     F_    0.806922 0.556653 0.597847 -0.628930
H1    H     H_    0.321040 0.508628 0.726580 0.209218
H2    H     H_    0.319506 0.692313 0.342319 0.387366
H3    H     H_    0.091909 0.136331 0.619496 0.397623
H4    H     H_    0.907551 0.867428 0.586105 0.401331
H5    H     H_    0.678598 0.482078 0.274592 0.214829
H6    H     H_    0.993487 0.411323 0.368689 0.232726
H7    H     H_    0.007010 0.594019 0.629698 0.224282
H8    H     H_    0.679704 0.479059 0.711459 0.247030
H9    H     H_    0.319049 0.505635 0.287259 0.239338
H10   H     H_    0.212264 0.591926 0.611708 0.167430
H11   H     H_    0.788933 0.418093 0.385218 0.214431
H12   H     H_    0.544723 0.246315 0.336874 0.352025
N1    N     N_R   0.590522 0.520640 0.962342 -0.058284
N2    N     N_R   0.409609 0.440178 0.037423 -0.055581
N3    N     N_R   0.590068 0.520855 0.031227 -0.057822
N4    N     N_R   0.410047 0.439982 0.968470 -0.056616
N5    N     N_R   0.207800 0.519350 0.512860 -0.143474
N6    N     N_R   0.792200 0.480650 0.487140 -0.159810
O1    O     O_R   0.421690 0.658830 0.503430 -0.582566
O2    O     O_2   0.700658 0.102493 0.356704 -0.203044
O3    O     O_3   0.611015 0.279309 0.358478 -0.570927
O4    O     O_2   0.240151 0.762048 0.468685 -0.229864
O5    O     O_2   0.286632 0.892903 0.378565 -0.204465
O6    O     O_3   0.384718 0.720536 0.367228 -0.568334
O7    O     O_2   0.287125 0.261266 0.616079 -0.300147
O8    O     O_2   0.181758 0.247083 0.510467 -0.241419
O9    O     O_3   0.156062 0.097982 0.600252 -0.427004
O10   O     O_2   0.711749 0.746490 0.599842 -0.250868
O11   O     O_2   0.814999 0.750419 0.485359 -0.257365
O12   O     O_R   0.578310 0.341170 0.496570 -0.572265
O13   O     O_3   0.845515 0.905811 0.569096 -0.417257
O14   O     O_R   0.609320 0.646410 0.495180 -0.550488
O15   O     O_R   0.390680 0.353590 0.504820 -0.543006
O16   O     O_R   0.406160 0.506220 0.605990 -0.644040
O17   O     O_R   0.593840 0.493780 0.394010 -0.631464
O18   O     O_R   0.593780 0.493810 0.597740 -0.567813
O19   O     O_R   0.406220 0.506190 0.402260 -0.568416
O20   O     O_2   0.757943 0.228578 0.444555 -0.193199
S1    S     S_3+6 0.660504 0.185315 0.405681 0.117383
S2    S     S_3+6 0.333094 0.810690 0.421454 0.123381
S3    S     S_3+6 0.244712 0.188452 0.561033 0.119393
S4    S     S_3+6 0.754435 0.814054 0.539557 0.130598
Zn1   Zn    Zn3+2 0.374720 0.508290 0.505510 1.097589
Zn2   Zn    Zn3+2 0.625280 0.491710 0.494490 1.104074

loop_
_geom_bond_atom_site_label_1
_geom_bond_atom_site_label_2
_ccdc_geom_bond_type
O16   Zn1   S    
C12   O12   A    
C11   C13   A    
C7    H11   S    
O2    S1    D    
C20   C30   S    
C12   C23   S    
C33   F6    S    
C19   C21   A    
C18   F1    S    
C24   C26   A    
C33   C35   A    
N1    N3    A    
C3    C33   A    
N2    N4    A    
H12   O3    S    
C30   N1    A    
C1    C31   S    
C34   S4    S    
N5    Zn1   S    
C17   C19   A    
O9    S3    S    
C15   O17   A    
C29   N3    A    
C22   C25   A    
C30   N4    A    
C32   F5    S    
C14   O18   A    
C14   C27   S    
O14   Zn2   S    
C5    C13   A    
C8    N5    A    
C16   C27   A    
O5    S2    D    
C1    O14   A    
H4    O13   S    
C2    S1    S    
C1    O1    A    
O17   Zn2   S    
C9    N6    A    
O6    S2    S    
C15   O19   A    
C17   H5    S    
C6    C11   A    
C5    C7    A    
C6    C8    A    
N6    Zn2   S    
C32   C34   A    
C2    C4    A    
C7    N6    A    
H2    O6    S    
C19   F2    S    
O13   S4    S    
C12   O15   A    
C31   C34   A    
C4    C32   A    
C9    C11   A    
H3    O9    S    
O19   Zn1   S    
C20   C22   A    
C23   C35   A    
C6    H7    S    
C5    H6    S    
C10   N5    A    
C8    H10   S    
C3    C4    A    
C26   H9    S    
O7    S3    D    
C9    F8    S    
O1    Zn1   S    
C10   F7    S    
C17   C28   A    
C10   C13   A    
C16   H1    S    
O10   S4    D    
C25   C27   A    
C26   C28   A    
C25   H8    S    
O18   Zn2   S    
C35   S3    S    
C15   C28   S    
C21   C29   S    
C3    C36   A    
C36   S2    S    
C22   F3    S    
C24   F4    S    
C18   C20   A    
C14   O16   A    
O11   S4    D    
O3    S1    S    
O4    S2    D    
C29   N2    A    
O15   Zn1   S    
C16   C18   A    
O20   S1    D    
C21   C24   A    
C2    C23   A    
C31   C36   A    
O12   Zn2   S    
O8    S3    D    
