data_mof_unit_51734.cif
_audit_creation_date              2012-12-10T16:50:08-0500
_audit_creation_method            fapswitch 2.2
_symmetry_space_group_name_H-M    P1
_symmetry_Int_Tables_number       1
_space_group_crystal_system       triclinic
_cell_length_a                    7.787277
_cell_length_b                    8.571918
_cell_length_c                    10.633976
_cell_angle_alpha                 91.50038
_cell_angle_beta                  84.088257
_cell_angle_gamma                 93.865891
_cell_volume                      704.324017317

loop_
_atom_site_label
_atom_site_type_symbol
_atom_type_description
_atom_site_fract_x
_atom_site_fract_y
_atom_site_fract_z
_atom_type_partial_charge
C1    C     C_R   0.545914 0.794795 0.496704 0.958674
C2    C     C_R   0.330038 0.502487 0.951269 0.032493
C3    C     C_R   0.476139 0.452986 0.873091 -0.077348
C4    C     C_R   0.620147 0.407509 0.925913 -0.212023
C5    C     C_R   0.629460 0.429275 0.053304 -0.202482
C6    C     C_R   0.501973 0.509908 0.125453 -0.074831
C7    C     C_2   0.570015 0.958364 0.494537 -0.362593
C8    C     C_2   0.429946 0.041600 0.504790 -0.359227
C9    C     C_R   0.493716 0.481001 0.739285 0.893203
C10   C     C_R   0.454072 0.205182 0.503001 0.971914
C11   C     C_R   0.502058 0.509121 0.259705 0.868677
C12   C     C_R   0.159413 0.500651 0.915382 0.387640
C13   C     C_R   0.041201 0.598796 0.978297 -0.354253
C14   C     C_R   0.084591 0.686732 0.084871 0.466625
C15   C     C_R   0.241315 0.664495 0.132738 -0.170055
C16   C     C_R   0.358857 0.561540 0.070908 -0.058043
H1    H     H_    0.725812 0.357759 0.868175 0.224676
H2    H     H_    0.985816 0.618347 0.595434 0.204626
H3    H     H_    0.915062 0.604482 0.945547 0.174686
H4    H     H_    0.270648 0.729184 0.217536 0.181159
H5    H     H_    0.738058 0.385701 0.094534 0.192907
H6    H     H_    0.702183 0.009739 0.484631 0.193710
H7    H     H_    0.297775 0.990225 0.514643 0.191031
H8    H     H_    0.014219 0.381644 0.404596 0.196763
N1    N     N_2   0.950330 0.457950 0.466250 -0.151673
N2    N     N_2   0.049670 0.542050 0.533750 -0.137358
O1    O     O_R   0.389250 0.738570 0.508280 -0.622684
O2    O     O_R   0.678390 0.711630 0.486650 -0.614567
O3    O     O_R   0.355400 0.513470 0.694050 -0.578612
O4    O     O_R   0.644540 0.486530 0.672420 -0.622257
O5    O     O_R   0.321610 0.288370 0.513350 -0.597710
O6    O     O_R   0.610750 0.261430 0.491720 -0.617284
O7    O     O_R   0.355460 0.513470 0.327580 -0.636007
O8    O     O_R   0.644600 0.486530 0.305950 -0.614580
Zn1   Zn    Zn3+2 0.306930 0.517990 0.514440 0.995207
Zn2   Zn    Zn3+2 0.693070 0.482010 0.485560 0.984404
Cl1   Cl    Cl    0.077436 0.351016 0.816171 -0.638248
O9    O     O_3   0.972752 0.786757 0.148674 -0.751274
H9    H     H_    0.866721 0.786536 0.104333 0.334717

loop_
_geom_bond_atom_site_label_1
_geom_bond_atom_site_label_2
_ccdc_geom_bond_type
C1    O2    A    
C3    C9    S    
C9    O3    A    
C14   O9    S    
C7    H6    S    
C2    C16   A    
O3    Zn1   S    
H2    N2    S    
O4    Zn2   S    
C2    C12   A    
C2    C3    A    
C7    C8    D    
C13   C14   A    
H8    N1    S    
O9    H9    S    
C9    O4    A    
C5    C6    A    
C4    H1    S    
O6    Zn2   S    
O7    Zn1   S    
O8    Zn2   S    
C15   H4    S    
O5    Zn1   S    
C13   H3    S    
N1    Zn2   S    
C6    C16   A    
C3    C4    A    
C10   O6    A    
N2    Zn1   S    
C11   O7    A    
C8    H7    S    
C5    H5    S    
C12   C13   A    
O2    Zn2   S    
C8    C10   S    
C12   Cl1   S    
C6    C11   S    
C1    O1    A    
C14   C15   A    
O1    Zn1   S    
N1    N2    D    
C1    C7    S    
C10   O5    A    
C11   O8    A    
C15   C16   A    
C4    C5    A    
