data_mof_unit_8604.cif
_audit_creation_date              2012-12-10T19:05:18-0500
_audit_creation_method            fapswitch 2.2
_symmetry_space_group_name_H-M    P1
_symmetry_Int_Tables_number       1
_space_group_crystal_system       triclinic
_cell_length_a                    9.532007
_cell_length_b                    10.825393
_cell_length_c                    17.389589
_cell_angle_alpha                 90.362111
_cell_angle_beta                  86.427916
_cell_angle_gamma                 90.216078
_cell_volume                      1790.85991192

loop_
_atom_site_label
_atom_site_type_symbol
_atom_type_description
_atom_site_fract_x
_atom_site_fract_y
_atom_site_fract_z
_atom_type_partial_charge
C1    C     C_R   0.500090 0.737680 0.501821 0.785408
C2    C     C_R   0.342171 0.509425 0.774950 -0.370804
C3    C     C_R   0.406062 0.486083 0.147147 -0.150247
C4    C     C_R   0.401139 0.491793 0.226820 -0.202566
C5    C     C_R   0.655716 0.495723 0.223260 -0.194538
C6    C     C_R   0.660754 0.490629 0.143092 -0.161643
C7    C     C_R   0.535964 0.487662 0.104699 0.188186
C8    C     C_2   0.443762 0.536160 0.979791 -0.159456
C9    C     C_2   0.543946 0.485807 0.020370 -0.260897
C10   C     C_R   0.525566 0.496372 0.265712 -0.031518
C11   C     C_R   0.373634 0.935705 0.513880 0.119561
C12   C     C_R   0.482383 0.504519 0.649923 0.836593
C13   C     C_R   0.500001 0.870699 0.510068 -0.092592
C14   C     C_R   0.626339 0.936143 0.516870 -0.224320
C15   C     C_R   0.626120 0.064915 0.516612 -0.222236
C16   C     C_R   0.499635 0.129085 0.509142 -0.095672
C17   C     C_R   0.373516 0.062905 0.513027 0.132224
C18   C     C_3   0.253927 0.066890 0.461589 -0.480949
C19   C     C_3   0.252908 0.926847 0.463380 -0.457694
C20   C     C_R   0.929135 0.402461 0.469415 0.261222
C21   C     C_R   0.921823 0.589907 0.536985 -0.051012
C22   C     C_R   0.070678 0.589691 0.537253 -0.086528
C23   C     C_R   0.499812 0.262211 0.501355 0.800312
C24   C     C_R   0.076780 0.402906 0.468886 0.263464
C25   C     C_3   0.089575 0.360568 0.387005 -0.515581
C26   C     C_3   0.930649 0.357595 0.388335 -0.508055
C27   C     C_R   0.517790 0.499531 0.350079 0.793443
C28   C     C_R   0.473902 0.516918 0.734283 -0.189376
C29   C     C_R   0.595220 0.542407 0.774525 0.465047
C30   C     C_R   0.584075 0.546324 0.854848 -0.319664
C31   C     C_R   0.453252 0.533610 0.895371 0.029754
C32   C     C_R   0.331051 0.517914 0.855284 0.461019
Cu1   Cu    Cu3+1 0.359330 0.500020 0.500000 0.940196
Cu2   Cu    Cu3+1 0.640670 0.499980 0.500000 0.956686
H1    H     H_    0.761904 0.491011 0.110973 0.125399
H2    H     H_    0.725826 0.888538 0.518631 0.165210
H3    H     H_    0.725504 0.113389 0.518352 0.165488
H4    H     H_    0.158164 0.108788 0.490581 0.196677
H5    H     H_    0.285990 0.104205 0.403710 0.193159
H6    H     H_    0.157326 0.887850 0.494283 0.189033
H7    H     H_    0.282107 0.883558 0.406471 0.203129
H8    H     H_    0.863381 0.664240 0.565369 0.135632
H9    H     H_    0.123426 0.663449 0.566325 0.135704
H10   H     H_    0.135795 0.432372 0.347989 0.209809
H11   H     H_    0.299412 0.492444 0.257646 0.143458
H12   H     H_    0.137483 0.267886 0.379797 0.192997
H13   H     H_    0.887846 0.426000 0.348911 0.213816
H14   H     H_    0.886611 0.262720 0.384189 0.195180
H15   H     H_    0.753295 0.499862 0.251662 0.141109
H16   H     H_    0.636364 0.444207 0.991230 0.157140
H17   H     H_    0.307943 0.479056 0.119281 0.126603
H18   H     H_    0.247196 0.496927 0.744629 0.191005
H19   H     H_    0.351221 0.577823 0.008578 0.180535
H20   H     H_    0.678132 0.560892 0.885508 0.153348
N1    N     N_R   0.852130 0.499070 0.499500 -0.184723
N2    N     N_R   0.148040 0.499110 0.499500 -0.185555
O1    O     O_R   0.381190 0.680360 0.500000 -0.584055
O2    O     O_R   0.618770 0.680320 0.499990 -0.600440
O3    O     O_R   0.367430 0.500040 0.613600 -0.594590
O4    O     O_R   0.605020 0.500000 0.613590 -0.531614
O5    O     O_R   0.381230 0.319680 0.500010 -0.578465
O6    O     O_R   0.618810 0.319640 0.500000 -0.586652
O7    O     O_R   0.394980 0.500000 0.386410 -0.586668
O8    O     O_R   0.632570 0.499960 0.386400 -0.587269
O9    O     O_3   0.725349 0.556829 0.735067 -0.592172
C33   C     C_3   0.779286 0.677728 0.745391 0.064759
H21   H     H_    0.887488 0.679433 0.717668 0.165909
H22   H     H_    0.790205 0.700775 0.807126 0.134400
C34   C     C_3   0.691616 0.776586 0.707229 -0.389384
H23   H     H_    0.673058 0.748223 0.647326 0.231221
H24   H     H_    0.587911 0.786413 0.739529 0.208730
C35   C     C_3   0.765793 0.901753 0.705911 -0.914851
H25   H     H_    0.787440 0.931206 0.765331 0.260336
H26   H     H_    0.697679 0.971989 0.680867 0.268567
H27   H     H_    0.866284 0.896555 0.670091 0.245241
O10   O     O_3   0.200172 0.517477 0.894441 -0.587599
C36   C     C_3   0.150031 0.394805 0.899649 0.069528
H28   H     H_    0.223885 0.335544 0.930162 0.143286
H29   H     H_    0.135050 0.355184 0.841455 0.147179
C37   C     C_3   0.008470 0.393818 0.945220 -0.796964
H30   H     H_    0.931829 0.450960 0.915680 0.249361
H31   H     H_    0.967802 0.297730 0.949932 0.200844
H32   H     H_    0.019915 0.431552 0.004061 0.239444

loop_
_geom_bond_atom_site_label_1
_geom_bond_atom_site_label_2
_ccdc_geom_bond_type
C10   C27   S    
C8    C9    D    
C33   H22   S    
C36   H28   S    
C30   H20   S    
C11   C19   S    
C12   C28   S    
C28   C29   A    
C3    C7    A    
C20   N1    A    
C14   H2    S    
C5    C6    A    
C33   C34   S    
C15   C16   A    
Cu2   O6    S    
C6    H1    S    
C2    C32   A    
C18   C19   S    
C34   H24   S    
C15   H3    S    
C12   O3    A    
C23   O6    A    
C20   C24   A    
C16   C17   A    
C26   H14   S    
Cu1   N2    S    
C33   H21   S    
Cu2   N1    S    
Cu1   O3    S    
C21   C22   A    
Cu2   O4    S    
C5    H15   S    
C35   H27   S    
C25   H10   S    
Cu1   Cu2   S    
C4    H11   S    
C36   H29   S    
C24   C25   S    
C35   H26   S    
C27   O8    A    
C21   N1    A    
C3    H17   S    
C37   H30   S    
C22   N2    A    
C25   C26   S    
C34   C35   S    
C18   H5    S    
C29   C30   A    
C1    O1    A    
C31   C32   A    
Cu1   O7    S    
Cu2   O8    S    
C17   C18   S    
O10   C36   S    
C2    H18   S    
C26   H13   S    
C29   O9    S    
C37   H31   S    
C16   C23   S    
C1    C13   S    
C4    C10   A    
C3    C4    A    
C37   H32   S    
C36   C37   S    
C7    C9    S    
C11   C17   A    
Cu1   O1    S    
C8    C31   S    
C9    H16   S    
C35   H25   S    
C8    H19   S    
C32   O10   S    
C6    C7    A    
C24   N2    A    
C18   H4    S    
C5    C10   A    
C1    O2    A    
C11   C13   A    
C30   C31   A    
C20   C26   S    
C34   H23   S    
C19   H6    S    
C21   H8    S    
C12   O4    A    
C23   O5    A    
Cu1   O5    S    
O9    C33   S    
Cu2   O2    S    
C14   C15   A    
C27   O7    A    
C2    C28   A    
C13   C14   A    
C25   H12   S    
C22   H9    S    
C19   H7    S    
