data_mof_unit_19493.cif
_audit_creation_date              2012-12-10T17:21:39-0500
_audit_creation_method            fapswitch 2.2
_symmetry_space_group_name_H-M    P1
_symmetry_Int_Tables_number       1
_space_group_crystal_system       triclinic
_cell_length_a                    10.732283
_cell_length_b                    10.782923
_cell_length_c                    9.603261
_cell_angle_alpha                 90.27689
_cell_angle_beta                  90.302998
_cell_angle_gamma                 92.383542
_cell_volume                      1110.34980276

loop_
_atom_site_label
_atom_site_type_symbol
_atom_type_description
_atom_site_fract_x
_atom_site_fract_y
_atom_site_fract_z
_atom_type_partial_charge
C1    C     C_R   0.497165 0.262684 0.499703 0.796103
C2    C     C_3   0.876739 0.490409 0.501073 0.055736
C3    C     C_3   0.932110 0.625259 0.496090 -0.508608
C4    C     C_3   0.920603 0.417633 0.370974 -0.410131
C5    C     C_R   0.300189 0.123088 0.645873 -0.193522
C6    C     C_R   0.208531 0.055638 0.718476 -0.131283
C7    C     C_R   0.209432 0.926926 0.721444 -0.149498
C8    C     C_R   0.302367 0.864811 0.652144 -0.190131
C9    C     C_R   0.396672 0.931273 0.577804 0.104240
C10   C     C_R   0.395990 0.062328 0.575622 0.099026
C11   C     C_R   0.488865 0.128699 0.499188 -0.107595
C12   C     C_R   0.259765 0.494496 0.499369 0.770711
C13   C     C_R   0.576163 0.066784 0.420720 -0.189600
C14   C     C_R   0.576076 0.938759 0.421440 -0.209507
C15   C     C_R   0.489154 0.870860 0.501234 -0.095543
C16   C     C_R   0.667651 0.662891 0.145500 -0.151144
C17   C     C_R   0.750352 0.741477 0.074112 -0.221507
C18   C     C_R   0.750270 0.741410 0.930616 -0.202956
C19   C     C_R   0.667453 0.662763 0.857665 -0.154107
C20   C     C_R   0.582466 0.579871 0.926034 0.197052
C21   C     C_R   0.582491 0.579862 0.075579 0.209012
C22   C     C_R   0.421500 0.424069 0.072982 -0.049989
C23   C     C_R   0.496554 0.737196 0.500360 0.768096
C24   C     C_R   0.421498 0.424128 0.925130 -0.076735
C25   C     C_R   0.739357 0.494941 0.500427 0.798112
C26   C     C_3   0.069694 0.424544 0.631233 -0.508491
C27   C     C_3   0.925568 0.427189 0.636054 0.341708
C28   C     C_3   0.075523 0.625691 0.503035 -0.410735
C29   C     C_3   0.064305 0.414865 0.370578 0.329242
C30   C     C_3   0.121226 0.491098 0.497993 0.015718
Cu1   Cu    Cu3+1 0.499990 0.499990 0.640660 0.909119
Cu2   Cu    Cu3+1 0.500010 0.500010 0.359340 0.933336
H1    H     H_    0.108754 0.470326 0.726669 0.171926
H2    H     H_    0.885240 0.458863 0.273511 0.181376
H3    H     H_    0.117842 0.685026 0.420471 0.158096
H4    H     H_    0.901243 0.672387 0.399924 0.171080
H5    H     H_    0.646395 0.118047 0.360971 0.154021
H6    H     H_    0.293256 0.222625 0.643227 0.129752
H7    H     H_    0.135921 0.103529 0.771474 0.127542
H8    H     H_    0.136730 0.875196 0.776161 0.138249
H9    H     H_    0.297955 0.764801 0.655819 0.155542
H10   H     H_    0.646091 0.892410 0.361846 0.137582
H11   H     H_    0.357091 0.361807 0.127365 0.168637
H12   H     H_    0.099719 0.327132 0.634023 0.173396
H13   H     H_    0.674438 0.672152 0.255242 0.192439
H14   H     H_    0.814479 0.803528 0.130925 0.138144
H15   H     H_    0.814377 0.803370 0.875071 0.145490
H16   H     H_    0.673883 0.671737 0.748008 0.197146
H17   H     H_    0.356973 0.361987 0.869270 0.133975
H18   H     H_    0.902318 0.487262 0.726782 0.085461
H19   H     H_    0.106080 0.669870 0.602771 0.172900
H20   H     H_    0.897048 0.679836 0.585433 0.160742
H21   H     H_    0.085616 0.316518 0.392018 0.109603
H22   H     H_    0.879843 0.320978 0.372874 0.166915
N1    N     N_R   0.501200 0.501210 0.147910 -0.204120
N2    N     N_R   0.501250 0.501290 0.852040 -0.202539
O1    O     O_R   0.499990 0.319640 0.618810 -0.587889
O2    O     O_R   0.500000 0.319660 0.381240 -0.574443
O3    O     O_R   0.317680 0.499970 0.618790 -0.595757
O4    O     O_R   0.317700 0.499990 0.381210 -0.550423
O5    O     O_R   0.500000 0.680340 0.618760 -0.597055
O6    O     O_R   0.500010 0.680360 0.381190 -0.592711
O7    O     O_R   0.682300 0.500010 0.618790 -0.618680
O8    O     O_R   0.682320 0.500030 0.381210 -0.609141
O9    O     O_3   0.873810 0.303643 0.645726 -0.625554
C31   C     C_3   0.811249 0.281656 0.773532 0.088997
H23   H     H_    0.739259 0.206146 0.755607 0.170763
H24   H     H_    0.759468 0.362714 0.810686 0.157792
C32   C     C_3   0.901855 0.238732 0.885448 -0.394558
H25   H     H_    0.933564 0.145216 0.857214 0.215904
H26   H     H_    0.984864 0.303417 0.891369 0.215335
C33   C     C_3   0.840010 0.232407 0.028197 -0.904338
H27   H     H_    0.808396 0.325314 0.059344 0.252628
H28   H     H_    0.908029 0.201587 0.107025 0.261970
H29   H     H_    0.758627 0.165292 0.026008 0.257064
O10   O     O_3   0.117934 0.436557 0.236806 -0.611518
C34   C     C_3   0.103226 0.556663 0.181849 0.107280
H30   H     H_    0.190947 0.613060 0.199194 0.178785
H31   H     H_    0.025060 0.606588 0.226826 0.130742
C35   C     C_3   0.078417 0.545560 0.025651 -0.351694
H32   H     H_    0.147955 0.485397 0.977299 0.220933
H33   H     H_    0.983730 0.502427 0.008426 0.217081
C36   C     C_3   0.085766 0.672360 0.956063 -0.960941
H34   H     H_    0.025296 0.737939 0.010431 0.257677
H35   H     H_    0.053636 0.663090 0.846478 0.245273
H36   H     H_    0.183508 0.710547 0.957633 0.266992

loop_
_geom_bond_atom_site_label_1
_geom_bond_atom_site_label_2
_ccdc_geom_bond_type
C8    C9    A    
C31   H24   S    
C16   C21   A    
Cu1   O5    S    
C19   C20   A    
C1    C11   S    
Cu2   O2    S    
C20   N2    A    
C18   H15   S    
C26   H12   S    
C7    C8    A    
C29   O10   S    
C34   H30   S    
C26   C27   S    
C36   H34   S    
C3    C28   S    
C33   H29   S    
C5    C6    A    
C28   H19   S    
C31   C32   S    
C18   C19   A    
C25   O7    A    
Cu1   O3    S    
C32   H26   S    
C12   O3    A    
C23   O6    A    
C22   H11   S    
C28   H3    S    
C16   C17   A    
C7    H8    S    
C2    C27   S    
Cu1   N2    S    
C9    C10   A    
Cu2   N1    S    
C13   H5    S    
C4    C29   S    
C27   H18   S    
C14   H10   S    
C12   C30   S    
C15   C23   S    
C31   H23   S    
C5    H6    S    
C35   C36   S    
O10   C34   S    
C34   H31   S    
C4    H2    S    
Cu1   O7    S    
C17   H14   S    
Cu2   O8    S    
C35   H33   S    
C21   N1    A    
C19   H16   S    
C33   H27   S    
C25   O8    A    
C32   C33   S    
C2    C4    S    
C29   C30   S    
C27   O9    S    
C1    O1    A    
C26   H1    S    
Cu1   Cu2   S    
C17   C18   A    
C8    H9    S    
C22   N1    A    
C33   H28   S    
C36   H35   S    
C26   C30   S    
C22   C24   A    
Cu2   O4    S    
C34   C35   S    
C24   H17   S    
C4    H22   S    
C14   C15   A    
C35   H32   S    
C16   H13   S    
C3    H20   S    
C6    C7    A    
C24   N2    A    
Cu1   O1    S    
C28   C30   S    
C2    C3    S    
C9    C15   A    
Cu2   O6    S    
C5    C10   A    
C1    O2    A    
C11   C13   A    
C29   H21   S    
C3    H4    S    
C2    C25   S    
C32   H25   S    
C10   C11   A    
C12   O4    A    
C23   O5    A    
C36   H36   S    
C20   C21   A    
O9    C31   S    
C6    H7    S    
C13   C14   A    
