data_mof_unit_53669.cif
_audit_creation_date              2012-12-11T15:14:49-0500
_audit_creation_method            fapswitch 2.2
_symmetry_space_group_name_H-M    P1
_symmetry_Int_Tables_number       1
_space_group_crystal_system       triclinic
_cell_length_a                    22.358572
_cell_length_b                    7.215129
_cell_length_c                    19.240314
_cell_angle_alpha                 90.248581
_cell_angle_beta                  98.999504
_cell_angle_gamma                 90.288323
_cell_volume                      3065.55769063

loop_
_atom_site_label
_atom_site_type_symbol
_atom_type_description
_atom_site_fract_x
_atom_site_fract_y
_atom_site_fract_z
_atom_type_partial_charge
O1    O     O_R   0.448470 0.506130 0.415700 -0.536209
O2    O     O_R   0.551530 0.006130 0.584300 -0.536068
O3    O     O_R   0.436320 0.174490 0.555800 -0.515535
O4    O     O_R   0.563680 0.674490 0.444200 -0.517546
C1    C     C_R   0.421234 0.344443 0.575156 0.714810
C2    C     C_R   0.577963 0.844377 0.423895 0.711452
O5    O     O_R   0.441350 0.176340 0.414480 -0.529879
O6    O     O_R   0.558650 0.676340 0.585520 -0.529864
O7    O     O_R   0.556600 0.007100 0.441970 -0.536172
O8    O     O_R   0.443400 0.507100 0.558030 -0.537253
C3    C     C_R   0.425516 0.344345 0.390146 0.685080
C4    C     C_R   0.574526 0.845894 0.609691 0.681596
O9    O     O_3   0.537810 0.339550 0.509190 -0.366798
O10   O     O_3   0.462190 0.839550 0.490810 -0.366735
V1    V     V_3+5 0.492990 0.064280 0.498300 1.513513
V2    V     V_3+5 0.507010 0.564280 0.501700 1.510966
C5    C     C_R   0.874039 0.862799 0.694451 0.240295
C6    C     C_R   0.127158 0.437865 0.308132 0.270087
C7    C     C_R   0.887358 0.934369 0.819890 -0.118970
C8    C     C_R   0.113850 0.443078 0.179776 -0.116898
C9    C     C_R   0.591392 0.894006 0.738860 -0.039161
C10   C     C_R   0.408701 0.382105 0.260460 -0.042094
C11   C     C_R   0.628226 0.938862 0.801836 -0.150971
C12   C     C_R   0.371708 0.415475 0.196672 -0.150731
C13   C     C_R   0.690680 0.951714 0.805775 -0.142577
C14   C     C_R   0.309154 0.423135 0.192419 -0.143548
C15   C     C_R   0.719375 0.913763 0.746863 0.089606
C16   C     C_R   0.280649 0.390421 0.251807 0.090363
C17   C     C_R   0.681973 0.862886 0.681904 -0.031333
C18   C     C_R   0.318070 0.348240 0.317213 -0.014019
C19   C     C_R   0.784260 0.917453 0.751463 -0.001760
C20   C     C_R   0.216050 0.402691 0.247942 -0.019061
C21   C     C_R   0.810243 0.888277 0.689345 -0.008760
C22   C     C_R   0.190456 0.402865 0.311378 0.032713
C23   C     C_R   0.771667 0.874542 0.623629 0.267464
C24   C     C_R   0.228411 0.360286 0.375659 0.239600
C25   C     C_R   0.710845 0.822831 0.623202 -0.140687
C26   C     C_R   0.288872 0.307860 0.375437 -0.157511
C27   C     C_R   0.824270 0.945850 0.815959 -0.209646
C28   C     C_R   0.176175 0.414492 0.182718 -0.214562
C29   C     C_R   0.912072 0.888624 0.759440 -0.098362
C30   C     C_R   0.090138 0.464466 0.242525 -0.115796
C31   C     C_R   0.617028 0.858741 0.677678 -0.114068
C32   C     C_R   0.383085 0.351350 0.321946 -0.115262
H1    H     H_    0.808042 0.970081 0.865006 0.106345
H2    H     H_    0.192103 0.397385 0.132997 0.108923
H3    H     H_    0.715127 0.993063 0.856162 0.115282
H4    H     H_    0.284343 0.461146 0.141951 0.116202
H5    H     H_    0.608267 0.968105 0.848538 0.130519
H6    H     H_    0.391609 0.441577 0.149727 0.130434
C33   C     C_3   0.766837 0.786970 0.299741 0.295877
C34   C     C_3   0.227225 0.289450 0.693501 0.302548
C35   C     C_3   0.798321 0.969514 0.282249 -0.199759
C36   C     C_3   0.196931 0.472716 0.712036 -0.198548
H7    H     H_    0.840756 0.030052 0.311339 0.130424
H8    H     H_    0.154769 0.534266 0.683500 0.135306
H9    H     H_    0.725866 0.206399 0.291290 0.155494
H10   H     H_    0.270749 0.707916 0.703551 0.155076
C37   C     C_1   0.873940 0.939270 0.119251 -0.163248
C38   C     C_1   0.124123 0.440597 0.878261 -0.158932
C39   C     C_1   0.622225 0.854388 0.376531 -0.147608
C40   C     C_1   0.374741 0.354604 0.619725 -0.136115
C41   C     C_3   0.757409 0.728983 0.221917 0.213910
C42   C     C_3   0.236596 0.231316 0.771139 0.210577
C43   C     C_3   0.788095 0.910894 0.203077 -0.009139
C44   C     C_3   0.207209 0.413922 0.790958 -0.009553
C45   C     C_3   0.695613 0.826054 0.210896 0.211257
C46   C     C_3   0.298976 0.327042 0.782328 0.209772
C47   C     C_3   0.704864 0.882733 0.289081 0.021861
C48   C     C_3   0.289829 0.383807 0.704321 0.017308
C49   C     C_3   0.725739 0.008018 0.192265 -0.041421
C50   C     C_3   0.270113 0.509673 0.801807 -0.039388
C51   C     C_3   0.735271 0.066934 0.271041 -0.226236
C52   C     C_3   0.260615 0.568660 0.723295 -0.227699
C53   C     C_1   0.835017 0.927288 0.156639 -0.024340
C54   C     C_1   0.161631 0.429653 0.839057 -0.022042
C55   C     C_1   0.659232 0.866295 0.336848 0.019365
C56   C     C_1   0.336200 0.366772 0.657456 0.025650
O11   O     O_R   0.056650 0.288730 0.942060 -0.534866
O12   O     O_R   0.943350 0.788730 0.057940 -0.528094
O13   O     O_R   0.058660 0.616870 0.085540 -0.536476
O14   O     O_R   0.941340 0.116870 0.914460 -0.538583
C57   C     C_R   0.073181 0.449210 0.110872 0.708226
C58   C     C_R   0.927219 0.947683 0.889008 0.704986
O15   O     O_R   0.063700 0.618520 0.944220 -0.529902
O16   O     O_R   0.936300 0.118520 0.055780 -0.536327
O17   O     O_R   0.948460 0.787610 0.915680 -0.532096
O18   O     O_R   0.051540 0.287610 0.084320 -0.533848
C59   C     C_R   0.078740 0.450093 0.924471 0.714622
C60   C     C_R   0.920826 0.949793 0.074963 0.714189
O19   O     O_3   0.962230 0.453430 0.990860 -0.374678
O20   O     O_3   0.037770 0.953430 0.009140 -0.374606
V3    V     V_3+5 0.007010 0.728750 0.001700 1.463511
V4    V     V_3+5 0.992990 0.228750 0.998300 1.444403
C61   C     C_1   0.976618 0.857261 0.764823 0.281167
N1    N     N_1   0.028072 0.831211 0.769159 -0.397264
C62   C     C_1   0.026795 0.508897 0.239802 0.286892
N2    N     N_1   0.976274 0.545201 0.237823 -0.405338
N3    N     N_2   0.785989 0.667568 0.359330 -0.516114
H11   H     H_    0.767517 0.536136 0.354168 0.259625
C63   C     C_3   0.849308 0.676424 0.389656 -0.525063
H12   H     H_    0.860618 0.816264 0.412399 0.210018
H13   H     H_    0.878382 0.645913 0.349283 0.198320
H14   H     H_    0.858699 0.573709 0.432744 0.199173
N4    N     N_2   0.207073 0.171093 0.633273 -0.514157
H15   H     H_    0.225697 0.040452 0.637059 0.259503
C64   C     C_3   0.143327 0.177111 0.604734 -0.566041
H16   H     H_    0.131117 0.317115 0.583651 0.209431
H17   H     H_    0.115262 0.142758 0.645689 0.197676
H18   H     H_    0.133300 0.075928 0.560747 0.194468
C65   C     C_1   0.703659 0.133237 0.134126 0.349262
N5    N     N_1   0.686167 0.231680 0.088188 -0.382052
C66   C     C_1   0.292880 0.636008 0.860012 0.348033
N6    N     N_1   0.310839 0.735629 0.905923 -0.380836
N7    N     N_2   0.639396 0.743239 0.176503 -0.501758
H19   H     H_    0.630108 0.618348 0.198503 0.285545
C67   C     C_3   0.629534 0.740059 0.100424 -0.479868
H20   H     H_    0.588985 0.654027 0.080970 0.204072
H21   H     H_    0.669017 0.680789 0.079935 0.187344
H22   H     H_    0.620713 0.881953 0.079684 0.208066
N8    N     N_2   0.354752 0.243203 0.816255 -0.502112
H23   H     H_    0.363428 0.118549 0.793494 0.284309
C68   C     C_3   0.364449 0.238609 0.892304 -0.477363
H24   H     H_    0.405059 0.154098 0.911292 0.205089
H25   H     H_    0.324974 0.176740 0.912227 0.188550
H26   H     H_    0.373046 0.380364 0.914043 0.206422
N9    N     N_2   0.766106 0.547541 0.192583 -0.522091
H27   H     H_    0.754340 0.544837 0.138685 0.274544
C69   C     C_3   0.824151 0.462790 0.215200 -0.503502
H28   H     H_    0.828632 0.337327 0.182850 0.201849
H29   H     H_    0.827981 0.418317 0.270702 0.206008
H30   H     H_    0.861081 0.560820 0.208653 0.230238
N10   N     N_2   0.226484 0.050618 0.799995 -0.525434
H31   H     H_    0.237303 0.048621 0.853997 0.271689
C70   C     C_3   0.168474 0.964887 0.775613 -0.482689
H32   H     H_    0.162461 0.842367 0.808615 0.212397
H33   H     H_    0.166557 0.914875 0.720824 0.205698
H34   H     H_    0.131115 0.063619 0.779196 0.209552
N11   N     N_2   0.794605 0.915280 0.559395 -0.482145
H35   H     H_    0.831459 0.003699 0.566578 0.271983
C71   C     C_3   0.752573 0.968161 0.497578 -0.510505
H36   H     H_    0.777530 0.035169 0.458696 0.191390
H37   H     H_    0.718540 0.067824 0.511516 0.189887
H38   H     H_    0.730327 0.843403 0.471607 0.232467
N12   N     N_2   0.205671 0.363081 0.440945 -0.479740
H39   H     H_    0.210663 0.240579 0.468604 0.270515
C72   C     C_3   0.224368 0.523565 0.484454 -0.457566
H40   H     H_    0.201737 0.521605 0.531828 0.198864
H41   H     H_    0.211250 0.652879 0.454889 0.197897
H42   H     H_    0.274185 0.522740 0.501707 0.178990
N13   N     N_2   0.899131 0.790963 0.636022 -0.522046
H43   H     H_    0.941398 0.841662 0.630825 0.253920
C73   C     C_3   0.894215 0.591848 0.627533 -0.490586
H44   H     H_    0.911296 0.549967 0.578648 0.185508
H45   H     H_    0.846204 0.546417 0.623079 0.211456
H46   H     H_    0.921567 0.521817 0.673036 0.185012
N14   N     N_2   0.100166 0.444069 0.370566 -0.480290
H47   H     H_    0.073000 0.557731 0.374146 0.251719
C74   C     C_3   0.071862 0.272124 0.387005 -0.507302
H48   H     H_    0.057832 0.283837 0.439706 0.189343
H49   H     H_    0.104149 0.155182 0.388092 0.201642
H50   H     H_    0.031170 0.241975 0.347471 0.184633
C75   C     C_1   0.526541 0.889659 0.737845 0.291175
N15   N     N_1   0.474666 0.886258 0.736969 -0.352793
C76   C     C_1   0.473599 0.383917 0.261840 0.292276
N16   N     N_1   0.525516 0.385437 0.263010 -0.353101
C77   C     C_1   0.686553 0.682830 0.572544 0.296290
N17   N     N_1   0.668821 0.567111 0.532673 -0.334250
C78   C     C_1   0.314496 0.179405 0.429194 0.266134
N18   N     N_1   0.332630 0.071617 0.471497 -0.332302

loop_
_geom_bond_atom_site_label_1
_geom_bond_atom_site_label_2
_ccdc_geom_bond_type
C70   H34   S    
C41   C43   S    
C34   C48   S    
C76   N16   T    
C9    C75   S    
C48   C56   S    
C78   N18   T    
C47   C55   S    
C61   N1    T    
O1    C3    A    
C58   O17   A    
O2    C4    A    
C2    O7    A    
C62   N2    T    
C70   H32   S    
C25   C77   S    
C38   C59   S    
O5    C3    A    
N4    C64   S    
N14   H47   S    
O14   V4    S    
C42   C46   S    
C2    C39   S    
C23   C25   A    
C12   C14   A    
C69   H28   S    
C4    C31   S    
C67   H21   S    
C8    C28   A    
C68   H25   S    
C15   C17   A    
N7    H19   S    
C18   C26   A    
C69   H29   S    
H9    C51   S    
C45   N7    S    
O16   V4    S    
C72   H40   S    
C23   N11   S    
C36   C52   S    
C10   C76   S    
O15   V3    S    
C44   C50   S    
C75   N15   T    
C39   C55   T    
N7    C67   S    
C49   C65   S    
C48   C52   S    
N13   H43   S    
C74   H49   S    
C47   C51   S    
C73   H45   S    
C35   C43   S    
C13   H3    S    
C45   C49   S    
C14   H4    S    
C27   H1    S    
C69   H30   S    
O5    V1    S    
C57   O18   A    
N14   C74   S    
C9    C31   A    
C17   C31   A    
N13   C73   S    
C33   N3    S    
C64   H17   S    
C18   C32   A    
C8    C57   S    
C5    N13   S    
C5    C21   A    
N12   C72   S    
C34   C36   S    
N12   H39   S    
C36   H8    S    
C35   H7    S    
C12   H6    S    
O18   V4    S    
O11   C59   A    
C15   C19   A    
C63   H12   S    
C68   H24   S    
C72   H42   S    
C33   C41   S    
O11   V4    S    
C50   C52   S    
O16   C60   A    
C30   C62   S    
C77   N17   T    
C49   C51   S    
O15   C59   A    
C68   H26   S    
C43   C49   S    
C50   C66   S    
C38   C54   T    
C46   C50   S    
C45   C47   S    
C71   H37   S    
C42   C44   S    
O4    V2    S    
C28   H2    S    
N9    C69   S    
C41   C45   S    
O13   V3    S    
C74   H48   S    
C16   C20   A    
O6    C4    A    
C44   C54   S    
C19   C21   A    
C74   H50   S    
C3    C32   S    
O1    V2    S    
C73   H46   S    
O2    V1    S    
C6    C22   A    
N8    H23   S    
C7    C27   A    
O4    C2    A    
N3    C63   S    
C34   N4    S    
C63   H14   S    
O14   C58   A    
C9    C11   A    
C34   C42   S    
N10   H31   S    
C64   H18   S    
C10   C12   A    
C71   H38   S    
C64   H16   S    
C7    C58   S    
C37   C53   T    
C20   C28   A    
O3    V1    S    
H10   C52   S    
C26   C78   S    
N10   C70   S    
C66   N6    T    
C63   H13   S    
C70   H33   S    
C42   N10   S    
C10   C32   A    
C65   N5    T    
C72   H41   S    
C40   C56   T    
C35   C51   S    
O3    C1    A    
C46   N8    S    
O13   C57   A    
C8    C30   A    
N11   H35   S    
C36   C44   S    
C13   C15   A    
N4    H15   S    
C14   C16   A    
C43   C53   S    
N3    H11   S    
C6    C30   A    
O7    V1    S    
C1    O8    A    
C6    N14   S    
O8    V2    S    
C67   H20   S    
O19   V4    S    
N11   C71   S    
C29   C61   S    
O17   V3    S    
C16   C18   A    
O20   V3    S    
C21   C23   A    
C67   H22   S    
C1    C40   S    
C22   C24   A    
C11   C13   A    
O12   C60   A    
C5    C29   A    
N8    C68   S    
C11   H5    S    
C24   C26   A    
C7    C29   A    
C24   N12   S    
O6    V2    S    
O9    V2    S    
C17   C25   A    
C19   C27   A    
C46   C48   S    
O10   V1    S    
C33   C47   S    
C33   C35   S    
O12   V3    S    
C71   H36   S    
C37   C60   S    
C41   N9    S    
N9    H27   S    
C20   C22   A    
C73   H44   S    
