data_mof_unit_66184.cif
_audit_creation_date              2012-12-10T19:25:09-0500
_audit_creation_method            fapswitch 2.2
_symmetry_space_group_name_H-M    P1
_symmetry_Int_Tables_number       1
_space_group_crystal_system       triclinic
_cell_length_a                    18.672923
_cell_length_b                    18.5714
_cell_length_c                    18.995209
_cell_angle_alpha                 109.69381
_cell_angle_beta                  109.596948
_cell_angle_gamma                 108.969367
_cell_volume                      5080.2374165

loop_
_atom_site_label
_atom_site_type_symbol
_atom_type_description
_atom_site_fract_x
_atom_site_fract_y
_atom_site_fract_z
_atom_type_partial_charge
C1    C     C_R   0.879364 0.379428 0.999077 0.878699
C2    C     C_R   0.184756 0.499163 0.182474 -0.084801
C3    C     C_R   0.263071 0.511850 0.182252 -0.219897
C4    C     C_R   0.882465 0.502837 0.880966 0.927579
C5    C     C_R   0.327797 0.512550 0.247131 -0.191981
C6    C     C_R   0.312568 0.498040 0.310240 -0.083709
C7    C     C_R   0.233575 0.483755 0.306303 0.139688
C8    C     C_3   0.180704 0.466322 0.348479 -0.465942
C9    C     C_3   0.110695 0.468349 0.278568 -0.520855
C10   C     C_R   0.255343 0.758346 0.074347 0.122566
C11   C     C_R   0.183363 0.686014 0.998536 -0.093620
C12   C     C_R   0.814983 0.311538 0.998545 -0.086097
C13   C     C_R   0.175562 0.677694 0.919484 -0.213393
C14   C     C_R   0.240141 0.742500 0.919378 -0.213825
C15   C     C_R   0.313514 0.813746 0.998297 -0.097517
C16   C     C_R   0.119788 0.620244 0.000125 0.878909
C17   C     C_R   0.318691 0.818640 0.074215 0.129696
C18   C     C_3   0.372967 0.871207 0.170080 -0.488851
C19   C     C_3   0.300601 0.801259 0.170208 -0.472404
C20   C     C_R   0.497605 0.379387 0.377951 0.870861
C21   C     C_R   0.616404 0.497841 0.614638 0.925271
C22   C     C_R   0.496837 0.620146 0.616540 0.886181
C23   C     C_R   0.744348 0.238237 0.919716 -0.211220
C24   C     C_R   0.377491 0.499492 0.377176 0.898805
C25   C     C_R   0.501542 0.880337 0.881056 0.881383
C26   C     C_R   0.620413 0.120252 0.000259 0.874125
C27   C     C_R   0.498648 0.120076 0.118996 0.874742
C28   C     C_R   0.118973 0.499439 0.118664 0.884900
C29   C     C_R   0.379831 0.879934 0.999772 0.883690
C30   C     C_R   0.477245 0.310084 0.233483 0.107141
C31   C     C_R   0.494491 0.311455 0.311193 -0.080816
C32   C     C_R   0.498553 0.240714 0.320094 -0.213583
C33   C     C_R   0.498927 0.176362 0.256117 -0.219332
C34   C     C_R   0.679618 0.174298 0.919711 -0.220576
C35   C     C_R   0.492458 0.181987 0.182651 -0.095718
C36   C     C_R   0.475247 0.245296 0.169312 0.150085
C37   C     C_3   0.519515 0.307746 0.145093 -0.498263
C38   C     C_3   0.521882 0.379356 0.216218 -0.478576
C39   C     C_R   0.503427 0.760759 0.684151 0.067677
C40   C     C_2   0.758488 0.508339 0.681590 -0.153117
C41   C     C_R   0.500693 0.685991 0.685290 -0.093327
C42   C     C_R   0.500987 0.676161 0.755732 -0.199563
C43   C     C_R   0.503663 0.741671 0.822389 -0.216972
C44   C     C_R   0.503302 0.815233 0.816821 -0.078904
C45   C     C_R   0.687663 0.182915 0.998556 -0.090029
C46   C     C_R   0.503094 0.822054 0.746483 0.135738
C47   C     C_3   0.500998 0.876661 0.704276 -0.547910
C48   C     C_3   0.501340 0.805917 0.632425 -0.230706
C49   C     C_2   0.680545 0.490315 0.675496 -0.335639
C50   C     C_2   0.819952 0.496915 0.742949 -0.156109
C51   C     C_2   0.822614 0.512271 0.818080 -0.333049
C52   C     C_R   0.826863 0.313715 0.075713 0.101279
C53   C     C_2   0.418310 0.753363 0.546410 0.954046
C54   C     C_R   0.764270 0.249230 0.075599 0.147787
C55   C     C_3   0.775227 0.313181 0.156890 -0.504330
C56   C     C_3   0.844092 0.384483 0.156756 -0.470438
C57   C     C_R   0.172976 0.486074 0.245990 0.132024
H1    H     H_    0.775518 0.527318 0.638786 0.165891
H2    H     H_    0.377854 0.936985 0.196482 0.198524
H3    H     H_    0.321716 0.760378 0.193703 0.206605
H4    H     H_    0.264073 0.826730 0.197316 0.214400
H5    H     H_    0.506220 0.237998 0.378121 0.155977
H6    H     H_    0.506745 0.124186 0.264987 0.158737
H7    H     H_    0.585379 0.316821 0.158067 0.191019
H8    H     H_    0.475893 0.292634 0.079321 0.210279
H9    H     H_    0.589201 0.429985 0.270565 0.217766
H10   H     H_    0.479649 0.405612 0.191516 0.198323
H11   H     H_    0.499633 0.618772 0.759319 0.156088
H12   H     H_    0.911024 0.414323 0.211164 0.198936
H13   H     H_    0.865125 0.479249 0.727841 0.163491
H14   H     H_    0.503660 0.733889 0.876407 0.157278
H15   H     H_    0.439549 0.880108 0.684376 0.235957
H16   H     H_    0.562088 0.941288 0.742624 0.185491
H17   H     H_    0.562278 0.829944 0.628963 0.155954
H18   H     H_    0.784673 0.539718 0.837491 0.157580
H19   H     H_    0.736993 0.233061 0.858866 0.158470
H20   H     H_    0.622831 0.119862 0.858952 0.156001
H21   H     H_    0.802492 0.301642 0.211160 0.210599
H22   H     H_    0.824649 0.432266 0.146426 0.218142
H23   H     H_    0.274475 0.522465 0.133394 0.152658
H24   H     H_    0.388565 0.523358 0.247479 0.157723
H25   H     H_    0.210901 0.521846 0.414651 0.215747
H26   H     H_    0.119862 0.622147 0.858654 0.157593
H27   H     H_    0.286513 0.685509 0.480107 0.332918
H28   H     H_    0.715976 0.319673 0.146856 0.191607
H29   H     H_    0.160546 0.400293 0.342488 0.210377
H30   H     H_    0.050398 0.403371 0.231956 0.200527
H31   H     H_    0.100176 0.524971 0.304295 0.214180
H32   H     H_    0.233675 0.736289 0.858467 0.163044
H33   H     H_    0.436020 0.871144 0.194137 0.213737
H34   H     H_    0.659711 0.461749 0.711281 0.157084
O1    O     O_R   0.908050 0.460100 0.051390 -0.625630
O2    O     O_R   0.551950 0.908320 0.960240 -0.625073
O3    O     O_R   0.540220 0.091590 0.948580 -0.624553
O4    O     O_R   0.908730 0.356680 0.948620 -0.621319
O5    O     O_R   0.643000 0.091540 0.051310 -0.618592
O6    O     O_R   0.448050 0.091580 0.039660 -0.618538
O7    O     O_R   0.550830 0.091520 0.142390 -0.625150
O8    O     O_R   0.357000 0.908370 0.948590 -0.620721
O9    O     O_R   0.459780 0.908310 0.051320 -0.625263
O10   O     O_R   0.908630 0.551710 0.960350 -0.622434
O11   O     O_R   0.909310 0.448290 0.857570 -0.619634
O12   O     O_R   0.445680 0.356610 0.405790 -0.622569
O13   O     O_R   0.091270 0.643320 0.051380 -0.619835
O14   O     O_R   0.091950 0.539900 0.948610 -0.628282
O15   O     O_R   0.090690 0.551710 0.142430 -0.619691
O16   O     O_R   0.091370 0.448290 0.039650 -0.622418
O17   O     O_R   0.549120 0.460050 0.405790 -0.630705
O18   O     O_2   0.422462 0.741033 0.480839 -0.632017
O19   O     O_R   0.337001 0.718508 0.541424 -0.809526
O20   O     O_R   0.639540 0.551640 0.587850 -0.616140
O21   O     O_R   0.536110 0.448210 0.587860 -0.628140
O22   O     O_R   0.547900 0.643240 0.587840 -0.621019
O23   O     O_R   0.444470 0.539800 0.587850 -0.620395
O24   O     O_R   0.457480 0.551640 0.405780 -0.609532
O25   O     O_R   0.354050 0.448210 0.405780 -0.627044
O26   O     O_R   0.449170 0.908380 0.857510 -0.617039
Zn1   Zn    Zn3+2 0.999540 0.569060 0.068630 0.953334
Zn2   Zn    Zn3+2 0.000460 0.430940 0.931370 0.954174
Zn3   Zn    Zn3+2 0.565860 0.568990 0.496810 0.965127
Zn4   Zn    Zn3+2 0.427730 0.430860 0.496820 0.955528
Zn5   Zn    Zn3+2 0.431370 0.999990 0.931350 0.960771
Zn6   Zn    Zn3+2 0.568630 0.999910 0.068550 0.951814

loop_
_geom_bond_atom_site_label_1
_geom_bond_atom_site_label_2
_ccdc_geom_bond_type
C53   O19   S    
C26   O3    A    
C55   C56   S    
C27   O7    A    
C25   O2    A    
C41   C42   A    
O17   Zn3   S    
C35   C36   A    
C23   H19   S    
C43   C44   A    
C37   H7    S    
C21   C49   S    
C2    C57   A    
C7    C8    S    
C39   C41   A    
C20   O12   A    
C12   C23   A    
O6    Zn5   S    
C56   H22   S    
C8    H25   S    
O10   Zn1   S    
C36   C37   S    
C51   H18   S    
C34   H20   S    
C30   C31   A    
C22   C41   S    
C10   C17   A    
C40   C49   D    
C30   C38   S    
C18   C19   S    
O1    Zn1   S    
C26   C45   S    
C12   C52   A    
C46   C47   S    
O23   Zn4   S    
C16   O13   A    
C22   O22   A    
C38   H9    S    
C28   O15   A    
C8    C9    S    
C4    O11   A    
C9    C57   S    
C29   O9    A    
C33   H6    S    
C13   C14   A    
O15   Zn1   S    
C42   H11   S    
O7    Zn6   S    
C1    C12   S    
C49   H34   S    
C3    H23   S    
C25   C44   S    
O16   Zn2   S    
C21   O20   A    
C52   C54   A    
C15   C29   S    
O13   Zn1   S    
C26   O5    A    
C48   C53   S    
C40   H1    S    
O25   Zn4   S    
C29   O8    A    
C4    C51   S    
C18   H33   S    
C48   H17   S    
C47   H16   S    
C56   H12   S    
C55   H21   S    
C44   C46   A    
O4    Zn2   S    
H27   O19   S    
C37   H8    S    
O20   Zn3   S    
C55   H28   S    
O26   Zn5   S    
C14   H32   S    
C37   C38   S    
O22   Zn3   S    
C5    H24   S    
C11   C16   S    
C47   C48   S    
C10   C19   S    
C1    O4    A    
C23   C34   A    
C6    C24   S    
C4    O10   A    
C17   C18   S    
C50   C51   D    
C34   C45   A    
C16   O14   A    
O8    Zn5   S    
O3    Zn5   S    
C45   C54   A    
C24   O25   A    
C1    O1    A    
C39   C46   A    
C42   C43   A    
O12   Zn4   S    
C21   O21   A    
C53   O18   D    
C15   C17   A    
C54   C55   S    
C27   O6    A    
C43   H14   S    
O5    Zn6   S    
C31   C32   A    
O2    Zn6   S    
C3    C5    A    
C25   O26   A    
C6    C7    A    
C19   H3    S    
C13   H26   S    
C30   C36   A    
O9    Zn6   S    
C27   C35   S    
C32   C33   A    
C2    C3    A    
C50   H13   S    
C32   H5    S    
O21   Zn4   S    
C9    H31   S    
C9    H30   S    
C11   C13   A    
C5    C6    A    
C19   H4    S    
C40   C50   S    
C33   C35   A    
C8    H29   S    
C47   H15   S    
C10   C11   A    
C18   H2    S    
C22   O23   A    
C38   H10   S    
C24   O24   A    
O24   Zn3   S    
C14   C15   A    
O14   Zn2   S    
C2    C28   S    
C28   O16   A    
C7    C57   A    
O11   Zn2   S    
C52   C56   S    
C39   C48   S    
C20   O17   A    
C20   C31   S    
