data_mof_unit_17316.cif
_audit_creation_date              2012-12-11T17:00:26-0500
_audit_creation_method            fapswitch 2.2
_symmetry_space_group_name_H-M    P1
_symmetry_Int_Tables_number       1
_space_group_crystal_system       triclinic
_cell_length_a                    6.961345
_cell_length_b                    13.5477
_cell_length_c                    20.312249
_cell_angle_alpha                 103.194373
_cell_angle_beta                  90.113444
_cell_angle_gamma                 90.499097
_cell_volume                      1864.99560023

loop_
_atom_site_label
_atom_site_type_symbol
_atom_type_description
_atom_site_fract_x
_atom_site_fract_y
_atom_site_fract_z
_atom_type_partial_charge
O1    O     O_R   0.506770 0.599700 0.449550 -0.543234
O2    O     O_R   0.179980 0.595740 0.587960 -0.541810
O3    O     O_R   0.004580 0.400300 0.550450 -0.537319
C1    C     C_R   0.348541 0.617891 0.615015 0.704500
O4    O     O_R   0.177380 0.611700 0.452380 -0.537281
O5    O     O_R   0.001970 0.416370 0.413900 -0.539315
C2    C     C_R   0.346102 0.637276 0.434924 0.691337
O6    O     O_R   0.509390 0.583630 0.586100 -0.546759
O7    O     O_3   0.337530 0.435890 0.487530 -0.370679
V1    V     V_3+5 0.064660 0.511890 0.502310 1.414798
O8    O     O_R   0.671950 0.404260 0.412040 -0.544778
C3    C     C_R   0.840245 0.382555 0.384841 0.696720
O9    O     O_R   0.674540 0.388300 0.547620 -0.540307
C4    C     C_R   0.842948 0.361824 0.564469 0.688657
V2    V     V_3+5 0.564030 0.488110 0.497690 1.405259
O10   O     O_3   0.841030 0.564110 0.512470 -0.376607
C5    C     C_R   0.861836 0.108705 0.610197 -0.160792
H1    H     H_    0.855231 0.158690 0.517299 0.102774
H2    H     H_    0.872567 0.982691 0.692651 0.113570
H3    H     H_    0.866131 0.029433 0.584190 0.111283
C6    C     C_R   0.850486 0.284496 0.604229 -0.028643
C7    C     C_R   0.856514 0.317140 0.930493 -0.170316
C8    C     C_R   0.850095 0.393708 0.895288 -0.115719
C9    C     C_R   0.849721 0.370290 0.824824 -0.156115
C10   C     C_R   0.855900 0.268332 0.787372 0.072334
C11   C     C_R   0.861958 0.190084 0.823923 0.073090
C12   C     C_R   0.856241 0.241417 0.715043 0.071295
C13   C     C_R   0.862059 0.137253 0.681163 0.147209
C14   C     C_R   0.867941 0.062206 0.718169 -0.208679
C15   C     C_R   0.867979 0.088025 0.788335 -0.198248
C16   C     C_R   0.850953 0.314115 0.674886 -0.217976
C17   C     C_R   0.855748 0.181937 0.571999 -0.173588
C18   C     C_R   0.862244 0.215643 0.895622 -0.075231
H4    H     H_    0.846735 0.394301 0.696674 0.127431
H5    H     H_    0.856962 0.337078 0.985292 0.103874
H6    H     H_    0.844471 0.433968 0.801439 0.142720
H7    H     H_    0.845468 0.472132 0.922861 0.124681
H8    H     H_    0.872731 0.026945 0.814555 0.107591
C19   C     C_R   0.712862 0.252744 0.203176 0.106060
C20   C     C_R   0.867600 0.187595 0.182917 -0.112930
C21   C     C_R   0.021428 0.193325 0.228876 -0.170253
H9    H     H_    0.143243 0.144032 0.215674 0.129747
C22   C     C_R   0.013174 0.257228 0.294184 -0.181483
H10   H     H_    0.129758 0.256073 0.329216 0.127899
C23   C     C_R   0.850181 0.316732 0.315680 -0.111408
C24   C     C_R   0.704112 0.315530 0.267943 0.128209
C25   C     C_3   0.494602 0.295716 0.273404 -0.420376
C26   C     C_3   0.504138 0.228021 0.202777 -0.400706
H11   H     H_    0.407363 0.364761 0.275955 0.187299
H12   H     H_    0.463332 0.253341 0.313066 0.166143
H13   H     H_    0.423686 0.258357 0.164485 0.177698
H14   H     H_    0.477614 0.146606 0.201450 0.164454
C27   C     C_R   0.501266 0.679976 0.729681 0.102490
C28   C     C_R   0.352532 0.684296 0.684051 -0.161473
C29   C     C_R   0.197062 0.748679 0.707958 -0.120225
H15   H     H_    0.078638 0.754333 0.674593 0.122913
C30   C     C_R   0.197957 0.811135 0.773729 -0.161131
H16   H     H_    0.081087 0.863271 0.788935 0.118413
C31   C     C_R   0.355079 0.811672 0.817451 -0.112747
C32   C     C_R   0.503104 0.742795 0.794572 0.039889
C33   C     C_3   0.713690 0.762398 0.792104 -0.361571
C34   C     C_3   0.711667 0.694441 0.721410 0.179092
H17   H     H_    0.794590 0.731069 0.829869 0.192316
H18   H     H_    0.746030 0.843027 0.792619 0.117945
H19   H     H_    0.747731 0.733993 0.680539 0.064818
C35   C     C_R   0.310042 0.886351 0.386613 -0.166091
H20   H     H_    0.291807 0.835468 0.478592 0.118726
H21   H     H_    0.314790 0.013521 0.305337 0.117748
H22   H     H_    0.288097 0.964778 0.412362 0.122109
C36   C     C_R   0.353141 0.712363 0.393413 -0.109544
C37   C     C_R   0.345909 0.681701 0.066969 -0.167357
C38   C     C_R   0.323447 0.605077 0.101547 -0.148727
C39   C     C_R   0.318905 0.628114 0.171957 -0.099860
C40   C     C_R   0.343984 0.729067 0.209996 0.092882
C41   C     C_R   0.349995 0.807788 0.174011 0.055549
C42   C     C_R   0.350567 0.755151 0.282408 0.045062
C43   C     C_R   0.328778 0.858698 0.316222 0.088195
C44   C     C_R   0.326939 0.934338 0.279674 -0.185904
C45   C     C_R   0.344209 0.909636 0.209888 -0.193115
C46   C     C_R   0.382531 0.683186 0.322502 0.273253
C47   C     C_R   0.314500 0.813128 0.424467 -0.215388
C48   C     C_R   0.355863 0.782842 0.102487 -0.073112
H23   H     H_    0.348723 0.662426 0.012177 0.107456
H24   H     H_    0.284771 0.565933 0.194918 0.167773
H25   H     H_    0.305999 0.527282 0.073575 0.124014
H26   H     H_    0.345803 0.971202 0.184067 0.106851
O11   O     O_R   0.203450 0.916320 0.913910 -0.541842
O12   O     O_R   0.535520 0.888300 0.047620 -0.539783
O13   O     O_R   0.710860 0.083650 0.086100 -0.538695
C49   C     C_R   0.366390 0.861220 0.063705 0.691861
O14   O     O_R   0.532860 0.904250 0.912040 -0.543117
O15   O     O_R   0.708190 0.099710 0.949550 -0.537637
C50   C     C_R   0.364198 0.882734 0.884776 0.704063
O16   O     O_R   0.206120 0.900260 0.050460 -0.538704
O17   O     O_3   0.375280 0.064080 0.012470 -0.371545
V3    V     V_3+5 0.648180 0.988110 0.997690 1.418177
O18   O     O_R   0.038220 0.111740 0.952370 -0.540342
C51   C     C_R   0.869846 0.137853 0.935302 0.688282
O19   O     O_R   0.040880 0.095790 0.087940 -0.545508
C52   C     C_R   0.872889 0.117001 0.115319 0.697600
V4    V     V_3+5 0.148800 0.011950 0.002300 1.413126
O20   O     O_3   0.871820 0.935920 0.987530 -0.370600
O21   O     O_3   0.812549 0.604536 0.718510 -0.640633
H27   H     H_    0.818687 0.569988 0.669950 0.294549
O22   O     O_3   0.453878 0.588724 0.292163 -0.670792
H28   H     H_    0.483248 0.548913 0.325925 0.284211

loop_
_geom_bond_atom_site_label_1
_geom_bond_atom_site_label_2
_ccdc_geom_bond_type
C29   H15   S    
O12   V3    S    
V4    O20   S    
V3    O20   S    
C39   C40   A    
C28   C29   A    
O17   V3    S    
C1    O6    A    
C2    C36   S    
C38   H25   S    
O15   C51   A    
C25   H11   S    
C43   C44   A    
C7    H5    S    
C6    C16   A    
C9    H6    S    
C40   C42   A    
C4    C6    S    
C13   C14   A    
H20   C47   S    
O5    C3    A    
C30   C31   A    
C35   H22   S    
V2    O10   S    
O18   C51   A    
O15   V3    S    
C5    H3    S    
C15   H8    S    
C18   C51   S    
C21   H9    S    
C33   H17   S    
C36   C47   A    
O14   V3    S    
O11   V4    S    
O8    V2    S    
C26   H13   S    
C25   C26   S    
O16   V4    S    
C8    C9    A    
O1    V2    S    
O7    V1    S    
C39   H24   S    
C37   C48   A    
C31   C32   A    
O9    C4    A    
C21   C22   A    
C27   C32   A    
C49   O16   A    
C25   H12   S    
C37   H23   S    
H21   C44   S    
C6    C17   A    
C40   C41   A    
O13   C52   A    
C12   C16   A    
C9    C10   A    
C19   C20   A    
O4    C2    A    
C44   C45   A    
C3    C23   S    
C10   C11   A    
C8    H7    S    
C36   C46   A    
C46   O22   S    
C32   C33   S    
C33   H18   S    
O2    C1    A    
C22   H10   S    
C20   C52   S    
C14   C15   A    
O14   C50   A    
C27   C34   S    
C11   C18   A    
O19   C52   A    
C16   H4    S    
C42   C43   A    
C22   C23   A    
O3    C4    A    
C19   C24   A    
C20   C21   A    
O19   V4    S    
O12   C49   A    
C11   C15   A    
O6    V2    S    
O9    V2    S    
H1    C17   S    
O2    V1    S    
C12   C13   A    
C34   O21   S    
C7    C18   A    
C24   C25   S    
C34   H19   S    
C1    C28   S    
O1    C2    A    
C5    C13   A    
C42   C46   A    
C38   C39   A    
O5    V1    S    
O8    C3    A    
C41   C48   A    
C27   C28   A    
C10   C12   A    
O22   H28   S    
C48   C49   S    
O13   V3    S    
C29   C30   A    
O7    V2    S    
O4    V1    S    
O3    V1    S    
V1    O10   S    
C35   C47   A    
C30   H16   S    
O11   C50   A    
C35   C43   A    
C33   C34   S    
C23   C24   A    
C26   H14   S    
C37   C38   A    
O21   H27   S    
C5    C17   A    
C7    C8    A    
C31   C50   S    
C41   C45   A    
C45   H26   S    
O18   V4    S    
O17   V4    S    
C19   C26   S    
H2    C14   S    
