data_mof_unit_25693.cif
_audit_creation_date              2012-12-10T20:07:09-0500
_audit_creation_method            fapswitch 2.2
_symmetry_space_group_name_H-M    P1
_symmetry_Int_Tables_number       1
_space_group_crystal_system       triclinic
_cell_length_a                    18.90347
_cell_length_b                    18.484669
_cell_length_c                    10.81091
_cell_angle_alpha                 90.118802
_cell_angle_beta                  90.023864
_cell_angle_gamma                 90.307094
_cell_volume                      3777.53286167

loop_
_atom_site_label
_atom_site_type_symbol
_atom_type_description
_atom_site_fract_x
_atom_site_fract_y
_atom_site_fract_z
_atom_type_partial_charge
C1    C     C_R   0.365119 0.500029 0.505693 1.224625
C2    C     C_R   0.634860 0.500021 0.505491 1.227962
C3    C     C_R   0.709372 0.500179 0.538901 -0.497703
C4    C     C_R   0.290761 0.500390 0.540551 -0.498516
C5    C     C_R   0.963829 0.570499 0.661748 0.437388
C6    C     C_R   0.034770 0.437083 0.654887 0.402117
C7    C     C_R   0.038497 0.569369 0.651355 0.385372
C8    C     C_R   0.961471 0.438603 0.642384 0.371567
C9    C     C_R   0.073628 0.501859 0.645561 -0.098925
C10   C     C_R   0.925948 0.505253 0.646455 -0.078737
C11   C     C_R   0.535061 0.726692 0.410014 0.508973
C12   C     C_R   0.470644 0.273347 0.403450 0.490999
C13   C     C_R   0.464449 0.725152 0.590978 0.514178
C14   C     C_R   0.529688 0.274411 0.596545 0.550530
C15   C     C_R   0.536442 0.803394 0.410187 0.291487
C16   C     C_R   0.469562 0.196485 0.401860 0.319247
C17   C     C_R   0.461737 0.801672 0.593035 0.273254
C18   C     C_R   0.528544 0.198393 0.601465 0.308765
C19   C     C_R   0.498985 0.841195 0.502454 -0.100177
C20   C     C_R   0.499170 0.158393 0.502266 -0.149133
C21   C     C_R   0.435457 0.961085 0.485940 0.374506
C22   C     C_R   0.562951 0.038117 0.514360 0.380716
C23   C     C_R   0.562328 0.961758 0.521642 0.359190
C24   C     C_R   0.434886 0.037433 0.492496 0.380375
C25   C     C_R   0.498993 0.076908 0.503427 -0.112466
C26   C     C_R   0.498844 0.922508 0.503956 -0.072083
C27   C     C_R   0.500124 0.499911 0.260157 1.060802
C28   C     C_R   0.499995 0.500039 0.739746 1.095332
C29   C     C_R   0.626686 0.539814 0.127529 0.509785
C30   C     C_R   0.379297 0.443647 0.871865 0.460550
C31   C     C_R   0.622707 0.552143 0.872262 0.455102
C32   C     C_R   0.375312 0.454937 0.127184 0.503618
C33   C     C_R   0.685821 0.566144 0.064220 0.342822
C34   C     C_R   0.320424 0.417246 0.936092 0.324314
C35   C     C_R   0.683758 0.573369 0.936296 0.316220
C36   C     C_R   0.318071 0.424300 0.063878 0.343742
C37   C     C_R   0.561228 0.525899 0.935091 -0.168773
C38   C     C_R   0.438705 0.475353 0.064488 -0.216571
C39   C     C_R   0.562441 0.522338 0.064720 -0.216188
C40   C     C_R   0.439809 0.472300 0.934814 -0.174244
C41   C     C_R   0.500151 0.499944 0.871969 0.045175
C42   C     C_R   0.500312 0.499551 0.127669 0.014169
C43   C     C_R   0.732398 0.457192 0.638023 0.497459
C44   C     C_R   0.269188 0.541542 0.643259 0.488998
C45   C     C_R   0.242237 0.455747 0.479661 0.490995
C46   C     C_R   0.756230 0.548192 0.481967 0.511552
C47   C     C_R   0.801784 0.462886 0.679872 0.634095
C48   C     C_R   0.199485 0.537809 0.684119 0.589650
C49   C     C_R   0.171433 0.456958 0.513239 0.531594
C50   C     C_R   0.826920 0.549193 0.516336 0.465844
C51   C     C_R   0.850071 0.507473 0.617067 -0.230796
C52   C     C_R   0.149490 0.497826 0.616263 -0.266610
N1    N     N_R   0.500000 0.689440 0.500000 -0.233246
N2    N     N_R   0.500000 0.310560 0.500000 -0.243601
O1    O     O_R   0.398180 0.560840 0.499970 -0.599408
O2    O     O_R   0.601820 0.439160 0.500030 -0.590420
O3    O     O_R   0.601820 0.560840 0.500030 -0.531286
O4    O     O_R   0.398180 0.439160 0.499970 -0.538140
O5    O     O_R   0.499990 0.560810 0.316770 -0.565609
O6    O     O_R   0.500010 0.439190 0.683230 -0.549537
O7    O     O_R   0.500010 0.560810 0.683230 -0.542466
O8    O     O_R   0.499990 0.439190 0.316770 -0.549605
Zn1   Zn    Zn3+2 0.500000 0.581210 0.500000 1.137509
Zn2   Zn    Zn3+2 0.500000 0.418790 0.500000 1.141807
O9    O     O_3   0.257122 0.405849 0.127080 -0.476929
C53   C     C_3   0.259332 0.331277 0.154034 -0.063363
H1    H     H_    0.304866 0.318583 0.215236 0.191860
H2    H     H_    0.261372 0.297761 0.068592 0.083049
H3    H     H_    0.210302 0.316225 0.204337 0.207898
O10   O     O_3   0.745407 0.592377 0.874415 -0.534474
C54   C     C_3   0.735528 0.656637 0.806009 -0.203052
H4    H     H_    0.698100 0.695137 0.850671 0.107300
H5    H     H_    0.717948 0.643872 0.710464 0.211096
H6    H     H_    0.787293 0.684803 0.798380 0.193496
O11   O     O_3   0.261035 0.391206 0.874682 -0.560810
C55   C     C_3   0.278018 0.328728 0.805255 -0.241453
H7    H     H_    0.321235 0.295890 0.846970 0.111099
H8    H     H_    0.291695 0.343727 0.708787 0.226799
H9    H     H_    0.230541 0.293405 0.800761 0.160796
O12   O     O_3   0.748156 0.578809 0.127774 -0.479480
C56   C     C_3   0.755444 0.653927 0.147620 -0.035272
H10   H     H_    0.709296 0.675969 0.198795 0.172202
H11   H     H_    0.763115 0.683680 0.059507 0.102461
H12   H     H_    0.803201 0.663634 0.205095 0.216545
F1    F     F_    0.634863 0.528200 0.249908 -0.623795
F2    F     F_    0.374524 0.442200 0.747798 -0.686012
F3    F     F_    0.626372 0.555163 0.748221 -0.692698
F4    F     F_    0.366445 0.466563 0.249472 -0.623255
F5    F     F_    0.686678 0.412870 0.698786 -0.537801
F6    F     F_    0.316388 0.582606 0.707484 -0.557805
F7    F     F_    0.263116 0.411957 0.386488 -0.568597
F8    F     F_    0.733688 0.593393 0.392169 -0.576963
F9    F     F_    0.821971 0.424622 0.780889 -0.547382
F10   F     F_    0.180571 0.574129 0.788163 -0.556170
F11   F     F_    0.124069 0.419618 0.442988 -0.598346
F12   F     F_    0.873143 0.588383 0.447474 -0.647707
O13   O     O_3   0.925984 0.631149 0.699762 -0.570947
C57   C     C_3   0.940364 0.693190 0.628128 -0.129644
H13   H     H_    0.953583 0.680824 0.530290 0.188474
H14   H     H_    0.982693 0.726086 0.672267 0.192496
H15   H     H_    0.892090 0.727030 0.626590 0.151232
O14   O     O_3   0.068772 0.371153 0.660930 -0.548367
C58   C     C_3   0.075876 0.352465 0.786579 -0.177202
H16   H     H_    0.023487 0.348692 0.833309 0.187919
H17   H     H_    0.110830 0.391617 0.836052 0.204261
H18   H     H_    0.100656 0.298355 0.792337 0.169621
O15   O     O_3   0.076506 0.633632 0.649806 -0.542000
C59   C     C_3   0.096540 0.650528 0.526872 -0.281918
H19   H     H_    0.060226 0.628072 0.454814 0.159209
H20   H     H_    0.151111 0.631785 0.508212 0.168994
H21   H     H_    0.096756 0.710214 0.516470 0.180817
O16   O     O_3   0.924558 0.374273 0.628247 -0.538665
C60   C     C_3   0.924370 0.355430 0.501753 -0.164804
H22   H     H_    0.978840 0.344715 0.467569 0.216817
H23   H     H_    0.898835 0.397941 0.444484 0.143727
H24   H     H_    0.893120 0.304926 0.489998 0.187231
F13   F     F_    0.567952 0.689327 0.318922 -0.622166
F14   F     F_    0.444234 0.310847 0.306607 -0.634826
F15   F     F_    0.432344 0.686382 0.681244 -0.585393
F16   F     F_    0.561480 0.311934 0.689064 -0.549946
O17   O     O_3   0.567571 0.842665 0.315170 -0.585355
C61   C     C_3   0.639757 0.824950 0.302001 -0.102471
H25   H     H_    0.645954 0.784068 0.227745 0.170717
H26   H     H_    0.665044 0.805922 0.389267 0.164078
H27   H     H_    0.668858 0.874218 0.272365 0.152967
O18   O     O_3   0.448218 0.157327 0.298283 -0.573713
C62   C     C_3   0.380026 0.177591 0.258231 -0.120259
H28   H     H_    0.384468 0.217417 0.181958 0.166591
H29   H     H_    0.345748 0.198818 0.333874 0.160434
H30   H     H_    0.353129 0.128992 0.219908 0.156727
O19   O     O_3   0.428888 0.838974 0.688431 -0.594779
C63   C     C_3   0.356467 0.820085 0.695806 -0.054581
H31   H     H_    0.348719 0.774997 0.762120 0.221862
H32   H     H_    0.332487 0.806037 0.604504 0.157945
H33   H     H_    0.327104 0.867299 0.732449 0.148921
O20   O     O_3   0.561040 0.164046 0.699543 -0.496271
C64   C     C_3   0.510091 0.150164 0.791734 -0.211991
H34   H     H_    0.479162 0.199337 0.816169 0.148850
H35   H     H_    0.537861 0.132356 0.876694 0.201260
H36   H     H_    0.474253 0.105391 0.763007 0.117155
O21   O     O_3   0.372617 0.924176 0.467027 -0.581561
C65   C     C_3   0.362371 0.915967 0.338598 -0.246624
H37   H     H_    0.312204 0.885889 0.323149 0.181472
H38   H     H_    0.405677 0.883947 0.295758 0.171410
H39   H     H_    0.357527 0.969346 0.291929 0.187675
O22   O     O_3   0.626701 0.074756 0.522724 -0.528162
C66   C     C_3   0.654551 0.082306 0.402483 -0.184087
H40   H     H_    0.618674 0.114323 0.342250 0.155922
H41   H     H_    0.665421 0.028670 0.359679 0.166714
H42   H     H_    0.705536 0.112071 0.408670 0.188961
O23   O     O_3   0.625252 0.925487 0.539179 -0.580807
C67   C     C_3   0.635790 0.916695 0.667321 -0.258194
H43   H     H_    0.686092 0.887260 0.681767 0.175137
H44   H     H_    0.592688 0.883790 0.709658 0.165521
H45   H     H_    0.640523 0.969900 0.715159 0.201378
O24   O     O_3   0.371211 0.072938 0.478547 -0.563211
C68   C     C_3   0.342643 0.086860 0.596511 -0.288473
H46   H     H_    0.372334 0.131083 0.643353 0.127974
H47   H     H_    0.341051 0.037499 0.655516 0.173807
H48   H     H_    0.287377 0.105504 0.584811 0.190759

loop_
_geom_bond_atom_site_label_1
_geom_bond_atom_site_label_2
_ccdc_geom_bond_type
C53   H2    S    
C21   C26   A    
O18   C62   S    
C17   O19   S    
C14   C18   A    
C66   H40   S    
C55   H9    S    
C6    C9    A    
O13   C57   S    
C2    O3    A    
C15   C19   A    
C64   H35   S    
C3    C43   A    
C43   F5    S    
C48   F10   S    
C32   C36   A    
O24   C68   S    
C66   H41   S    
C55   H8    S    
C38   C42   A    
C48   C52   A    
C8    O16   S    
C14   F16   S    
C53   H3    S    
C46   F8    S    
C20   C25   S    
C32   F4    S    
C29   C33   A    
C28   C41   S    
C59   H19   S    
C18   C20   A    
C23   C26   A    
O7    Zn1   S    
C19   C26   S    
O8    Zn2   S    
C13   F15   S    
C60   H22   S    
C11   C15   A    
C68   H46   S    
C22   O22   S    
C35   O10   S    
C63   H31   S    
C22   C25   A    
O1    Zn1   S    
O23   C67   S    
O2    Zn2   S    
C18   O20   S    
O10   C54   S    
C32   C38   A    
C30   F2    S    
C29   F1    S    
C11   N1    A    
C34   O11   S    
C60   H24   S    
C28   O7    A    
C53   H1    S    
C68   H47   S    
C65   H39   S    
C16   O18   S    
C9    C52   S    
C10   C51   S    
O16   C60   S    
C56   H11   S    
C56   H10   S    
C39   C42   A    
C13   N1    A    
C4    C45   A    
C28   O6    A    
O4    Zn2   S    
C64   H36   S    
C31   F3    S    
C30   C34   A    
C12   C16   A    
C66   H42   S    
C24   C25   A    
C5    C7    A    
C36   O9    S    
O12   C56   S    
C6    C8    A    
C4    C44   A    
C49   F11   S    
C31   C37   A    
O11   C55   S    
C62   H29   S    
C27   O8    A    
C67   H45   S    
C45   C49   A    
C16   C20   A    
C49   C52   A    
C29   C39   A    
C50   C51   A    
C47   F9    S    
C30   C40   A    
C58   H17   S    
C55   H7    S    
O17   C61   S    
C24   O24   S    
C12   F14   S    
C63   H32   S    
C40   C41   A    
C14   N2    A    
C5    O13   S    
O9    C53   S    
C68   H48   S    
C57   H14   S    
C7    O15   S    
O15   C59   S    
C61   H26   S    
O19   C63   S    
C11   F13   S    
C56   H12   S    
C44   F6    S    
C54   H5    S    
O22   C66   S    
C7    C9    A    
C23   O23   S    
C15   O17   S    
C65   H37   S    
O3    Zn1   S    
C67   H44   S    
O20   C64   S    
C54   H6    S    
C47   C51   A    
C33   O12   S    
C57   H15   S    
C64   H34   S    
C46   C50   A    
C3    C46   A    
O5    Zn1   S    
C59   H21   S    
C13   C17   A    
O6    Zn2   S    
C1    C4    S    
C61   H27   S    
C2    C3    S    
C1    O1    A    
C62   H30   S    
C21   O21   S    
C5    C10   A    
C37   C39   A    
C27   O5    A    
O21   C65   S    
C38   C40   A    
N1    Zn1   S    
C27   C42   S    
C50   F12   S    
N2    Zn2   S    
C63   H33   S    
C31   C35   A    
C33   C35   A    
C34   C36   A    
C59   H20   S    
C58   H18   S    
C65   H38   S    
C6    O14   S    
C37   C41   A    
O14   C58   S    
C45   F7    S    
C17   C19   A    
C44   C48   A    
C54   H4    S    
C67   H43   S    
C8    C10   A    
C57   H13   S    
C21   C24   A    
C58   H16   S    
C22   C23   A    
C2    O2    A    
C61   H25   S    
C1    O4    A    
C43   C47   A    
C12   N2    A    
C62   H28   S    
C60   H23   S    
