data_mof_unit_65716.cif
_audit_creation_date              2013-03-05T15:41:21-0500
_audit_creation_method            fapswitch 2.2
_symmetry_space_group_name_H-M    P1
_symmetry_Int_Tables_number       1
_space_group_crystal_system       triclinic
_cell_length_a                    18.839485
_cell_length_b                    18.910954
_cell_length_c                    18.618142
_cell_angle_alpha                 109.136174
_cell_angle_beta                  109.652431
_cell_angle_gamma                 109.611414
_cell_volume                      5106.95291894

loop_
_atom_site_label
_atom_site_type_symbol
_atom_site_description
_atom_site_fract_x
_atom_site_fract_y
_atom_site_fract_z
_atom_type_partial_charge
O1    O     O_R   0.591160 0.539400 0.449620 -0.623942
O2    O     O_R   0.589730 0.641530 0.550350 -0.609986
C1    C     C_R   0.616784 0.618554 0.497140 0.933675
O3    O     O_R   0.408980 0.448930 0.357910 -0.630473
O4    O     O_R   0.407550 0.551060 0.458650 -0.611223
C2    C     C_R   0.379831 0.499089 0.379268 0.891536
Zn1   Zn    Zn3+2 0.500950 0.431810 0.432740 0.949062
Zn2   Zn    Zn3+2 0.499050 0.568190 0.567260 0.985121
O5    O     O_R   0.410270 0.358470 0.449650 -0.613084
O6    O     O_R   0.408840 0.460600 0.550380 -0.628325
O7    O     O_R   0.592450 0.448940 0.541350 -0.642261
O8    O     O_R   0.591020 0.551070 0.642090 -0.600462
C3    C     C_R   0.383252 0.381460 0.502901 0.921374
C4    C     C_R   0.620921 0.501359 0.621802 0.781098
C5    C     C_3   0.328173 0.574556 0.295646 -0.216922
C6    C     C_3   0.241584 0.561472 0.290565 0.376958
H1    H     H_    0.390244 0.637006 0.333142 0.152475
C7    C     C_3   0.193100 0.498729 0.192533 -0.084144
C8    C     C_3   0.278871 0.509946 0.195645 -0.218996
C9    C     C_3   0.265677 0.433159 0.213032 -0.137021
C10   C     C_3   0.178941 0.422004 0.209054 -0.220221
C11   C     C_3   0.227802 0.486217 0.309022 -0.223480
C12   C     C_3   0.313296 0.497612 0.311602 -0.025065
H2    H     H_    0.297898 0.519316 0.147712 0.159564
H3    H     H_    0.277442 0.380182 0.182847 0.154032
H4    H     H_    0.116760 0.359760 0.172109 0.165648
H5    H     H_    0.208970 0.477570 0.357308 0.158272
C13   C     C_2   0.740812 0.818500 0.492816 -0.153140
C14   C     C_2   0.818016 0.823754 0.511450 -0.329807
H6    H     H_    0.724170 0.861381 0.473031 0.166395
H7    H     H_    0.838513 0.787980 0.540816 0.158339
C15   C     C_2   0.679307 0.757086 0.503624 -0.152363
C16   C     C_2   0.675949 0.681441 0.487676 -0.338915
H8    H     H_    0.634942 0.772559 0.521401 0.170649
H9    H     H_    0.713112 0.661852 0.460128 0.157466
C17   C     C_2   0.833758 0.523496 0.761373 -0.116290
C18   C     C_2   0.818348 0.483193 0.805907 -0.257488
H10   H     H_    0.899634 0.564254 0.777539 0.163299
H11   H     H_    0.752330 0.435771 0.783295 0.173012
C19   C     C_2   0.760042 0.511577 0.688418 -0.258621
C20   C     C_2   0.689377 0.507442 0.693435 0.333373
H12   H     H_    0.765307 0.509431 0.631449 0.129611
C21   C     C_2   0.259364 0.181702 0.507539 -0.151835
C22   C     C_2   0.182027 0.176236 0.488561 -0.334500
H13   H     H_    0.276105 0.139010 0.527609 0.170165
H14   H     H_    0.161494 0.211854 0.458973 0.159335
C23   C     C_2   0.320900 0.243083 0.496733 -0.162094
C24   C     C_2   0.324104 0.318621 0.512413 -0.344476
H15   H     H_    0.365389 0.227674 0.479157 0.167077
H16   H     H_    0.286823 0.338175 0.539796 0.160040
O9    O     O_R   0.954670 0.539370 0.096190 -0.622319
O10   O     O_R   0.056790 0.641480 0.096140 -0.607725
C25   C     C_R   0.007058 0.619099 0.126243 0.991009
O11   O     O_R   0.047640 0.448900 0.098680 -0.627931
O12   O     O_R   0.149770 0.551010 0.098640 -0.614590
C26   C     C_R   0.126884 0.499373 0.126485 0.948839
Zn3   Zn    Zn3+2 0.938780 0.431770 0.006970 0.959632
Zn4   Zn    Zn3+2 0.075160 0.568130 0.006910 0.978387
O13   O     O_R   0.957150 0.358410 0.917750 -0.621206
O14   O     O_R   0.059270 0.460520 0.917700 -0.631315
O15   O     O_R   0.864170 0.448890 0.915250 -0.634239
O16   O     O_R   0.966300 0.551000 0.915200 -0.622082
C27   C     C_R   0.006567 0.381340 0.886964 0.919088
C28   C     C_R   0.886365 0.496177 0.882713 0.909173
O17   O     O_R   0.946940 0.090450 0.537440 -0.619042
O18   O     O_R   0.050520 0.090460 0.641000 -0.624058
C29   C     C_R   0.997288 0.116896 0.618418 0.931074
O19   O     O_R   0.857760 0.909540 0.448230 -0.619577
O20   O     O_R   0.961340 0.909540 0.551790 -0.625598
C30   C     C_R   0.881354 0.883183 0.502582 0.925377
Zn5   Zn    Zn3+2 0.930840 0.000000 0.430850 0.958179
Zn6   Zn    Zn3+2 0.069160 0.000000 0.569150 0.964960
O21   O     O_R   0.949480 0.909540 0.359000 -0.622541
O22   O     O_R   0.053060 0.909550 0.462560 -0.612829
O23   O     O_R   0.038660 0.090460 0.448210 -0.621938
O24   O     O_R   0.142240 0.090460 0.551770 -0.615379
C31   C     C_R   0.998328 0.878660 0.381708 0.938844
C32   C     C_R   0.118652 0.116814 0.497418 0.935460
C33   C     C_2   0.004152 0.746454 0.327509 -0.140888
C34   C     C_2   0.988373 0.805882 0.313282 -0.346914
H17   H     H_    0.022025 0.749417 0.390754 0.175642
H18   H     H_    0.960786 0.797521 0.247590 0.156188
C35   C     C_2   0.994014 0.674198 0.255946 -0.098367
C36   C     C_2   0.013214 0.686699 0.196708 -0.293882
H19   H     H_    0.975252 0.612574 0.254501 0.171644
H20   H     H_    0.041649 0.750866 0.204189 0.152094
C37   C     C_2   0.924593 0.184345 0.676005 -0.156843
C38   C     C_2   0.995019 0.176667 0.687897 -0.331396
H21   H     H_    0.864584 0.143590 0.612916 0.165775
H22   H     H_    0.051352 0.210157 0.753186 0.157860
C39   C     C_2   0.926825 0.245256 0.750728 -0.152288
C40   C     C_2   0.001553 0.318485 0.813562 -0.329924
H23   H     H_    0.866753 0.231670 0.752349 0.164263
H24   H     H_    0.059041 0.337282 0.806660 0.154848
N1    N     N_R   0.229198 0.632103 0.334194 0.197260
O25   O     O_R   0.275550 0.680714 0.419210 -0.384415
O26   O     O_R   0.172384 0.647180 0.289092 -0.423265
O27   O     O_3   0.691150 0.529384 0.773436 -0.587278
C41   C     C_3   0.612115 0.470368 0.761120 0.081890
H25   H     H_    0.590447 0.402082 0.715897 0.109903
H26   H     H_    0.560005 0.485225 0.734715 0.169413
C42   C     C_3   0.625419 0.478707 0.849358 -0.804013
H27   H     H_    0.645638 0.545694 0.895782 0.262854
H28   H     H_    0.563666 0.433072 0.840718 0.206215
H29   H     H_    0.676548 0.463332 0.877361 0.253534

loop_
_geom_bond_atom_site_label_1
_geom_bond_atom_site_label_2
_geom_bond_distance
_ccdc_geom_bond_type
Zn4   O16   2.015545 S    
Zn5   O23   2.005061 S    
O12   C26   1.268012 A    
C37   C39   1.463417 S    
O15   C28   1.271231 A    
C7    C10   1.535892 S    
C8    C9    1.547648 S    
Zn6   O24   2.002061 S    
C23   H15   1.086471 S    
C5    C8    1.550979 S    
C29   C38   1.436595 S    
C25   C36   1.437849 S    
C13   C14   1.336690 D    
C36   H20   1.086981 S    
O4    C2    1.267666 A    
O7    C4    1.281855 A    
Zn3   O13   2.000446 S    
C9    H3    1.110120 S    
C1    C16   1.437853 S    
Zn4   O14   2.007522 S    
C5    C6    1.530110 S    
C42   H29   1.110770 S    
Zn1   O5    1.999684 S    
C7    C8    1.535670 S    
O5    C3    1.279225 A    
O16   C28   1.279322 A    
O18   Zn6   2.014480 S    
C23   C24   1.336519 D    
O17   C29   1.283814 A    
O22   C31   1.282784 A    
C27   C40   1.436039 S    
O9    Zn3   2.007472 S    
C7    C26   1.434107 S    
O19   C30   1.283304 A    
C5    C12   1.532878 S    
O18   C29   1.274039 A    
C10   C11   1.549692 S    
C42   H27   1.110714 S    
O3    Zn1   2.023992 S    
C10   H4    1.110200 S    
C22   H14   1.087028 S    
C11   C12   1.533364 S    
C18   H11   1.086251 S    
O11   C26   1.267872 A    
C13   C15   1.462414 S    
O3    C2    1.268339 A    
C39   C40   1.337769 D    
C33   H17   1.086466 S    
O17   Zn5   1.994339 S    
O1    C1    1.271149 A    
C3    C24   1.437737 S    
C15   H8    1.086495 S    
O20   Zn6   2.005061 S    
Zn1   O7    2.004119 S    
C21   C22   1.336787 D    
C39   H23   1.086555 S    
C41   H25   1.115896 S    
C9    C12   1.533107 S    
C17   C19   1.464508 S    
Zn2   O8    2.023993 S    
C40   H24   1.086723 S    
C42   H28   1.110529 S    
C21   H13   1.086436 S    
O10   Zn4   2.000476 S    
C4    C20   1.448481 S    
Zn6   O22   1.994340 S    
C19   C20   1.343767 D    
C35   H19   1.086418 S    
C38   H22   1.086913 S    
C11   H5    1.110293 S    
O14   C27   1.270220 A    
C35   C36   1.336036 D    
C17   H10   1.086040 S    
C18   C28   1.439863 S    
O10   C25   1.270272 A    
Zn5   O21   2.014482 S    
C14   C30   1.438097 S    
C31   C34   1.438335 S    
C5    H1    1.110345 S    
C17   C18   1.334292 D    
C6    N1    1.457291 S    
C6    C11   1.530829 S    
C41   H26   1.111530 S    
O1    Zn1   2.006772 S    
Zn2   O6    2.006772 S    
O2    Zn2   1.999688 S    
O24   C32   1.283240 A    
C19   H12   1.087065 S    
O6    C3    1.270956 A    
O4    Zn2   2.004118 S    
N1    O26   1.299753 A    
Zn3   O15   2.012485 S    
O13   C27   1.278357 A    
C15   C16   1.336673 D    
C22   C32   1.438323 S    
O2    C1    1.279090 A    
O8    C4    1.268681 A    
C13   H6    1.086461 S    
C14   H7    1.087015 S    
C33   C35   1.462472 S    
O19   Zn5   2.002061 S    
C2    C12   1.431919 S    
C24   H16   1.087004 S    
C16   H9    1.086997 S    
C34   H18   1.086961 S    
C8    H2    1.110202 S    
O20   C30   1.275281 A    
O23   C32   1.275392 A    
C33   C34   1.337173 D    
C41   C42   1.520933 S    
C9    C10   1.548255 S    
C37   C38   1.335386 D    
C6    C7    1.518126 S    
O27   C41   1.415000 S    
O12   Zn4   2.012612 S    
N1    O25   1.300170 A    
C37   H21   1.086355 S    
O21   C31   1.275775 A    
C20   O27   1.394220 S    
O9    C25   1.279458 A    
C21   C23   1.462378 S    
O11   Zn3   2.015544 S    
