data_mof_unit_7696.cif
_audit_creation_date              2012-12-11T18:37:11-0500
_audit_creation_method            fapswitch 2.2
_symmetry_space_group_name_H-M    P1
_symmetry_Int_Tables_number       1
_space_group_crystal_system       triclinic
_cell_length_a                    8.159788
_cell_length_b                    14.376943
_cell_length_c                    26.968937
_cell_angle_alpha                 93.777533
_cell_angle_beta                  92.528972
_cell_angle_gamma                 88.105361
_cell_volume                      3152.40993721

loop_
_atom_site_label
_atom_site_type_symbol
_atom_type_description
_atom_site_fract_x
_atom_site_fract_y
_atom_site_fract_z
_atom_type_partial_charge
Ba1   Ba    Ba6+2 0.849670 0.455410 0.524690 1.643078
Ba2   Ba    Ba6+2 0.340150 0.544510 0.475310 1.663350
C1    C     C_3   0.616252 0.126635 0.667187 -0.363281
C2    C     C_R   0.901299 0.581219 0.176565 0.577706
C3    C     C_2   0.737282 0.524509 0.269104 -0.119795
C4    C     C_3   0.138266 0.249382 0.666779 0.289976
C5    C     C_3   0.691693 0.521795 0.323056 -0.091181
C6    C     C_1   0.978239 0.483137 0.343607 0.053139
C7    C     C_2   0.019702 0.480727 0.296246 -0.086290
C8    C     C_2   0.894030 0.504005 0.255801 0.221573
C9    C     C_R   0.021226 0.503590 0.102597 -0.079839
C10   C     C_R   0.061009 0.425932 0.130567 -0.035215
C11   C     C_R   0.141684 0.348464 0.107374 -0.063741
C12   C     C_3   0.627683 0.220186 0.644593 0.343063
C13   C     C_R   0.940612 0.581608 0.125940 -0.027981
C14   C     C_2   0.842706 0.527706 0.357606 -0.258261
C15   C     C_2   0.352256 0.480560 0.642179 -0.283992
C16   C     C_3   0.102120 0.232748 0.720192 -0.342107
C17   C     C_R   0.188810 0.424928 0.977505 0.019711
C18   C     C_R   0.054668 0.580381 0.971888 0.019641
C19   C     C_R   0.141532 0.502458 0.949320 0.049871
C20   C     C_R   0.278568 0.350308 0.953437 -0.100501
C21   C     C_R   0.317937 0.351124 0.903702 -0.061348
C22   C     C_R   0.270192 0.426291 0.875288 -0.031004
C23   C     C_3   0.524734 0.692461 0.622777 0.300704
C24   C     C_R   0.181764 0.502121 0.897981 -0.077367
C25   C     C_R   0.134097 0.577760 0.869362 -0.033853
C26   C     C_R   0.175598 0.576843 0.818792 0.590137
C27   C     C_R   0.309618 0.426917 0.824632 0.577554
C28   C     C_3   0.162069 0.259188 0.424061 0.312366
C29   C     C_2   0.460491 0.485034 0.730317 -0.074101
C30   C     C_3   0.503723 0.489069 0.676213 -0.050755
C31   C     C_1   0.214188 0.520657 0.656835 0.037190
C32   C     C_2   0.174425 0.521854 0.704255 -0.103017
C33   C     C_2   0.303477 0.501711 0.744272 0.200246
C34   C     C_3   0.499663 0.729992 0.676072 -0.372357
C35   C     C_R   0.145768 0.424506 0.028467 0.019777
C36   C     C_R   0.061791 0.503235 0.051288 0.049060
C37   C     C_R   0.017776 0.581628 0.023396 0.019943
C38   C     C_R   0.183171 0.347619 0.057727 -0.100725
C39   C     C_R   0.901188 0.658968 0.098293 -0.067575
C40   C     C_3   0.158997 0.153959 0.414013 -0.402150
C41   C     C_R   0.007087 0.654554 0.941735 -0.100838
C42   C     C_R   0.046115 0.653173 0.891893 -0.062399
C43   C     C_R   0.938538 0.659141 0.048398 -0.101893
C44   C     C_R   0.694602 0.064820 0.473449 -0.034192
C45   C     C_3   0.014776 0.834052 0.333943 0.323749
C46   C     C_R   0.512577 0.198702 0.502363 0.058155
C47   C     C_R   0.374342 0.229873 0.527919 -0.290367
C48   C     C_R   0.275041 0.167379 0.548865 0.015491
C49   C     C_R   0.320309 0.073113 0.548194 -0.146362
C50   C     C_R   0.462452 0.040075 0.524319 -0.008197
C51   C     C_R   0.558198 0.102001 0.499731 -0.022417
C52   C     C_3   0.032327 0.740287 0.574486 0.306256
C53   C     C_R   0.642469 0.908430 0.497940 -0.008162
C54   C     C_R   0.739320 0.969410 0.473267 0.019591
C55   C     C_R   0.685793 0.812300 0.496255 0.044196
C56   C     C_3   0.993997 0.777362 0.284212 -0.269732
C57   C     C_R   0.820585 0.778332 0.469867 -0.237139
C58   C     C_R   0.923611 0.838622 0.448643 -0.026846
C59   C     C_R   0.882404 0.934316 0.449922 -0.150144
C60   C     C_R   0.505837 0.945115 0.523608 -0.046943
C61   C     C_3   0.028833 0.845750 0.584564 -0.385684
C62   C     C_3   0.672853 0.325758 0.378120 0.305885
C63   C     C_3   0.710055 0.285337 0.326075 -0.376850
C64   C     C_3   0.042607 0.937507 0.325980 -0.196054
C65   C     C_3   0.883945 0.991703 0.313186 -0.481514
C66   C     C_3   0.494420 0.731478 0.277541 0.294870
C67   C     C_3   0.483000 0.833999 0.266884 -0.360924
C68   C     C_R   0.018002 0.426787 0.181044 0.584786
H1    H     H_    0.739914 0.218245 0.622742 0.110371
H2    H     H_    0.787806 0.351168 0.396683 0.020465
H3    H     H_    0.581199 0.384147 0.375633 0.036692
H4    H     H_    0.726037 0.113847 0.691915 0.136823
H5    H     H_    0.797122 0.224720 0.328599 0.133377
H6    H     H_    0.766667 0.337589 0.304460 0.076313
H7    H     H_    0.595102 0.262238 0.306072 0.123310
H8    H     H_    0.518227 0.230455 0.619608 -0.036050
H9    H     H_    0.610153 0.070050 0.637121 0.077790
H10   H     H_    0.403639 0.672120 0.605935 0.028108
H11   H     H_    0.609811 0.630589 0.622914 0.035697
H12   H     H_    0.244792 0.131370 0.384400 0.128582
H13   H     H_    0.421596 0.794787 0.676249 0.136415
H14   H     H_    0.437648 0.678175 0.696783 0.075127
H15   H     H_    0.620011 0.745615 0.695116 0.126304
H16   H     H_    0.504238 0.125849 0.689081 0.123749
H17   H     H_    0.166311 0.284366 0.745744 0.129035
H18   H     H_    0.898560 0.826943 0.353225 0.010154
H19   H     H_    0.979782 0.702767 0.291047 0.121747
H20   H     H_    0.883082 0.801737 0.263008 0.109517
H21   H     H_    0.102646 0.783244 0.261381 0.098832
H22   H     H_    0.370452 0.702739 0.269939 0.057263
H23   H     H_    0.195956 0.118335 0.448111 0.067203
H24   H     H_    0.582484 0.695707 0.252060 0.057415
H25   H     H_    0.605786 0.864731 0.271742 0.113739
H26   H     H_    0.399188 0.872239 0.292939 0.140193
H27   H     H_    0.101310 0.322689 0.660209 0.074125
H28   H     H_    0.435394 0.841699 0.228113 0.072794
H29   H     H_    0.144689 0.462255 0.286512 0.117808
H30   H     H_    0.173454 0.287371 0.127675 0.120312
H31   H     H_    0.558495 0.474524 0.758119 0.105770
H32   H     H_    0.386878 0.291869 0.887493 0.122120
H33   H     H_    0.322416 0.289813 0.972041 0.068248
H34   H     H_    0.032870 0.133312 0.401826 0.112224
H35   H     H_    0.243418 0.284462 0.043358 0.068053
H36   H     H_    0.641285 0.535500 0.240777 0.072721
H37   H     H_    0.840303 0.720446 0.115228 0.116262
H38   H     H_    0.937564 0.715149 0.955239 0.068354
H39   H     H_    0.271979 0.238815 0.661876 -0.010944
H40   H     H_    0.006389 0.712172 0.870893 0.121758
H41   H     H_    0.048856 0.537459 0.714318 0.129687
H42   H     H_    0.904493 0.722269 0.030709 0.067479
H43   H     H_    0.839440 0.566338 0.393546 0.074088
H44   H     H_    0.356596 0.442118 0.606179 0.072910
H45   H     H_    0.909417 0.717255 0.561749 -0.002679
H46   H     H_    0.338325 0.303052 0.528932 0.065921
H47   H     H_    0.242755 0.025548 0.565212 0.072372
H48   H     H_    0.962588 0.981263 0.433794 0.054287
H49   H     H_    0.852134 0.704579 0.469056 0.049850
H50   H     H_    0.768156 0.108918 0.453067 0.099255
H51   H     H_    0.968122 0.240743 0.725639 0.144872
H52   H     H_    0.430040 0.900409 0.542972 0.092241
H53   H     H_    0.144796 0.161386 0.729120 0.120646
H54   H     H_    0.288706 0.279763 0.434052 0.006549
H55   H     H_    0.081411 0.279174 0.455300 0.069431
H56   H     H_    0.119982 0.721496 0.545047 0.072302
H57   H     H_    0.792227 0.984779 0.341857 0.137510
H58   H     H_    0.910709 0.066610 0.311746 0.147252
H59   H     H_    0.832353 0.966590 0.276178 0.138337
H60   H     H_    0.099554 0.971005 0.360448 0.107359
H61   H     H_    0.130182 0.943900 0.296083 0.109490
H62   H     H_    0.933495 0.867101 0.611543 0.137827
H63   H     H_    0.000955 0.880852 0.549716 0.059091
H64   H     H_    0.150402 0.868600 0.600094 0.114943
N1    N     N_R   0.938830 0.504050 0.203735 -0.421285
N2    N     N_R   0.261853 0.501624 0.796628 -0.424096
O1    O     O_2   0.918080 0.549800 0.616640 -0.464539
O2    O     O_2   0.268651 0.829485 0.451193 -0.472567
O3    O     O_3   0.153939 0.797420 0.359818 -0.563129
O4    O     O_3   0.150070 0.549720 0.556460 -0.495288
O5    O     O_3   0.546340 0.387390 0.478340 -0.483959
O6    O     O_2   0.398940 0.728800 0.517420 -0.472056
O7    O     O_3   0.592729 0.762366 0.597101 -0.648717
O8    O     O_2   0.351247 0.581605 0.327765 -0.496967
O9    O     O_3   0.549731 0.723702 0.327262 -0.579841
O10   O     O_2   0.049103 0.358029 0.204501 -0.601496
O11   O     O_2   0.385760 0.360376 0.805429 -0.599411
O12   O     O_3   0.608209 0.255210 0.403709 -0.640782
O13   O     O_2   0.834452 0.650209 0.196516 -0.635016
O14   O     O_2   0.136993 0.643940 0.794773 -0.598952
O15   O     O_3   0.658250 0.379560 0.591530 -0.489680
O16   O     O_2   0.835436 0.424723 0.673775 -0.497442
O17   O     O_3   0.078920 0.699165 0.618647 -0.625571
O18   O     O_3   0.633089 0.291702 0.682631 -0.591854
O19   O     O_2   0.790750 0.271170 0.482550 -0.475558
O20   O     O_3   0.062300 0.331660 0.568480 -0.487898
O21   O     O_2   0.934402 0.166857 0.543154 -0.490834
O22   O     O_3   0.049561 0.186400 0.634853 -0.602626
O23   O     O_2   0.271610 0.450170 0.383330 -0.467303
O24   O     O_3   0.039630 0.450200 0.443530 -0.499868
O25   O     O_3   0.531440 0.620360 0.408460 -0.427638
O26   O     O_3   0.108110 0.300932 0.380717 -0.630945
O27   O     O_3   0.643350 0.612530 0.521650 -0.474864
O28   O     O_3   0.127390 0.668260 0.431510 -0.453997
P1    P     P_3+3 0.090020 0.577590 0.608380 0.994602
P2    P     P_3+3 0.614340 0.285150 0.467650 0.973402
P3    P     P_3+3 0.080031 0.211433 0.573431 0.935465
P4    P     P_3+3 0.099670 0.422330 0.391610 0.991463
P5    P     P_3+3 0.116386 0.787841 0.422870 0.990846
P6    P     P_3+3 0.659108 0.398300 0.656265 0.972517
P7    P     P_3+3 0.585156 0.729898 0.533416 0.941282
P8    P     P_3+3 0.528812 0.608894 0.343803 0.997833

loop_
_geom_bond_atom_site_label_1
_geom_bond_atom_site_label_2
_ccdc_geom_bond_type
C6    C7    D    
C53   C54   A    
C26   O14   D    
Ba2   P4    S    
Ba1   O20   S    
C40   H23   S    
O12   P2    S    
C12   H1    S    
C40   H12   S    
C19   C24   A    
C67   H26   S    
C1    H9    S    
C14   H43   S    
O21   P3    D    
C52   O17   S    
O1    P1    D    
C43   H42   S    
Ba1   O1    S    
C65   H59   S    
C2    O13   D    
C52   H56   S    
C24   C25   A    
C63   H6    S    
C58   P5    S    
C29   H31   S    
C25   C26   A    
C17   C19   A    
C22   C24   A    
C32   C33   S    
C35   C38   A    
C36   C37   A    
C55   C57   A    
C21   H32   S    
O6    P7    D    
C52   C61   S    
O19   P2    D    
C23   H10   S    
C53   C60   A    
C12   H8    S    
O23   P4    D    
O18   P6    S    
Ba1   Ba2   S    
Ba1   O19   S    
C1    H4    S    
C22   C27   A    
C11   C38   A    
C30   P6    S    
C17   C35   A    
C66   H22   S    
O25   P8    S    
C9    C13   A    
C25   C42   A    
Ba2   O23   S    
O22   P3    S    
C21   C22   A    
O3    P5    S    
C68   O10   D    
C6    P4    S    
C7    C8    S    
C45   C64   S    
C16   H53   S    
C37   C43   A    
C67   H28   S    
C62   H2    S    
C64   C65   S    
C28   H55   S    
C57   C58   A    
C6    C14   D    
C5    P8    S    
C62   O12   S    
C1    H16   S    
C23   H11   S    
C32   H41   S    
O28   P5    S    
C23   O7    S    
C15   C31   D    
Ba2   O25   S    
C4    O22   S    
C15   H44   S    
C31   C32   D    
C3    H36   S    
C46   C51   A    
C4    C16   S    
C63   H7    S    
C49   C50   A    
C61   H64   S    
C17   C20   A    
C8    N1    S    
C13   C39   A    
Ba2   O28   S    
C3    C5    S    
C18   C37   A    
C66   C67   S    
C16   H51   S    
O20   P3    S    
C66   H24   S    
C20   H33   S    
C58   C59   A    
O15   P6    S    
C33   N2    S    
C9    C36   A    
C41   C42   A    
C4    H27   S    
C35   C36   A    
C65   H57   S    
O16   P6    D    
C29   C30   S    
Ba1   P1    S    
C62   H3    S    
C52   H45   S    
C47   H46   S    
C48   C49   A    
O5    P2    S    
C44   H50   S    
C54   C59   A    
C61   H62   S    
C10   C11   A    
C55   P7    S    
C56   H20   S    
Ba1   O4    S    
C2    N1    Am   
O26   P4    S    
Ba2   O24   S    
C46   C47   A    
C28   H54   S    
C53   C55   A    
C68   N1    Am   
Ba2   O6    S    
C4    H39   S    
C29   C33   D    
C28   O26   S    
C44   C54   A    
C61   H63   S    
C60   H52   S    
C18   C41   A    
O27   P7    S    
C50   C51   A    
C64   H61   S    
C56   H21   S    
O4    P1    S    
C15   C30   S    
C10   C68   A    
C5    C14   S    
C57   H49   S    
C39   H37   S    
O17   P1    S    
C59   H48   S    
C26   N2    Am   
Ba1   O24   S    
C31   P1    S    
C34   H14   S    
C67   H25   S    
C40   H34   S    
Ba2   O27   S    
C27   O11   D    
C9    C10   A    
C1    C12   S    
C34   H15   S    
O8    P8    D    
C16   H17   S    
C63   H5    S    
Ba2   O4    S    
C45   H18   S    
C2    C13   A    
O7    P7    S    
C3    C8    D    
C50   C60   A    
C65   H58   S    
C62   C63   S    
C45   C56   S    
Ba1   P2    S    
C11   H30   S    
C44   C51   A    
C49   H47   S    
Ba1   O15   S    
C41   H38   S    
O24   P4    S    
C56   H19   S    
O9    P8    S    
Ba1   O5    S    
C23   C34   S    
C27   N2    Am   
C46   P2    S    
C18   C19   A    
Ba1   O27   S    
C7    H29   S    
C47   C48   A    
C45   O3    S    
C48   P3    S    
Ba2   O5    S    
C39   C43   A    
C20   C21   A    
C28   C40   S    
C34   H13   S    
C64   H60   S    
C12   O18   S    
C66   O9    S    
C38   H35   S    
O2    P5    D    
C42   H40   S    
