data_mof_unit_48590.cif
_audit_creation_date              2012-12-11T14:37:44-0500
_audit_creation_method            fapswitch 2.2
_symmetry_space_group_name_H-M    P1
_symmetry_Int_Tables_number       1
_space_group_crystal_system       triclinic
_cell_length_a                    14.502158
_cell_length_b                    15.793973
_cell_length_c                    6.955241
_cell_angle_alpha                 89.970519
_cell_angle_beta                  80.734841
_cell_angle_gamma                 89.994113
_cell_volume                      1572.2911654

loop_
_atom_site_label
_atom_site_type_symbol
_atom_type_description
_atom_site_fract_x
_atom_site_fract_y
_atom_site_fract_z
_atom_type_partial_charge
O1    O     O_R   0.337080 0.165770 0.524980 -0.529218
O2    O     O_R   0.662920 0.834230 0.475020 -0.528537
O3    O     O_R   0.662920 0.665770 0.475020 -0.528517
O4    O     O_R   0.337080 0.334230 0.524980 -0.533760
O5    O     O_R   0.348340 0.341430 0.191390 -0.538044
O6    O     O_R   0.651660 0.658570 0.808610 -0.546298
O7    O     O_R   0.651660 0.841430 0.808610 -0.541517
O8    O     O_R   0.348340 0.158570 0.191390 -0.538387
O9    O     O_R   0.165780 0.339950 0.082750 -0.538986
O10   O     O_R   0.834220 0.660050 0.917250 -0.541593
O11   O     O_R   0.834220 0.839950 0.917250 -0.541268
O12   O     O_R   0.165780 0.160050 0.082750 -0.538968
C1    C     C_R   0.370279 0.364761 0.355927 0.603636
C2    C     C_R   0.629871 0.635152 0.644047 0.643958
C3    C     C_R   0.629771 0.864823 0.644005 0.610281
C4    C     C_R   0.370235 0.135168 0.356011 0.614683
H1    H     H_    0.307237 0.599135 0.171658 0.148051
H2    H     H_    0.394972 0.533948 0.522643 0.128223
H3    H     H_    0.427523 0.869696 0.540698 0.110971
H4    H     H_    0.252865 0.918600 0.144144 0.151881
O13   O     O_3   0.191540 0.250000 0.407620 -0.364245
O14   O     O_3   0.808460 0.750000 0.592380 -0.367192
V1    V     V_3+5 0.262540 0.250000 0.108780 1.452078
V2    V     V_3+5 0.737460 0.750000 0.891220 1.448105
O15   O     O_R   0.154530 0.164290 0.756910 -0.537841
O16   O     O_R   0.845470 0.835710 0.243090 -0.537868
O17   O     O_R   0.845470 0.664290 0.243090 -0.538422
O18   O     O_R   0.154530 0.335710 0.756910 -0.539767
C5    C     C_R   0.132256 0.133403 0.932134 0.701492
C6    C     C_R   0.867820 0.866529 0.067778 0.691057
C7    C     C_R   0.867623 0.633330 0.067995 0.692253
C8    C     C_R   0.132251 0.366613 0.932050 0.683090
H5    H     H_    0.314165 0.471778 0.837210 0.145473
H6    H     H_    0.395808 0.657596 0.861920 0.133396
H7    H     H_    0.297700 0.803200 0.900908 0.134360
H8    H     H_    0.387126 0.984115 0.789679 0.131397
V3    V     V_3+5 0.240320 0.250000 0.616280 1.437929
V4    V     V_3+5 0.759680 0.750000 0.383720 1.447312
O19   O     O_3   0.311330 0.250000 0.867310 -0.373823
O20   O     O_3   0.688670 0.750000 0.132690 -0.371527
C9    C     C_3   0.039918 0.487291 0.159381 -0.135657
C10   C     C_3   0.959645 0.512552 0.840969 -0.145259
C11   C     C_3   0.960170 0.987329 0.840266 -0.146481
C12   C     C_3   0.039869 0.012589 0.159479 -0.145047
C13   C     C_3   0.043315 0.571608 0.042365 -0.171546
C14   C     C_3   0.956327 0.428258 0.957765 -0.178249
C15   C     C_3   0.956456 0.071562 0.957187 -0.180893
C16   C     C_3   0.043652 0.928332 0.042356 -0.182279
H9    H     H_    0.079375 0.630482 0.076057 0.121322
H10   H     H_    0.920476 0.369309 0.923855 0.123641
H11   H     H_    0.920563 0.130484 0.923111 0.123403
H12   H     H_    0.079673 0.869424 0.076096 0.113614
H13   H     H_    0.072158 0.476458 0.291652 0.141566
H14   H     H_    0.927439 0.523367 0.708625 0.139552
H15   H     H_    0.928217 0.976470 0.707642 0.139183
H16   H     H_    0.071893 0.023437 0.291999 0.138074
C17   C     C_3   0.937968 0.562632 0.034415 -0.066304
C18   C     C_3   0.061723 0.437235 0.965665 -0.059859
C19   C     C_3   0.061774 0.062765 0.965884 -0.061815
C20   C     C_3   0.938307 0.937148 0.033786 -0.059701
C21   C     C_3   0.934798 0.479387 0.149007 0.003454
C22   C     C_3   0.064717 0.520497 0.851130 0.007378
C23   C     C_3   0.065212 0.979598 0.851181 0.009101
C24   C     C_3   0.934809 0.020344 0.148398 0.008878
C25   C     C_2   0.408832 0.590910 0.600391 -0.174999
C26   C     C_2   0.295792 0.540983 0.095679 -0.148585
C27   C     C_2   0.296806 0.962340 0.049894 -0.150919
C28   C     C_2   0.385121 0.825646 0.637182 -0.133177
C29   C     C_2   0.380113 0.599237 0.791411 -0.124652
C30   C     C_2   0.327803 0.531067 0.906424 -0.127648
C31   C     C_2   0.344547 0.937790 0.879060 -0.139952
C32   C     C_2   0.339538 0.849690 0.810521 -0.115578
C33   C     C_1   0.863345 0.456694 0.315094 0.264519
N1    N     N_1   0.806978 0.438876 0.446208 -0.381721
C34   C     C_1   0.134343 0.543918 0.682812 0.272997
N2    N     N_1   0.188913 0.562524 0.549380 -0.383769
C35   C     C_1   0.135861 0.957412 0.683490 0.281054
N3    N     N_1   0.191403 0.940085 0.550647 -0.388401
C36   C     C_1   0.863127 0.042888 0.314151 0.263589
N4    N     N_1   0.806586 0.060588 0.445010 -0.382684

loop_
_geom_bond_atom_site_label_1
_geom_bond_atom_site_label_2
_ccdc_geom_bond_type
C18   C22   S    
O12   C5    A    
C33   N1    T    
C13   C22   S    
H4    C27   S    
C8    C18   S    
C11   C23   S    
C35   N3    T    
C12   C24   S    
H2    C25   S    
O12   V1    S    
C13   C17   S    
H1    C26   S    
C9    C18   S    
C25   C29   D    
O17   V4    S    
O7    V2    S    
O14   V4    S    
O11   V2    S    
O8    V1    S    
C10   C14   S    
O4    C1    A    
C12   H16   S    
O9    C8    A    
O15   V3    S    
O10   C7    A    
C5    C19   S    
O3    V4    S    
C6    C20   S    
C9    C21   S    
C10   C22   S    
O5    C1    A    
H8    C31   S    
O1    V3    S    
O7    C3    A    
O8    C4    A    
C14   C18   S    
C10   C17   S    
C16   C20   S    
O15   C5    A    
C14   C21   S    
O17   C7    A    
O18   C8    A    
O11   C6    A    
C15   C24   S    
O9    V1    S    
C16   C23   S    
C15   H11   S    
O10   V2    S    
C34   N2    T    
O6    C2    A    
O2    V4    S    
O5    V1    S    
C13   H9    S    
C28   C32   D    
O6    V2    S    
H3    C28   S    
O1    C4    A    
O2    C3    A    
H6    C29   S    
C9    H13   S    
O3    C2    A    
H5    C30   S    
C11   C20   S    
C11   H15   S    
H7    C32   S    
O16   C6    A    
O13   V1    S    
C24   C36   S    
O14   V2    S    
C22   C34   S    
C23   C35   S    
O16   V4    S    
C17   C21   S    
C14   H10   S    
C19   C23   S    
C20   C24   S    
C21   C33   S    
C7    C17   S    
C31   C32   S    
V3    O19   S    
C10   H14   S    
V4    O20   S    
C26   C30   D    
O18   V3    S    
V1    O19   S    
V2    O20   S    
C27   C31   D    
C29   C30   S    
C15   C19   S    
C36   N4    T    
C16   H12   S    
O13   V3    S    
O4    V3    S    
C9    C13   S    
C12   C19   S    
C11   C15   S    
C12   C16   S    
