data_mof_unit_50251.cif
_audit_creation_date              2012-12-10T17:03:53-0500
_audit_creation_method            fapswitch 2.2
_symmetry_space_group_name_H-M    P1
_symmetry_Int_Tables_number       1
_space_group_crystal_system       triclinic
_cell_length_a                    9.785347
_cell_length_b                    11.11034
_cell_length_c                    15.868425
_cell_angle_alpha                 94.608288
_cell_angle_beta                  79.84157
_cell_angle_gamma                 111.24064
_cell_volume                      1582.532997

loop_
_atom_site_label
_atom_site_type_symbol
_atom_type_description
_atom_site_fract_x
_atom_site_fract_y
_atom_site_fract_z
_atom_type_partial_charge
C1    C     C_R   0.556954 0.744982 0.504175 0.890899
C2    C     C_R   0.443270 0.254987 0.495546 0.888301
C3    C     C_R   0.325084 0.412974 0.071742 -0.223740
C4    C     C_R   0.677906 0.567366 0.925232 -0.196870
C5    C     C_R   0.217795 0.387791 0.017938 0.427841
C6    C     C_R   0.783080 0.596132 0.979898 0.440087
C7    C     C_2   0.583204 0.881678 0.514169 -0.359220
C8    C     C_2   0.417720 0.118341 0.485153 -0.359374
C9    C     C_2   0.499677 0.935575 0.483609 0.305105
C10   C     C_2   0.502738 0.065007 0.514788 0.306112
C11   C     C_2   0.921522 0.488364 0.493973 -0.002406
C12   C     C_2   0.077302 0.509671 0.507330 0.004001
C13   C     C_R   0.410887 0.479395 0.662364 0.838724
C14   C     C_R   0.588948 0.519794 0.337481 0.829560
C15   C     C_R   0.358938 0.457067 0.754729 -0.129390
C16   C     C_R   0.640614 0.539144 0.244743 -0.108040
C17   C     C_R   0.162165 0.408823 0.876979 -0.113349
C18   C     C_R   0.838477 0.585136 0.123015 -0.206477
C19   C     C_R   0.210516 0.435589 0.790122 -0.246183
C20   C     C_R   0.789865 0.563026 0.210310 -0.268422
C21   C     C_R   0.458445 0.454215 0.808512 0.319433
C22   C     C_R   0.540408 0.535831 0.189550 0.327962
C23   C     C_R   0.418656 0.461635 0.897819 -0.027655
C24   C     C_R   0.582142 0.526517 0.100385 -0.018679
C25   C     C_R   0.265374 0.420830 0.931516 0.026080
C26   C     C_R   0.735692 0.567848 0.067342 0.002969
C27   C     C_R   0.525252 0.502235 0.954382 0.008675
C28   C     C_R   0.476516 0.483420 0.043213 0.021531
Cu1   Cu    Cu3+1 0.362980 0.479380 0.485080 1.023548
Cu2   Cu    Cu3+1 0.637020 0.520620 0.514920 1.020999
H1    H     H_    0.870257 0.570521 0.251277 0.190525
H2    H     H_    0.130542 0.432937 0.750064 0.194757
H3    H     H_    0.044939 0.383111 0.901815 0.203421
H4    H     H_    0.956062 0.612218 0.098951 0.177689
H5    H     H_    0.289901 0.375285 0.135663 0.177849
H6    H     H_    0.718011 0.597883 0.859709 0.192018
H7    H     H_    0.335654 0.064281 0.445261 0.180160
H8    H     H_    0.664534 0.935273 0.554606 0.180633
H9    H     H_    0.124638 0.578732 0.556160 0.157645
H10   H     H_    0.872867 0.417484 0.446518 0.157979
H11   H     H_    0.109432 0.383010 0.416886 0.204932
H12   H     H_    0.891516 0.618504 0.582146 0.204698
N1    N     N_2   0.842890 0.551600 0.537350 -0.260336
N2    N     N_2   0.157110 0.448400 0.462650 -0.263909
O1    O     O_R   0.426810 0.668300 0.492040 -0.516971
O2    O     O_R   0.573190 0.331700 0.507960 -0.516270
O3    O     O_R   0.658240 0.703130 0.517240 -0.590802
O4    O     O_R   0.341760 0.296870 0.482760 -0.590334
O5    O     O_R   0.319390 0.472820 0.610170 -0.601945
O6    O     O_R   0.680610 0.527180 0.389830 -0.603379
O7    O     O_R   0.550820 0.507640 0.635370 -0.519490
O8    O     O_R   0.449180 0.492360 0.364630 -0.515330
O9    O     O_3   0.070138 0.311485 0.043831 -0.627040
C29   C     C_3   0.007418 0.355432 0.121875 0.038513
H13   H     H_    0.903907 0.366340 0.110575 0.185066
H14   H     H_    0.078493 0.451468 0.145030 0.165552
C30   C     C_3   0.964779 0.253516 0.190645 -0.313696
H15   H     H_    0.887608 0.160566 0.168072 0.236918
H16   H     H_    0.065140 0.237396 0.202618 0.217865
C31   C     C_3   0.889477 0.295212 0.274370 -0.900189
H17   H     H_    0.964086 0.389286 0.296942 0.254308
H18   H     H_    0.864257 0.221875 0.323968 0.261984
H19   H     H_    0.783896 0.304714 0.265239 0.259239
O10   O     O_3   0.932329 0.648838 0.945910 -0.611731
C32   C     C_3   0.987152 0.783440 0.964007 0.038496
H20   H     H_    0.106097 0.811169 0.970163 0.181553
H21   H     H_    0.931518 0.811887 0.025900 0.141948
C33   C     C_3   0.976144 0.859367 0.890574 -0.376482
H22   H     H_    0.032464 0.830990 0.829308 0.241361
H23   H     H_    0.857571 0.836379 0.885372 0.215012
C34   C     C_3   0.047928 0.004815 0.905288 -0.807072
H24   H     H_    0.992008 0.035599 0.965758 0.270840
H25   H     H_    0.037450 0.057166 0.851421 0.265491
H26   H     H_    0.167726 0.031233 0.908753 0.262714
Cl1   Cl    Cl    0.386510 0.585732 0.228115 -0.589367
Cl2   Cl    Cl    0.604179 0.395067 0.767603 -0.547944
Cl3   Cl    Cl    0.610462 0.144490 0.596285 -0.560796
Cl4   Cl    Cl    0.393856 0.856586 0.401239 -0.568107

loop_
_geom_bond_atom_site_label_1
_geom_bond_atom_site_label_2
_ccdc_geom_bond_type
Cu2   O7    S    
C4    H6    S    
C18   C26   A    
Cu1   O5    S    
O9    C29   S    
C2    O2    A    
C15   C19   A    
C21   Cl2   S    
C31   H19   S    
C5    O9    S    
C3    C28   A    
C24   C26   A    
C30   H16   S    
C31   H18   S    
C6    O10   S    
C13   O7    A    
C14   O8    A    
C33   H22   S    
C32   H21   S    
C11   N1    D    
C23   C27   A    
C9    C10   S    
C18   C20   A    
Cu2   O6    S    
C17   H3    S    
C22   Cl1   S    
C19   H2    S    
C10   Cl3   S    
Cu1   O8    S    
C29   H14   S    
C14   O6    A    
Cu1   O4    S    
Cu2   O3    S    
C4    C6    A    
C34   H25   S    
C1    O3    A    
C30   C31   S    
C2    O4    A    
Cu1   O1    S    
C31   H17   S    
Cu1   Cu2   S    
C3    H5    S    
C16   C20   A    
C32   C33   S    
C18   H4    S    
C13   O5    A    
C5    C25   A    
C33   H23   S    
C21   C23   A    
Cu1   N2    S    
H11   N2    S    
C14   C16   S    
Cu2   N1    S    
H12   N1    S    
C4    C27   A    
C7    C9    D    
C29   H13   S    
C16   C22   A    
C1    C7    S    
Cu2   O2    S    
C2    C8    S    
C24   C28   A    
C3    C5    A    
C34   H26   S    
C11   C12   S    
C17   C25   A    
O10   C32   S    
C12   H9    S    
C13   C15   S    
C34   H24   S    
C12   N2    D    
C1    O1    A    
C30   H15   S    
C6    C26   A    
C33   C34   S    
C17   C19   A    
C7    H8    S    
C22   C24   A    
C9    Cl4   S    
C23   C25   A    
C11   H10   S    
C15   C21   A    
C8    C10   D    
C32   H20   S    
C8    H7    S    
C27   C28   A    
C20   H1    S    
C29   C30   S    
