data_mof_unit_50822.cif
_audit_creation_date              2012-12-10T19:48:34-0500
_audit_creation_method            fapswitch 2.2
_symmetry_space_group_name_H-M    P1
_symmetry_Int_Tables_number       1
_space_group_crystal_system       triclinic
_cell_length_a                    13.073456
_cell_length_b                    14.195796
_cell_length_c                    14.905792
_cell_angle_alpha                 89.559795
_cell_angle_beta                  90.427143
_cell_angle_gamma                 69.439468
_cell_volume                      2589.89801144

loop_
_atom_site_label
_atom_site_type_symbol
_atom_type_description
_atom_site_fract_x
_atom_site_fract_y
_atom_site_fract_z
_atom_type_partial_charge
C1    C     C_R   0.499065 0.500005 0.672325 0.863537
C2    C     C_R   0.824822 0.405838 0.493127 -0.140326
C3    C     C_R   0.606612 0.408298 0.899706 0.021085
C4    C     C_R   0.705083 0.443710 0.497132 0.909998
C5    C     C_R   0.585866 0.411856 0.807943 -0.255250
C6    C     C_R   0.507834 0.496832 0.768475 -0.166650
C7    C     C_R   0.448062 0.580291 0.820507 0.446729
C8    C     C_R   0.469827 0.577300 0.911503 -0.168627
C9    C     C_R   0.546578 0.491847 0.951375 -0.051302
C10   C     C_R   0.568023 0.562560 0.097009 -0.188779
C11   C     C_R   0.552324 0.567039 0.188683 -0.196286
C12   C     C_R   0.986116 0.452268 0.485745 0.103659
C13   C     C_R   0.517059 0.495719 0.231456 -0.029646
C14   C     C_R   0.500561 0.418332 0.182592 -0.195685
C15   C     C_R   0.515728 0.414299 0.090881 -0.133717
C16   C     C_R   0.502577 0.499519 0.327412 0.852829
C17   C     C_R   0.548423 0.486943 0.048213 0.128268
C18   C     C_R   0.593880 0.866556 0.502881 -0.247651
C19   C     C_R   0.594916 0.767182 0.505031 0.021158
C20   C     C_R   0.402564 0.825447 0.491529 0.021031
C21   C     C_R   0.397961 0.926211 0.489616 -0.261522
C22   C     C_R   0.494417 0.948302 0.496697 0.137754
C23   C     C_R   0.878049 0.469202 0.458698 -0.050220
C24   C     C_R   0.435048 0.127429 0.436084 -0.326914
C25   C     C_R   0.439270 0.225388 0.437141 -0.080344
C26   C     C_R   0.556475 0.183364 0.564524 0.549188
C27   C     C_R   0.550351 0.086282 0.568475 0.377960
C28   C     C_R   0.295319 0.556154 0.499695 0.859615
C29   C     C_R   0.492125 0.055310 0.501134 -0.078375
C30   C     C_R   0.024417 0.681664 0.391346 -0.136977
C31   C     C_R   0.177645 0.592066 0.487404 -0.168538
C32   C     C_R   0.886666 0.312695 0.533738 0.452229
C33   C     C_R   0.999851 0.287360 0.543742 -0.289227
C34   C     C_R   0.028980 0.529734 0.472280 -0.030941
C35   C     C_R   0.048662 0.356946 0.521893 -0.129807
C36   C     C_R   0.691602 0.317962 0.939500 0.106027
C37   C     C_R   0.773561 0.327978 0.996225 -0.121359
C38   C     C_R   0.853060 0.242766 0.033759 -0.131135
C39   C     C_R   0.851912 0.146944 0.014650 -0.108149
C40   C     C_R   0.771371 0.136142 0.957810 -0.109864
C41   C     C_R   0.691613 0.221138 0.920191 -0.146508
C42   C     C_R   0.975285 0.610646 0.412098 0.043966
C43   C     C_R   0.874515 0.618495 0.373184 0.427470
C44   C     C_R   0.825881 0.548712 0.397994 -0.317113
C45   C     C_R   0.121857 0.530905 0.519402 0.403381
C46   C     C_R   0.127412 0.669750 0.425913 -0.284072
H1    H     H_    0.169905 0.717823 0.401348 0.172522
H2    H     H_    0.327549 0.809812 0.486471 0.128630
H3    H     H_    0.319396 0.986425 0.484536 0.144197
H4    H     H_    0.388557 0.107709 0.383734 0.176045
H5    H     H_    0.394200 0.279794 0.386864 0.161504
H6    H     H_    0.986582 0.742908 0.344434 0.202834
H7    H     H_    0.136252 0.333524 0.530510 0.206240
H8    H     H_    0.049898 0.215122 0.571834 0.149808
H9    H     H_    0.748256 0.555372 0.367415 0.159073
H10   H     H_    0.339579 0.647143 0.728551 0.329636
H11   H     H_    0.753108 0.691224 0.293422 0.330709
H12   H     H_    0.633424 0.349608 0.766531 0.197790
H13   H     H_    0.637087 0.264214 0.606777 0.390747
H14   H     H_    0.567855 0.973776 0.649891 0.337070
H15   H     H_    0.206465 0.498617 0.631331 0.330975
H16   H     H_    0.890652 0.187674 0.591167 0.342934
H17   H     H_    0.776318 0.401631 0.010974 0.136146
H18   H     H_    0.915751 0.251029 0.077509 0.136312
H19   H     H_    0.913546 0.081057 0.043752 0.135569
H20   H     H_    0.770613 0.061866 0.943002 0.150070
H21   H     H_    0.629252 0.211500 0.876817 0.163716
H22   H     H_    0.421926 0.639976 0.952316 0.170142
H23   H     H_    0.592563 0.619207 0.063653 0.145993
H24   H     H_    0.567468 0.626203 0.225847 0.154048
H25   H     H_    0.473894 0.362410 0.214834 0.153195
H26   H     H_    0.498289 0.356926 0.052730 0.140269
H27   H     H_    0.670581 0.879559 0.507180 0.179215
H28   H     H_    0.672399 0.706202 0.511014 0.152806
N1    N     N_R   0.500000 0.747530 0.500020 -0.090839
N2    N     N_R   0.499940 0.252470 0.500020 -0.174145
O1    O     O_R   0.499990 0.420530 0.630930 -0.615296
O2    O     O_3   0.823689 0.695997 0.313271 -0.783731
O3    O     O_3   0.619467 0.206470 0.628862 -0.721584
O4    O     O_3   0.602328 0.024789 0.639693 -0.724829
O5    O     O_3   0.155509 0.474124 0.597239 -0.774618
O6    O     O_3   0.835456 0.248591 0.564066 -0.763104
O7    O     O_R   0.499990 0.579480 0.630940 -0.590288
O8    O     O_R   0.653620 0.381060 0.499970 -0.581923
O9    O     O_R   0.653620 0.540010 0.499980 -0.634004
O10   O     O_R   0.500010 0.420520 0.369060 -0.624067
O11   O     O_R   0.500010 0.579470 0.369070 -0.626140
O12   O     O_R   0.346380 0.459990 0.500020 -0.591833
O13   O     O_R   0.346380 0.618940 0.500030 -0.623214
O14   O     O_3   0.366406 0.664197 0.786239 -0.755606
Zn1   Zn    Zn3+2 0.500000 0.393860 0.499990 0.969637
Zn2   Zn    Zn3+2 0.500000 0.606140 0.500010 0.946495

loop_
_geom_bond_atom_site_label_1
_geom_bond_atom_site_label_2
_ccdc_geom_bond_type
C22   C29   S    
C35   H7    S    
C1    O1    A    
C14   H25   S    
C34   C42   A    
C21   H3    S    
C11   H24   S    
C7    C8    A    
C41   H21   S    
C43   O2    S    
O7    Zn2   S    
C12   C23   A    
C26   C27   A    
C5    H12   S    
C21   C22   A    
C36   C37   A    
O10   Zn1   S    
C38   C39   A    
C27   C29   A    
C10   C17   A    
C2    C32   A    
C18   C19   A    
C24   C29   A    
O1    Zn1   S    
C8    C9    A    
C31   C46   A    
C28   O12   A    
C16   O11   A    
C26   N2    A    
C28   O13   A    
O8    Zn1   S    
H10   O14   S    
H16   O6    S    
C40   H20   S    
C13   C14   A    
C16   O10   A    
C39   H19   S    
C36   C41   A    
C37   H17   S    
O9    Zn2   S    
C38   H18   S    
C28   C31   S    
C24   H4    S    
C1    C6    S    
C24   C25   A    
C27   O4    S    
H13   O3    S    
C39   C40   A    
C4    O9    A    
C7    O14   S    
C23   C44   A    
C20   N1    A    
O13   Zn2   S    
C2    C4    S    
C43   C44   A    
C25   H5    S    
C37   C38   A    
C3    C9    A    
C4    O8    A    
O12   Zn1   S    
C34   C45   A    
C12   C35   A    
C20   H2    S    
N1    Zn2   S    
C9    C17   S    
C40   C41   A    
C8    H22   S    
C18   H27   S    
C42   C43   A    
C12   C34   A    
C33   H8    S    
C15   C17   A    
C30   H6    S    
C46   H1    S    
H14   O4    S    
C18   C22   A    
H11   O2    S    
C30   C46   A    
C19   H28   S    
C45   O5    S    
C3    C5    A    
C6    C7    A    
C1    O7    A    
C32   O6    S    
C26   O3    S    
C25   N2    A    
C32   C33   A    
C19   N1    A    
H15   O5    S    
C11   C13   A    
C44   H9    S    
C5    C6    A    
C3    C36   S    
C33   C35   A    
C15   H26   S    
C10   C11   A    
N2    Zn1   S    
C10   H23   S    
C20   C21   A    
C31   C45   A    
C13   C16   S    
C2    C23   A    
C14   C15   A    
C30   C42   A    
O11   Zn2   S    
