data_mof_unit_64041.cif
_audit_creation_date              2013-03-05T16:06:31-0500
_audit_creation_method            fapswitch 2.2
_symmetry_space_group_name_H-M    P1
_symmetry_Int_Tables_number       1
_space_group_crystal_system       triclinic
_cell_length_a                    45.150963
_cell_length_b                    45.069934
_cell_length_c                    35.832106
_cell_angle_alpha                 89.98024
_cell_angle_beta                  51.08339
_cell_angle_gamma                 89.999742
_cell_volume                      56733.5445501

loop_
_atom_site_label
_atom_site_type_symbol
_atom_site_description
_atom_site_fract_x
_atom_site_fract_y
_atom_site_fract_z
_atom_type_partial_charge
O1    O     O_R   0.763390 0.701950 0.499990 -0.614901
O2    O     O_R   0.236610 0.701950 0.500010 -0.617168
O3    O     O_R   0.263390 0.201950 0.499990 -0.616605
O4    O     O_R   0.736610 0.201950 0.500010 -0.616345
O5    O     O_R   0.798050 0.736630 0.499990 -0.608536
O6    O     O_R   0.201950 0.736630 0.500010 -0.604239
O7    O     O_R   0.298050 0.236630 0.499990 -0.605175
O8    O     O_R   0.701950 0.236630 0.500010 -0.606030
C1    C     C_R   0.790593 0.709394 0.499988 0.914254
C2    C     C_R   0.209407 0.709394 0.500013 0.912597
C3    C     C_R   0.290594 0.209394 0.499986 0.912927
C4    C     C_R   0.709407 0.209394 0.500012 0.913406
O9    O     O_R   0.768300 0.732660 0.428750 -0.610034
O10   O     O_R   0.231700 0.732660 0.571250 -0.611252
O11   O     O_R   0.268300 0.232660 0.428750 -0.610703
O12   O     O_R   0.731700 0.232660 0.571250 -0.610942
O13   O     O_R   0.802970 0.767330 0.428750 -0.619365
O14   O     O_R   0.197030 0.767330 0.571250 -0.617996
O15   O     O_R   0.302970 0.267330 0.428750 -0.618608
O16   O     O_R   0.697030 0.267330 0.571250 -0.618336
C5    C     C_R   0.796933 0.750187 0.405656 0.879014
C6    C     C_R   0.203125 0.750225 0.594342 0.877481
C7    C     C_R   0.296928 0.250191 0.405658 0.877690
C8    C     C_R   0.703121 0.250222 0.594344 0.878341
Zn1   Zn    Zn3+2 0.726860 0.726850 0.499990 1.009021
Zn2   Zn    Zn3+2 0.273140 0.726850 0.500010 1.007061
Zn3   Zn    Zn3+2 0.226860 0.226850 0.499990 1.007831
Zn4   Zn    Zn3+2 0.773140 0.226850 0.500010 1.007530
Zn5   Zn    Zn3+2 0.773150 0.773160 0.500000 1.015880
Zn6   Zn    Zn3+2 0.226850 0.773160 0.500000 1.020561
Zn7   Zn    Zn3+2 0.273150 0.273160 0.500000 1.018972
Zn8   Zn    Zn3+2 0.726850 0.273160 0.500000 1.019213
O17   O     O_R   0.701960 0.763380 0.500000 -0.615089
O18   O     O_R   0.298040 0.763380 0.500000 -0.615131
O19   O     O_R   0.201960 0.263380 0.500000 -0.614931
O20   O     O_R   0.798040 0.263380 0.500000 -0.615299
O21   O     O_R   0.736620 0.798060 0.500000 -0.601596
O22   O     O_R   0.263380 0.798060 0.500000 -0.601301
O23   O     O_R   0.236620 0.298060 0.500000 -0.601765
O24   O     O_R   0.763380 0.298060 0.500000 -0.601063
O25   O     O_R   0.697040 0.732680 0.571240 -0.624437
O26   O     O_R   0.302960 0.732680 0.428760 -0.624433
O27   O     O_R   0.197040 0.232680 0.571240 -0.624395
O28   O     O_R   0.802960 0.232680 0.428760 -0.624486
O29   O     O_R   0.731710 0.767350 0.571240 -0.618777
O30   O     O_R   0.268290 0.767350 0.428760 -0.618445
O31   O     O_R   0.231710 0.267350 0.571240 -0.618538
O32   O     O_R   0.768290 0.267350 0.428760 -0.618547
C9    C     C_R   0.709442 0.790616 0.499956 0.910949
C10   C     C_R   0.290558 0.790616 0.500045 0.910808
C11   C     C_R   0.209442 0.290616 0.499955 0.910945
C12   C     C_R   0.790559 0.290616 0.500044 0.910754
C13   C     C_R   0.702853 0.750039 0.594289 0.879615
C14   C     C_R   0.297139 0.750044 0.405710 0.879584
C15   C     C_R   0.202854 0.250038 0.594289 0.879721
C16   C     C_R   0.797139 0.250044 0.405710 0.879443
C17   C     C_R   0.988459 0.778745 0.025988 0.055349
C18   C     C_R   0.012948 0.724631 0.974205 0.054856
C19   C     C_R   0.488568 0.278743 0.025985 0.055365
C20   C     C_R   0.512696 0.224637 0.974210 0.054845
C21   C     C_R   0.977645 0.751185 0.050654 0.075424
C22   C     C_R   0.025925 0.752156 0.949378 0.075373
C23   C     C_R   0.477571 0.251175 0.050655 0.075386
C24   C     C_R   0.525858 0.252155 0.949379 0.075405
C25   C     C_R   0.991085 0.724191 0.024796 0.034134
C26   C     C_R   0.014842 0.779176 0.975070 0.034113
C27   C     C_R   0.490829 0.224178 0.024802 0.034078
C28   C     C_R   0.514954 0.279165 0.975067 0.034107
C29   C     C_R   0.972044 0.805019 0.053240 -0.209422
C30   C     C_R   0.021847 0.698365 0.947520 -0.209100
C31   C     C_R   0.472328 0.305037 0.053233 -0.209360
C32   C     C_R   0.521421 0.198398 0.947530 -0.209061
C33   C     C_R   0.947408 0.804340 0.102903 -0.130289
C34   C     C_R   0.044870 0.698935 0.897951 -0.128127
C35   C     C_R   0.447691 0.304360 0.102896 -0.130238
C36   C     C_R   0.544454 0.198977 0.897959 -0.127768
C37   C     C_R   0.937959 0.777479 0.127425 -0.016594
C38   C     C_R   0.059737 0.725689 0.873039 -0.019835
C39   C     C_R   0.438067 0.277484 0.127422 -0.016772
C40   C     C_R   0.559504 0.225711 0.873044 -0.020188
C41   C     C_R   0.953021 0.750661 0.101599 -0.058626
C42   C     C_R   0.050226 0.752570 0.898444 -0.058944
C43   C     C_R   0.452949 0.250650 0.101600 -0.058766
C44   C     C_R   0.550167 0.252573 0.898445 -0.058913
C45   C     C_R   0.943267 0.723458 0.126731 -0.070871
C46   C     C_R   0.065096 0.779683 0.872903 -0.068346
C47   C     C_R   0.443018 0.223431 0.126737 -0.070553
C48   C     C_R   0.565220 0.279670 0.872901 -0.068239
C49   C     C_R   0.959281 0.696842 0.100185 0.002051
C50   C     C_R   0.055361 0.806401 0.899036 0.003320
C51   C     C_R   0.458848 0.196795 0.100194 0.002506
C52   C     C_R   0.555660 0.306367 0.899030 0.003344
C53   C     C_R   0.982704 0.697518 0.050311 -0.247243
C54   C     C_R   0.030842 0.805836 0.948988 -0.247752
C55   C     C_R   0.482269 0.197477 0.050320 -0.247445
C56   C     C_R   0.531133 0.305803 0.948981 -0.247770
C57   C     C_R   0.912991 0.776879 0.177538 0.511844
C58   C     C_R   0.083987 0.726057 0.822960 0.516477
C59   C     C_R   0.413102 0.276887 0.177536 0.512138
C60   C     C_R   0.583767 0.226080 0.822965 0.516972
N1    N     N_R   0.903373 0.750529 0.201265 -0.351884
N2    N     N_R   0.098555 0.752223 0.798802 -0.351809
N3    N     N_R   0.403316 0.250526 0.201268 -0.351710
N4    N     N_R   0.598510 0.252228 0.798805 -0.351919
C61   C     C_R   0.917893 0.724172 0.177476 0.512549
C62   C     C_R   0.089670 0.778721 0.822155 0.507760
C63   C     C_R   0.417662 0.224150 0.177481 0.511876
C64   C     C_R   0.589794 0.278709 0.822152 0.507644
H1    H     H_    0.976666 0.826546 0.037326 0.148766
H2    H     H_    0.010563 0.676950 0.963985 0.149892
H3    H     H_    0.477091 0.326584 0.037315 0.148792
H4    H     H_    0.509990 0.177005 0.963998 0.149946
H5    H     H_    0.935568 0.825127 0.122063 0.194224
H6    H     H_    0.051052 0.678132 0.879174 0.195292
H7    H     H_    0.435990 0.325163 0.122053 0.194265
H8    H     H_    0.550498 0.178194 0.879185 0.195493
O33   O     O_2   0.897975 0.802406 0.202535 -0.554355
O34   O     O_2   0.093109 0.700436 0.798384 -0.546327
O35   O     O_2   0.398253 0.302432 0.202527 -0.554058
O36   O     O_2   0.592731 0.200479 0.798389 -0.544883
O37   O     O_2   0.907506 0.698939 0.203196 -0.536427
O38   O     O_2   0.105021 0.803799 0.796020 -0.545849
O39   O     O_2   0.407121 0.198903 0.203204 -0.538792
O40   O     O_2   0.605309 0.303770 0.796014 -0.545970
H9    H     H_    0.995077 0.676672 0.032039 0.144917
H10   H     H_    0.025665 0.826787 0.966702 0.144091
H11   H     H_    0.494499 0.176609 0.032052 0.144916
H12   H     H_    0.526094 0.326731 0.966693 0.144093
C65   C     C_R   0.839520 0.740025 0.275448 -0.135193
C66   C     C_R   0.161820 0.741034 0.724216 -0.137409
C67   C     C_R   0.339430 0.240131 0.275472 -0.135465
C68   C     C_R   0.661739 0.240935 0.724240 -0.137381
H13   H     H_    0.831659 0.732299 0.254066 0.145639
H14   H     H_    0.170011 0.733463 0.745318 0.145254
H15   H     H_    0.331526 0.232477 0.254104 0.145812
H16   H     H_    0.669888 0.233294 0.745356 0.145106
C69   C     C_R   0.812859 0.739848 0.325418 -0.041540
C70   C     C_R   0.188003 0.740392 0.674233 -0.041438
C71   C     C_R   0.312783 0.239955 0.325443 -0.041858
C72   C     C_R   0.687933 0.240291 0.674257 -0.041262
C73   C     C_R   0.823516 0.750168 0.352851 -0.094904
C74   C     C_R   0.176926 0.750511 0.647150 -0.095830
C75   C     C_R   0.323497 0.250180 0.352857 -0.095731
C76   C     C_R   0.676911 0.250502 0.647155 -0.095557
C77   C     C_R   0.860706 0.760784 0.329155 -0.197133
C78   C     C_R   0.139801 0.761389 0.671214 -0.199778
C79   C     C_R   0.360725 0.260705 0.329147 -0.198835
C80   C     C_R   0.639825 0.261469 0.671206 -0.198431
H17   H     H_    0.869665 0.768758 0.349192 0.179223
H18   H     H_    0.130546 0.769240 0.651445 0.180268
H19   H     H_    0.369722 0.268605 0.349176 0.180251
H20   H     H_    0.630606 0.269391 0.651428 0.179906
C81   C     C_R   0.886974 0.760875 0.279341 -0.084665
C82   C     C_R   0.114004 0.761949 0.721066 -0.085604
C83   C     C_R   0.386981 0.260792 0.279332 -0.086181
C84   C     C_R   0.614018 0.262033 0.721057 -0.084654
H21   H     H_    0.915586 0.768949 0.261533 0.152013
H22   H     H_    0.085436 0.770230 0.739177 0.152152
H23   H     H_    0.415626 0.268790 0.261511 0.152333
H24   H     H_    0.585484 0.270388 0.739156 0.152077
C85   C     C_R   0.876446 0.750423 0.252490 0.297590
C86   C     C_R   0.124962 0.751705 0.747556 0.297997
C87   C     C_R   0.376399 0.250431 0.252495 0.297476
C88   C     C_R   0.624925 0.251701 0.747561 0.298000
C89   C     C_3   0.830109 0.617959 0.526118 -0.517032
C90   C     C_3   0.166783 0.615903 0.484253 -0.516729
C91   C     C_3   0.332529 0.116204 0.517752 -0.516491
C92   C     C_3   0.668383 0.116708 0.479434 -0.516899
C93   C     C_3   0.868821 0.656603 0.528183 -0.170924
C94   C     C_3   0.139085 0.653371 0.462416 -0.170924
C95   C     C_3   0.362430 0.154031 0.535904 -0.171167
C96   C     C_3   0.635525 0.154946 0.466426 -0.171239
C97   C     C_3   0.896185 0.633209 0.523541 -0.401774
C98   C     C_3   0.111554 0.630398 0.466546 -0.401514
C99   C     C_3   0.389943 0.130985 0.531656 -0.401328
C100  C     C_3   0.608051 0.131789 0.470810 -0.401409
H25   H     H_    0.804149 0.624020 0.562863 0.199375
H26   H     H_    0.195610 0.618444 0.448803 0.199668
H27   H     H_    0.304167 0.119381 0.553587 0.199658
H28   H     H_    0.696046 0.120829 0.443179 0.199498
H29   H     H_    0.843519 0.658298 0.566814 0.139702
H30   H     H_    0.167032 0.651395 0.425835 0.139759
H31   H     H_    0.334896 0.152715 0.573017 0.139792
H32   H     H_    0.662422 0.154609 0.428690 0.139734
H33   H     H_    0.887418 0.628386 0.559712 0.174179
H34   H     H_    0.123974 0.622030 0.430150 0.174336
H35   H     H_    0.378147 0.123268 0.568147 0.174340
H36   H     H_    0.618936 0.125029 0.434290 0.174299
H37   H     H_    0.925901 0.641815 0.501374 0.201423
H38   H     H_    0.083748 0.640800 0.481271 0.201075
H39   H     H_    0.418200 0.141111 0.515458 0.201347
H40   H     H_    0.579239 0.141467 0.489000 0.201427
C101  C     C_1   0.937394 0.562769 0.499870 -0.153972
C102  C     C_1   0.062639 0.562759 0.500083 -0.154428
C103  C     C_1   0.437384 0.062761 0.499874 -0.154156
C104  C     C_1   0.562634 0.062763 0.500085 -0.154215
C105  C     C_3   0.854956 0.646012 0.499852 0.146494
C106  C     C_3   0.145234 0.645993 0.499799 0.146994
C107  C     C_3   0.354817 0.145998 0.500105 0.146588
C108  C     C_3   0.645155 0.146004 0.499938 0.146923
C109  C     C_3   0.853690 0.593549 0.527713 -0.136274
C110  C     C_3   0.143322 0.591333 0.482736 -0.136116
C111  C     C_3   0.356014 0.091663 0.519280 -0.136326
C112  C     C_3   0.644876 0.092210 0.477868 -0.136149
C113  C     C_3   0.895557 0.604382 0.500291 0.211475
C114  C     C_3   0.104549 0.604322 0.499614 0.212231
C115  C     C_3   0.395491 0.104333 0.500328 0.211740
C116  C     C_3   0.604515 0.104349 0.499630 0.211921
C117  C     C_3   0.912663 0.611694 0.447946 -0.470810
C118  C     C_3   0.082815 0.616703 0.551083 -0.472044
C119  C     C_3   0.416454 0.115791 0.448498 -0.471581
C120  C     C_3   0.584693 0.114444 0.551815 -0.471561
C121  C     C_3   0.888945 0.636474 0.447358 0.186676
C122  C     C_3   0.106597 0.641530 0.551442 0.186921
C123  C     C_3   0.392681 0.140609 0.448100 0.186793
C124  C     C_3   0.608440 0.139252 0.552284 0.186726
C125  C     C_1   0.918600 0.581498 0.499959 -0.065763
C126  C     C_1   0.081464 0.581470 0.499967 -0.066054
C127  C     C_1   0.418570 0.081475 0.499975 -0.065821
C128  C     C_1   0.581448 0.081482 0.499975 -0.065894
C129  C     C_1   0.831698 0.668594 0.499937 -0.044255
C130  C     C_1   0.168406 0.668583 0.499874 -0.044232
C131  C     C_1   0.331624 0.168585 0.500069 -0.044099
C132  C     C_1   0.668365 0.168589 0.499946 -0.044339
C133  C     C_1   0.812807 0.687194 0.499972 -0.130865
C134  C     C_1   0.187237 0.687190 0.499945 -0.130779
C135  C     C_1   0.312777 0.187191 0.500028 -0.130567
C136  C     C_1   0.687221 0.187192 0.499975 -0.130907
H41   H     H_    0.876588 0.626586 0.431301 0.112210
H42   H     H_    0.113428 0.633563 0.574741 0.111010
H43   H     H_    0.384789 0.132235 0.426096 0.111766
H44   H     H_    0.617784 0.130328 0.572444 0.111349
H45   H     H_    0.912373 0.591427 0.430405 0.160978
H46   H     H_    0.077572 0.598490 0.575611 0.160596
H47   H     H_    0.420646 0.097151 0.425203 0.160974
H48   H     H_    0.581960 0.095217 0.573326 0.160632
H49   H     H_    0.819784 0.609113 0.507095 0.181940
H50   H     H_    0.171556 0.609250 0.510042 0.181688
H51   H     H_    0.326697 0.109100 0.493156 0.182030
H52   H     H_    0.675668 0.108981 0.502316 0.181660
H53   H     H_    0.853971 0.573316 0.509680 0.141603
H54   H     H_    0.137520 0.573202 0.507657 0.141849
H55   H     H_    0.360765 0.073097 0.495572 0.142080
H56   H     H_    0.641576 0.073044 0.499820 0.141582
H57   H     H_    0.943082 0.618083 0.426863 0.228971
H58   H     H_    0.054264 0.624800 0.564996 0.228145
H59   H     H_    0.445443 0.123630 0.433166 0.228383
H60   H     H_    0.555160 0.121853 0.569065 0.228558
C137  C     C_R   0.511743 0.777646 0.974566 0.044169
C138  C     C_R   0.488092 0.777648 0.025391 0.044144
C139  C     C_R   0.011756 0.277645 0.974564 0.044165
C140  C     C_R   0.988105 0.277647 0.025390 0.044128
C141  C     C_R   0.525212 0.750259 0.949437 0.074724
C142  C     C_R   0.474613 0.750262 0.050563 0.074726
C143  C     C_R   0.025220 0.250258 0.949437 0.074733
C144  C     C_R   0.974619 0.250261 0.050562 0.074728
C145  C     C_R   0.513507 0.722874 0.974619 0.045068
C146  C     C_R   0.486301 0.722876 0.025424 0.045102
C147  C     C_R   0.013508 0.222873 0.974619 0.045077
C148  C     C_R   0.986302 0.222875 0.025424 0.045110
C149  C     C_R   0.522221 0.804164 0.947784 -0.206185
C150  C     C_R   0.477629 0.804168 0.052130 -0.206172
C151  C     C_R   0.022241 0.304163 0.947782 -0.206145
C152  C     C_R   0.977646 0.304167 0.052129 -0.206125
C153  C     C_R   0.546449 0.803836 0.898009 -0.124078
C154  C     C_R   0.453412 0.803843 0.101905 -0.123968
C155  C     C_R   0.046469 0.303835 0.898007 -0.124009
C156  C     C_R   0.953429 0.303841 0.101904 -0.123919
C157  C     C_R   0.561209 0.777114 0.872982 -0.026749
C158  C     C_R   0.438649 0.777121 0.126975 -0.026776
C159  C     C_R   0.061222 0.277113 0.872981 -0.026773
C160  C     C_R   0.938659 0.277121 0.126974 -0.026793
C161  C     C_R   0.550687 0.750256 0.898526 -0.050108
C162  C     C_R   0.449149 0.750261 0.101473 -0.050106
C163  C     C_R   0.050695 0.250254 0.898526 -0.050101
C164  C     C_R   0.949154 0.250261 0.101473 -0.050108
C165  C     C_R   0.565694 0.723393 0.873054 -0.021235
C166  C     C_R   0.434136 0.723399 0.126988 -0.021192
C167  C     C_R   0.065695 0.223390 0.873054 -0.021226
C168  C     C_R   0.934135 0.223399 0.126988 -0.021181
C169  C     C_R   0.555382 0.696676 0.898149 -0.129062
C170  C     C_R   0.444424 0.696680 0.101936 -0.129189
C171  C     C_R   0.055377 0.196673 0.898149 -0.129083
C172  C     C_R   0.944418 0.196680 0.101937 -0.129203
C173  C     C_R   0.529801 0.696354 0.947915 -0.208322
C174  C     C_R   0.469994 0.696356 0.052170 -0.208330
C175  C     C_R   0.029796 0.196352 0.947916 -0.208326
C176  C     C_R   0.969989 0.196356 0.052170 -0.208348
C177  C     C_R   0.586102 0.776592 0.822706 0.512466
C178  C     C_R   0.413775 0.776600 0.177252 0.512495
C179  C     C_R   0.086115 0.276589 0.822704 0.512542
C180  C     C_R   0.913785 0.276600 0.177251 0.512471
N5    N     N_R   0.600620 0.750245 0.798706 -0.355576
N6    N     N_R   0.399256 0.750253 0.201294 -0.355556
N7    N     N_R   0.100627 0.250242 0.798705 -0.355571
N8    N     N_R   0.899260 0.250254 0.201293 -0.355561
C181  C     C_R   0.591099 0.723905 0.822783 0.506788
C182  C     C_R   0.408751 0.723912 0.177259 0.506812
C183  C     C_R   0.091100 0.223902 0.822783 0.506820
C184  C     C_R   0.908750 0.223913 0.177259 0.506797
H61   H     H_    0.511449 0.825630 0.964206 0.148802
H62   H     H_    0.488407 0.825635 0.035674 0.148812
H63   H     H_    0.011473 0.325630 0.964204 0.148817
H64   H     H_    0.988430 0.325633 0.035673 0.148855
H65   H     H_    0.553614 0.824758 0.879191 0.196275
H66   H     H_    0.446261 0.824766 0.120690 0.196341
H67   H     H_    0.053639 0.324757 0.879189 0.196294
H68   H     H_    0.946282 0.324764 0.120688 0.196383
O41   O     O_2   0.595506 0.802175 0.797962 -0.540029
O42   O     O_2   0.404394 0.802185 0.201954 -0.539947
O43   O     O_2   0.095525 0.302173 0.797960 -0.539917
O44   O     O_2   0.904409 0.302185 0.201952 -0.539957
O45   O     O_2   0.606416 0.698316 0.798120 -0.557594
O46   O     O_2   0.393429 0.698323 0.201964 -0.557749
O47   O     O_2   0.106411 0.198311 0.798120 -0.557603
O48   O     O_2   0.893422 0.198324 0.201964 -0.557758
H69   H     H_    0.567023 0.675752 0.879390 0.193201
H70   H     H_    0.432775 0.675756 0.120728 0.193110
H71   H     H_    0.067013 0.175748 0.879391 0.193188
H72   H     H_    0.932765 0.175757 0.120729 0.193103
H73   H     H_    0.524118 0.674891 0.964399 0.147195
H74   H     H_    0.475660 0.674892 0.035720 0.147172
H75   H     H_    0.024108 0.174888 0.964400 0.147186
H76   H     H_    0.975651 0.174892 0.035721 0.147159
C185  C     C_R   0.616290 0.735708 0.722104 -0.086814
C186  C     C_R   0.383643 0.735724 0.277882 -0.086947
C187  C     C_R   0.116291 0.235711 0.722105 -0.086756
C188  C     C_R   0.883642 0.235721 0.277882 -0.087024
H77   H     H_    0.589050 0.724617 0.741285 0.152974
H78   H     H_    0.410880 0.724638 0.258689 0.152934
H79   H     H_    0.089048 0.224624 0.741287 0.152968
H80   H     H_    0.910877 0.224631 0.258691 0.152927
C189  C     C_R   0.641328 0.735510 0.672172 -0.200607
C190  C     C_R   0.358634 0.735526 0.327815 -0.200781
C191  C     C_R   0.141327 0.235513 0.672173 -0.200470
C192  C     C_R   0.858633 0.235522 0.327815 -0.200955
H81   H     H_    0.633009 0.724156 0.653402 0.169727
H82   H     H_    0.366973 0.724177 0.346573 0.169707
H83   H     H_    0.133004 0.224164 0.653404 0.169741
H84   H     H_    0.866969 0.224170 0.346575 0.169683
C193  C     C_R   0.676544 0.750110 0.646885 -0.045328
C194  C     C_R   0.323422 0.750120 0.353115 -0.045535
C195  C     C_R   0.176546 0.250108 0.646885 -0.045471
C196  C     C_R   0.823424 0.250121 0.353115 -0.045479
C197  C     C_R   0.686408 0.764785 0.672261 -0.197996
C198  C     C_R   0.313532 0.764789 0.327753 -0.197419
C199  C     C_R   0.186416 0.264777 0.672259 -0.197564
C200  C     C_R   0.813538 0.264794 0.327751 -0.197627
H85   H     H_    0.713470 0.776095 0.653561 0.169635
H86   H     H_    0.286472 0.776092 0.346464 0.170197
H87   H     H_    0.213481 0.276082 0.653558 0.170047
H88   H     H_    0.786479 0.276101 0.346462 0.170016
C201  C     C_R   0.661486 0.764706 0.722198 -0.090737
C202  C     C_R   0.338423 0.764709 0.277816 -0.090604
C203  C     C_R   0.161496 0.264697 0.722197 -0.090618
C204  C     C_R   0.838430 0.264714 0.277814 -0.090639
H89   H     H_    0.669505 0.775833 0.741453 0.152244
H90   H     H_    0.330384 0.775830 0.258572 0.152498
H91   H     H_    0.169518 0.275819 0.741451 0.152425
H92   H     H_    0.830394 0.275840 0.258570 0.152444
C205  C     C_R   0.626311 0.750230 0.747302 0.299447
C206  C     C_R   0.373595 0.750239 0.252698 0.299312
C207  C     C_R   0.126317 0.250226 0.747301 0.299322
C208  C     C_R   0.873598 0.250240 0.252698 0.299362
C209  C     C_3   0.625613 0.841759 0.481567 -0.523417
C210  C     C_3   0.374604 0.841690 0.518113 -0.523309
C211  C     C_3   0.125967 0.341851 0.481041 -0.523420
C212  C     C_3   0.875034 0.341582 0.517464 -0.523310
C213  C     C_3   0.671453 0.880589 0.467210 -0.394789
C214  C     C_3   0.328480 0.880462 0.533132 -0.394136
C215  C     C_3   0.171388 0.380747 0.467657 -0.394699
C216  C     C_3   0.828411 0.380263 0.533670 -0.394158
C217  C     C_3   0.647254 0.905934 0.468990 -0.202304
C218  C     C_3   0.352660 0.905815 0.531377 -0.202931
C219  C     C_3   0.147167 0.406084 0.469464 -0.202456
C220  C     C_3   0.852565 0.405624 0.531949 -0.202763
H93   H     H_    0.615747 0.870147 0.441667 0.136448
H94   H     H_    0.384597 0.869923 0.558011 0.136456
H95   H     H_    0.116300 0.370431 0.441125 0.136416
H96   H     H_    0.885278 0.369580 0.557332 0.136528
H97   H     H_    0.647294 0.832776 0.444748 0.185551
H98   H     H_    0.353066 0.832563 0.554882 0.185743
H99   H     H_    0.147858 0.333045 0.444152 0.185550
H100  H     H_    0.853758 0.332240 0.554138 0.185758
H101  H     H_    0.688819 0.889424 0.476818 0.226399
H102  H     H_    0.310953 0.889333 0.523787 0.226697
H103  H     H_    0.188514 0.389535 0.477652 0.226504
H104  H     H_    0.810593 0.389188 0.524801 0.226595
H105  H     H_    0.692406 0.871765 0.430059 0.179577
H106  H     H_    0.307675 0.871494 0.570225 0.180053
H107  H     H_    0.192557 0.372102 0.430427 0.179619
H108  H     H_    0.807873 0.371077 0.570657 0.180037
H109  H     H_    0.649842 0.925851 0.485071 0.176535
H110  H     H_    0.349890 0.925793 0.515558 0.176882
H111  H     H_    0.149487 0.425922 0.485928 0.176766
H112  H     H_    0.849467 0.425695 0.516605 0.176557
C221  C     C_1   0.562654 0.937475 0.500160 -0.114445
C222  C     C_1   0.437322 0.937476 0.499883 -0.114308
C223  C     C_1   0.062654 0.437475 0.500161 -0.114306
C224  C     C_1   0.937323 0.437475 0.499884 -0.114484
C225  C     C_3   0.645480 0.854702 0.500887 0.123932
C226  C     C_3   0.354496 0.854705 0.499154 0.123482
C227  C     C_3   0.145475 0.354699 0.500891 0.123885
C228  C     C_3   0.854491 0.354708 0.499160 0.123497
C229  C     C_3   0.602195 0.866333 0.480102 0.163129
C230  C     C_3   0.398020 0.866258 0.519591 0.163149
C231  C     C_3   0.102554 0.366432 0.479580 0.163129
C232  C     C_3   0.898456 0.366141 0.518948 0.163206
C233  C     C_3   0.604435 0.896195 0.500801 0.061106
C234  C     C_3   0.395532 0.896199 0.499257 0.060883
C235  C     C_3   0.104428 0.396193 0.500812 0.061015
C236  C     C_3   0.895524 0.396200 0.499270 0.061006
C237  C     C_3   0.589935 0.891167 0.553178 -0.280014
C238  C     C_3   0.409837 0.891373 0.446935 -0.279954
C239  C     C_3   0.089638 0.390912 0.553268 -0.280027
C240  C     C_3   0.909467 0.391682 0.447059 -0.279994
C241  C     C_3   0.613810 0.865901 0.553203 0.149218
C242  C     C_3   0.385973 0.866108 0.446890 0.149065
C243  C     C_3   0.113521 0.365647 0.553275 0.149175
C244  C     C_3   0.885615 0.366417 0.446992 0.149061
C245  C     C_1   0.581431 0.918908 0.500405 -0.023094
C246  C     C_1   0.418537 0.918911 0.499652 -0.023103
C247  C     C_1   0.081429 0.418908 0.500409 -0.023041
C248  C     C_1   0.918535 0.418910 0.499658 -0.023186
C249  C     C_1   0.668398 0.831664 0.500385 -0.001115
C250  C     C_1   0.331587 0.831665 0.499642 -0.000843
C251  C     C_1   0.168398 0.331663 0.500385 -0.001062
C252  C     C_1   0.831587 0.331665 0.499642 -0.000886
C253  C     C_1   0.687191 0.812853 0.500121 -0.133415
C254  C     C_1   0.312802 0.812853 0.499893 -0.132878
C255  C     C_1   0.187191 0.312853 0.500120 -0.133300
C256  C     C_1   0.812803 0.312853 0.499891 -0.132927
H113  H     H_    0.593886 0.846939 0.573404 0.133114
H114  H     H_    0.405956 0.847225 0.426443 0.133139
H115  H     H_    0.093683 0.346589 0.573113 0.133104
H116  H     H_    0.905695 0.347655 0.426107 0.133164
H117  H     H_    0.559768 0.883938 0.576090 0.189728
H118  H     H_    0.440040 0.884234 0.423804 0.189730
H119  H     H_    0.059525 0.383574 0.575852 0.189689
H120  H     H_    0.939731 0.384680 0.423534 0.189800
H121  H     H_    0.607273 0.822678 0.504161 0.227249
H122  H     H_    0.392985 0.822696 0.495295 0.227234
H123  H     H_    0.107683 0.322662 0.503305 0.227256
H124  H     H_    0.893477 0.322723 0.494249 0.227213
O49   O     O_R   0.449240 0.969370 0.540240 -0.606424
O50   O     O_R   0.550760 0.969370 0.459760 -0.606372
O51   O     O_R   0.949240 0.469370 0.540240 -0.606816
O52   O     O_R   0.050760 0.469370 0.459760 -0.606081
O53   O     O_R   0.489460 0.969350 0.459800 -0.608721
O54   O     O_R   0.510540 0.969350 0.540200 -0.608852
O55   O     O_R   0.989460 0.469350 0.459800 -0.608343
O56   O     O_R   0.010540 0.469350 0.540200 -0.609116
C257  C     C_R   0.459587 0.959550 0.499992 0.907774
C258  C     C_R   0.540405 0.959549 0.500022 0.907652
C259  C     C_R   0.959588 0.459549 0.499992 0.907513
C260  C     C_R   0.040406 0.459550 0.500022 0.907763
O57   O     O_R   0.949240 0.530790 0.540220 -0.611505
O58   O     O_R   0.050760 0.530790 0.459780 -0.611604
O59   O     O_R   0.449240 0.030790 0.540220 -0.611567
O60   O     O_R   0.550760 0.030790 0.459780 -0.611576
O61   O     O_R   0.989460 0.530770 0.459780 -0.613750
O62   O     O_R   0.010540 0.530770 0.540220 -0.614243
O63   O     O_R   0.489460 0.030770 0.459780 -0.614154
O64   O     O_R   0.510540 0.030770 0.540220 -0.614082
C261  C     C_R   0.959573 0.540575 0.499951 0.893175
C262  C     C_R   0.040433 0.540575 0.500035 0.893491
C263  C     C_R   0.459574 0.040575 0.499952 0.893518
C264  C     C_R   0.540433 0.040575 0.500035 0.893387
Zn9   Zn    Zn3+2 0.973210 0.500080 0.553700 1.015191
Zn10  Zn    Zn3+2 0.026790 0.500080 0.446300 1.016389
Zn11  Zn    Zn3+2 0.473210 0.000080 0.553700 1.015573
Zn12  Zn    Zn3+2 0.526790 0.000080 0.446300 1.015606
C265  C     C_1   0.886143 0.686448 0.514437 0.275189
N9    N     N_1   0.899575 0.709900 0.503906 -0.135521
C266  C     C_1   0.126190 0.684041 0.465611 0.274093
N10   N     N_1   0.116254 0.708115 0.467869 -0.136061
C267  C     C_1   0.376255 0.184626 0.530688 0.274560
N11   N     N_1   0.386923 0.208647 0.526846 -0.135389
C268  C     C_1   0.620483 0.185369 0.474425 0.274913
N12   N     N_1   0.608853 0.209261 0.480449 -0.135044
N13   N     N_R   0.912665 0.661742 0.417018 0.223962
O65   O     O_R   0.941132 0.670820 0.414745 -0.377518
O66   O     O_R   0.907355 0.673645 0.388547 -0.368266
N14   N     N_R   0.085011 0.669300 0.572474 0.224163
O67   O     O_R   0.061413 0.678159 0.565453 -0.377891
O68   O     O_R   0.086831 0.684011 0.602219 -0.370573
N15   N     N_R   0.414784 0.167987 0.425212 0.224150
O69   O     O_R   0.439364 0.176959 0.430488 -0.377487
O70   O     O_R   0.412349 0.182169 0.395596 -0.369903
N16   N     N_R   0.585700 0.166000 0.577667 0.224044
O71   O     O_R   0.559807 0.175071 0.574814 -0.377365
O72   O     O_R   0.589015 0.179422 0.607022 -0.369884
C269  C     C_1   0.952820 0.668113 0.122201 0.287964
N17   N     N_1   0.947771 0.645071 0.139592 -0.147526
C270  C     C_1   0.069869 0.835142 0.876487 0.284351
N18   N     N_1   0.081375 0.858196 0.858671 -0.154793
C271  C     C_1   0.452191 0.168037 0.122213 0.287099
N19   N     N_1   0.446986 0.144971 0.139607 -0.149662
C272  C     C_1   0.570363 0.335085 0.876477 0.284358
N20   N     N_1   0.582026 0.358119 0.858657 -0.154888
C273  C     C_1   0.662823 0.914687 0.419922 0.172682
N21   N     N_1   0.674984 0.921541 0.381542 -0.166913
C274  C     C_1   0.337247 0.914378 0.580446 0.173952
N22   N     N_1   0.325209 0.921084 0.618826 -0.165534
C275  C     C_1   0.162971 0.415074 0.420397 0.173187
N23   N     N_1   0.175315 0.422115 0.382018 -0.166493
C276  C     C_1   0.837445 0.413896 0.581007 0.173219
N24   N     N_1   0.825636 0.420374 0.619379 -0.166112
N25   N     N_R   0.629054 0.873988 0.578079 0.222109
O73   O     O_R   0.617687 0.859595 0.616523 -0.356442
O74   O     O_R   0.654024 0.895089 0.562237 -0.381835
N26   N     N_R   0.370500 0.874290 0.422316 0.222127
O75   O     O_R   0.381773 0.860046 0.383813 -0.356264
O76   O     O_R   0.345417 0.895329 0.438485 -0.381321
N27   N     N_R   0.128422 0.373614 0.578597 0.222085
O77   O     O_R   0.116916 0.359036 0.616955 -0.356527
O78   O     O_R   0.153227 0.394790 0.563235 -0.381664
N28   N     N_R   0.869724 0.374741 0.422971 0.222176
O79   O     O_R   0.880820 0.360724 0.384373 -0.356045
O80   O     O_R   0.844446 0.395682 0.439722 -0.381366
N29   N     N_R   0.562828 0.856707 0.504297 0.225389
O81   O     O_R   0.542160 0.845067 0.547016 -0.381657
O82   O     O_R   0.549126 0.857882 0.481439 -0.315474
N30   N     N_R   0.437464 0.856727 0.495086 0.225390
O83   O     O_R   0.458045 0.845253 0.452271 -0.381732
O84   O     O_R   0.451338 0.857813 0.517745 -0.315357
N31   N     N_R   0.063304 0.356691 0.503309 0.225401
O85   O     O_R   0.042501 0.344846 0.545888 -0.381675
O86   O     O_R   0.049861 0.357977 0.480152 -0.315555
N32   N     N_R   0.938037 0.356755 0.493879 0.225335
O87   O     O_R   0.958445 0.345534 0.450903 -0.381826
O88   O     O_R   0.952228 0.357708 0.516165 -0.315186
C277  C     C_1   0.589025 0.919082 0.575726 0.286625
N33   N     N_1   0.588223 0.940918 0.593331 -0.151037
C278  C     C_1   0.410511 0.919375 0.424717 0.286707
N34   N     N_1   0.411129 0.941278 0.407369 -0.150656
C279  C     C_1   0.088378 0.418718 0.576295 0.286693
N35   N     N_1   0.087304 0.440468 0.594275 -0.150992
C280  C     C_1   0.909717 0.419812 0.425435 0.286679
N36   N     N_1   0.910003 0.441817 0.408549 -0.150388
C281  C     C_1   0.774757 0.729876 0.347064 0.214707
N37   N     N_1   0.744241 0.721897 0.364321 -0.172818
C282  C     C_1   0.226091 0.730190 0.652200 0.214274
N38   N     N_1   0.256596 0.722027 0.634636 -0.173460
C283  C     C_1   0.274638 0.230092 0.347114 0.214079
N39   N     N_1   0.244086 0.222199 0.364393 -0.173014
C284  C     C_1   0.725978 0.229984 0.652248 0.214633
N40   N     N_1   0.756447 0.221737 0.634705 -0.173480
C285  C     C_1   0.835406 0.585150 0.577811 0.195104
N41   N     N_1   0.821111 0.578576 0.617027 -0.182295
C286  C     C_1   0.165573 0.578115 0.434320 0.193704
N42   N     N_1   0.182975 0.567768 0.396415 -0.182912
C287  C     C_1   0.334409 0.079315 0.568199 0.194211
N43   N     N_1   0.317512 0.069649 0.606496 -0.182444
C288  C     C_1   0.665514 0.081155 0.428389 0.194137
N44   N     N_1   0.681653 0.072502 0.389654 -0.182791

loop_
_geom_bond_atom_site_label_1
_geom_bond_atom_site_label_2
_geom_bond_distance
_ccdc_geom_bond_type
C59   N3    1.362804 A    
C32   H4    1.077583 S    
C137  C141  1.420191 A    
C47   C51   1.415355 A    
C102  C262  1.416724 S    
C287  N43   1.157231 T    
C158  C162  1.407752 A    
C43   C47   1.417432 A    
C270  N18   1.157532 T    
C99   C115  1.553508 S    
O56   C260  1.283542 A    
C241  N25   1.473797 S    
C142  C162  1.419370 A    
C215  H103  1.109554 S    
C11   C255  1.416424 S    
C213  H101  1.109550 S    
C224  C248  1.195157 T    
C164  C168  1.407737 A    
C95   H31   1.113703 S    
C185  C189  1.392145 A    
N6    C182  1.368105 A    
C219  C275  1.479115 S    
C48   C64   1.415908 A    
Zn5   O21   1.994943 S    
C20   C32   1.412530 A    
C34   H6    1.083582 S    
C129  C133  1.195370 T    
C220  C236  1.568641 S    
Zn6   O22   1.994951 S    
C94   C266  1.476203 S    
C90   C110  1.556845 S    
C74   C78   1.406437 A    
C24   C44   1.420979 A    
C165  C169  1.395914 A    
O49   Zn11  1.993965 S    
O4    Zn4   1.994959 S    
C78   H18   1.083215 S    
C210  H98   1.113823 S    
C149  H61   1.076865 S    
C196  C200  1.404213 A    
C30   C34   1.384311 A    
C185  H77   1.082908 S    
C167  C171  1.395913 A    
O4    C4    1.273184 A    
C79   C83   1.390315 A    
C244  H116  1.115818 S    
C73   C77   1.406367 A    
C176  H76   1.076871 S    
H96   C232  1.114322 S    
C27   C55   1.410275 A    
C7    C75   1.472111 S    
C66   H14   1.084472 S    
C237  H117  1.109198 S    
O58   C262  1.283700 A    
C132  C136  1.195379 T    
C159  C179  1.401906 A    
C110  C286  1.478125 S    
C100  H36   1.113110 S    
C143  C147  1.420178 A    
C15   C195  1.466347 S    
C204  C208  1.400678 A    
C51   C271  1.447121 S    
C121  N13   1.470447 S    
C214  C226  1.553648 S    
C46   C50   1.415514 A    
Zn1   O25   2.020296 S    
N25   O74   1.301280 A    
C193  C197  1.404209 A    
C218  C274  1.479115 S    
C18   C30   1.412533 A    
N7    C183  1.368106 A    
Zn3   O19   1.993511 S    
C58   N2    1.362593 A    
C83   H23   1.082905 S    
C63   O39   1.348692 S    
Zn4   O28   2.020075 S    
C117  C121  1.556551 S    
C212  C228  1.550657 S    
C197  C201  1.392237 A    
O8    Zn8   1.993519 S    
N6    C206  1.433133 S    
C151  C155  1.388049 A    
C152  H64   1.076863 S    
C212  H124  1.112650 S    
C180  O44   1.349896 S    
C211  C227  1.550654 S    
C38   C42   1.410864 A    
O11   Zn3   2.020993 S    
C78   C82   1.390732 A    
C189  H81   1.083008 S    
N14   O68   1.301124 A    
C116  C120  1.550010 S    
N26   O75   1.301128 A    
O9    C5    1.278920 A    
N15   O70   1.301123 A    
C169  H69   1.083492 S    
O10   Zn2   2.021220 S    
C214  C218  1.554112 S    
C171  H71   1.083493 S    
C50   C270  1.447157 S    
C123  N15   1.470434 S    
C172  H72   1.083490 S    
O62   Zn9   1.991017 S    
C109  C285  1.478125 S    
O6    Zn6   1.993519 S    
C75   C79   1.406325 A    
C226  C250  1.458033 S    
O19   C11   1.272902 A    
O14   Zn6   2.020072 S    
C168  C184  1.401809 A    
C239  C243  1.568385 S    
C35   H7    1.083591 S    
C221  C258  1.416071 S    
N7    C207  1.433133 S    
C154  H66   1.083491 S    
C237  C241  1.568383 S    
C266  N10   1.157398 T    
C121  H41   1.115482 S    
O50   C258  1.283716 A    
O53   Zn12  1.992055 S    
C94   C98   1.551717 S    
C39   C59   1.397387 A    
C115  C127  1.459714 S    
C150  H62   1.076862 S    
C211  H123  1.112652 S    
C44   C48   1.417329 A    
C89   C109  1.556792 S    
N4    C88   1.429389 S    
C6    C74   1.472335 S    
C17   C21   1.421101 A    
N28   O79   1.301131 A    
C217  C273  1.479115 S    
C90   H50   1.113689 S    
C122  N14   1.470428 S    
C19   C23   1.421097 A    
C20   C24   1.420563 A    
C219  H111  1.111937 S    
C100  C116  1.553502 S    
C265  N9    1.157401 T    
C166  C170  1.395918 A    
O24   C12   1.273125 A    
O51   Zn9   1.993965 S    
C187  H79   1.082907 S    
O56   Zn9   1.992277 S    
C93   C97   1.551711 S    
C238  C278  1.481985 S    
C166  C182  1.401805 A    
C95   C99   1.551701 S    
C184  O48   1.349911 S    
O53   C257  1.283539 A    
C239  C279  1.481983 S    
C119  H47   1.113697 S    
C57   O33   1.350288 S    
O3    C3    1.273180 A    
C59   O35   1.350286 S    
C21   C25   1.414615 A    
C65   C69   1.395400 A    
C230  C234  1.570571 S    
C98   C114  1.553515 S    
C82   H22   1.082890 S    
C33   C37   1.395688 A    
C144  C164  1.419373 A    
N3    C63   1.366089 A    
C239  H119  1.109196 S    
O50   Zn12  1.993730 S    
C240  H120  1.109200 S    
C201  H89   1.082907 S    
C139  C151  1.414899 A    
C112  C288  1.478126 S    
O23   C11   1.273128 A    
C195  C199  1.404212 A    
C186  C190  1.392148 A    
C89   H25   1.115081 S    
C216  H108  1.115059 S    
C79   H19   1.083221 S    
C220  C276  1.479113 S    
C229  N29   1.470682 S    
C17   C26   1.420412 A    
C120  H60   1.111868 S    
C191  C195  1.404179 A    
C55   H11   1.079015 S    
C175  H75   1.076873 S    
C97   H33   1.113112 S    
C137  C138  1.419037 A    
C215  H107  1.115059 S    
C107  C123  1.565861 S    
C24   C28   1.415222 A    
O59   Zn11  1.994152 S    
O51   C259  1.283723 A    
C234  C238  1.567900 S    
C105  C129  1.461042 S    
C81   H21   1.082904 S    
C131  C135  1.195370 T    
C98   H34   1.113109 S    
C110  H54   1.113267 S    
C52   C56   1.392950 A    
C167  C183  1.401810 A    
C145  C146  1.418943 A    
C119  H59   1.111872 S    
C96   H32   1.113701 S    
C138  C150  1.414902 A    
C229  C233  1.570567 S    
C30   H2    1.077576 S    
C71   C75   1.417236 A    
C232  C236  1.570570 S    
C20   C27   1.418728 A    
C37   C57   1.397384 A    
C231  C235  1.570567 S    
O20   C12   1.272902 A    
O8    C4    1.272882 A    
C10   C254  1.416426 S    
C201  C205  1.400684 A    
C66   C86   1.397095 A    
C91   H51   1.113691 S    
O29   C13   1.279070 A    
C192  H84   1.083001 S    
C213  H105  1.115060 S    
C273  N21   1.157242 T    
C94   H30   1.113703 S    
C115  C119  1.549999 S    
C214  H102  1.109547 S    
O60   C264  1.283707 A    
C203  H91   1.082904 S    
C46   C62   1.415918 A    
N14   O67   1.301764 A    
C120  H48   1.113697 S    
C227  C251  1.458029 S    
C58   O34   1.350403 S    
C53   H9    1.079016 S    
C177  O41   1.349899 S    
C22   C26   1.415220 A    
C179  O43   1.349895 S    
C240  C244  1.568366 S    
C112  C116  1.563084 S    
C180  N8    1.368107 A    
C242  N26   1.473800 S    
O54   Zn11  1.992277 S    
C83   C87   1.395914 A    
C202  H90   1.082905 S    
C92   C112  1.556821 S    
C209  C229  1.554662 S    
C23   C27   1.414621 A    
O5    C1    1.272872 A    
C281  N37   1.157398 T    
C49   C269  1.447119 S    
N29   O82   1.301160 A    
C114  C118  1.549993 S    
C18   C25   1.418728 A    
C282  N38   1.157404 T    
O61   C261  1.283827 A    
C68   H16   1.084476 S    
C62   O38   1.348577 S    
N13   O65   1.301763 A    
C47   C63   1.415112 A    
O58   Zn10  1.994391 S    
C238  H118  1.109197 S    
O25   C13   1.279033 A    
C148  C176  1.414877 A    
O27   C15   1.279031 A    
N30   O84   1.301156 A    
C211  H99   1.113821 S    
C118  H58   1.111872 S    
C241  H113  1.115816 S    
N27   O77   1.301130 A    
N2    C86   1.429440 S    
C200  C204  1.392234 A    
C93   C105  1.564944 S    
O16   Zn8   2.020072 S    
C209  H97   1.113820 S    
C155  H67   1.083489 S    
C219  C235  1.568646 S    
O14   C6    1.280748 A    
C82   C86   1.395967 A    
C217  H109  1.111932 S    
C36   C40   1.395597 A    
C211  C231  1.554660 S    
C274  N22   1.157238 T    
C202  C206  1.400678 A    
C14   C194  1.466345 S    
O10   C6    1.278747 A    
O3    Zn3   1.994943 S    
C170  H70   1.083490 S    
C192  C196  1.404177 A    
C21   C41   1.420951 A    
C143  C163  1.419372 A    
C225  C241  1.564127 S    
C142  C146  1.420181 A    
C144  C148  1.420179 A    
C228  C252  1.458033 S    
H93   C229  1.114325 S    
C96   C108  1.564937 S    
N32   O88   1.301161 A    
O52   C260  1.283719 A    
C49   C53   1.392319 A    
C67   C71   1.395384 A    
O6    C2    1.272892 A    
C238  C242  1.568369 S    
C99   H35   1.113110 S    
C141  C145  1.420181 A    
C3    C135  1.416475 S    
N15   O69   1.301763 A    
C109  C113  1.563077 S    
C1    C133  1.416462 S    
C277  N33   1.157391 T    
C41   C45   1.417440 A    
C96   C100  1.551716 S    
Zn1   O17   1.993511 S    
C138  C142  1.420194 A    
C91   H27   1.115077 S    
O63   C263  1.283833 A    
C103  C263  1.416723 S    
O13   Zn5   2.020299 S    
C101  C261  1.416729 S    
C268  N12   1.157396 T    
C69   C281  1.444445 S    
C40   C44   1.410874 A    
O15   Zn7   2.020299 S    
C182  O46   1.349913 S    
C187  C191  1.392144 A    
C139  C140  1.419036 A    
C92   H52   1.113688 S    
Zn2   O26   2.020075 S    
C28   C56   1.410722 A    
C108  C132  1.461062 S    
C64   O40   1.348576 S    
C250  C254  1.195306 T    
N25   O73   1.301129 A    
C4    C136  1.416480 S    
O17   C9    1.272902 A    
C243  N27   1.473795 S    
C204  H92   1.082904 S    
C111  C287  1.478125 S    
C33   H5    1.083591 S    
C56   H12   1.078479 S    
O52   Zn10  1.993730 S    
C153  C157  1.395942 A    
O55   Zn10  1.992055 S    
C228  C244  1.564119 S    
C155  C159  1.395942 A    
C188  C208  1.400681 A    
C235  C247  1.464736 S    
N26   O76   1.301277 A    
C186  H78   1.082909 S    
C29   C33   1.384919 A    
C90   H26   1.115078 S    
C91   C111  1.556828 S    
C32   C36   1.384311 A    
C22   C42   1.420986 A    
C96   C268  1.476205 S    
Zn7   O31   2.020991 S    
C269  N17   1.157534 T    
C72   C284  1.444520 S    
Zn8   O32   2.021222 S    
O59   C263  1.283691 A    
N16   O72   1.301124 A    
C103  C127  1.195485 T    
C112  H56   1.113265 S    
Zn6   O30   2.021222 S    
C50   C54   1.392952 A    
O55   C259  1.283542 A    
C197  H85   1.083004 S    
C169  C173  1.387971 A    
C171  C175  1.387971 A    
C80   H20   1.083212 S    
C172  C176  1.387970 A    
O1    C1    1.273193 A    
C70   C74   1.417480 A    
C25   C53   1.410278 A    
C185  C205  1.400674 A    
N28   O80   1.301275 A    
C94   C106  1.564929 S    
C209  H121  1.112649 S    
C42   C46   1.417327 A    
C130  C134  1.195384 T    
C161  C165  1.407737 A    
C216  C220  1.554107 S    
C23   C43   1.420951 A    
C163  C167  1.407741 A    
C288  N44   1.157227 T    
C68   C88   1.397061 A    
N5    C205  1.433133 S    
C285  N41   1.157227 T    
C89   C105  1.554224 S    
C222  C246  1.195156 T    
O21   C9    1.273131 A    
O28   C16   1.279028 A    
C139  C143  1.420195 A    
C216  H104  1.109550 S    
C37   C41   1.410625 A    
O64   C264  1.283820 A    
C113  C125  1.459728 S    
O30   C14   1.279065 A    
C9    C253  1.416421 S    
C214  H106  1.115060 S    
C48   C52   1.415512 A    
C147  C175  1.414876 A    
C223  C247  1.195147 T    
C98   H38   1.114604 S    
C213  C217  1.554098 S    
O61   Zn10  1.991233 S    
C178  O42   1.349899 S    
C217  C233  1.568650 S    
C215  C219  1.554103 S    
C66   C70   1.394991 A    
C186  C206  1.400679 A    
N32   O87   1.301524 A    
C222  C257  1.416078 S    
N13   O66   1.301126 A    
C122  H42   1.115488 S    
C117  H57   1.111865 S    
N4    C64   1.366102 A    
C105  C121  1.565842 S    
O15   C7    1.280533 A    
O49   C257  1.283725 A    
N31   O86   1.301158 A    
C69   C73   1.417286 A    
C215  C227  1.553644 S    
C45   C49   1.415351 A    
C65   H13   1.084445 S    
C92   C108  1.554237 S    
C233  C245  1.464733 S    
N3    C87   1.429564 S    
C209  C225  1.550658 S    
C72   C76   1.417534 A    
N27   O78   1.301278 A    
C158  C178  1.401906 A    
C13   C193  1.466353 S    
C84   H24   1.082890 S    
C68   C72   1.394999 A    
O60   Zn12  1.994391 S    
C89   H49   1.113691 S    
C157  C161  1.407750 A    
C5    C73   1.472213 S    
C188  C192  1.392148 A    
C141  C161  1.419372 A    
O26   C14   1.279028 A    
C39   C43   1.410623 A    
O54   C258  1.283544 A    
C251  C255  1.195303 T    
C8    C76   1.472423 S    
C65   C85   1.397357 A    
O63   Zn12  1.991233 S    
C284  N40   1.157408 T    
C118  H46   1.113696 S    
N5    C181  1.368104 A    
C60   O36   1.350402 S    
C177  N5    1.368107 A    
C242  H114  1.115820 S    
C199  H87   1.083005 S    
Zn3   O27   2.020296 S    
N8    C184  1.368108 A    
Zn4   O20   1.993519 S    
C34   C38   1.395601 A    
Zn5   O29   2.020991 S    
C249  C253  1.195303 T    
C179  N7    1.368108 A    
C97   C113  1.553494 S    
C80   C84   1.390716 A    
C199  C203  1.392234 A    
C218  H110  1.111935 S    
C70   C282  1.444528 S    
C81   C85   1.395870 A    
C77   H17   1.083217 S    
C272  N20   1.157536 T    
O13   C5    1.280561 A    
O12   Zn4   2.021220 S    
C119  C123  1.556502 S    
C18   C22   1.420563 A    
C187  C207  1.400673 A    
C240  C280  1.481982 S    
C93   C265  1.476205 S    
C76   C80   1.406477 A    
C231  N31   1.470682 S    
C90   C106  1.554242 S    
C276  N24   1.157241 T    
C102  C126  1.195486 T    
C114  C126  1.459714 S    
C149  C153  1.388052 A    
C223  C260  1.416071 S    
C226  C242  1.564121 S    
C275  N23   1.157238 T    
C267  N11   1.157401 T    
C123  H43   1.115486 S    
H94   C230  1.114320 S    
C106  C130  1.461064 S    
C159  C163  1.407752 A    
C67   H15   1.084446 S    
C99   H39   1.114603 S    
C100  H40   1.114601 S    
C111  H55   1.113268 S    
C236  C248  1.464738 S    
N31   O85   1.301525 A    
C210  C230  1.554669 S    
C200  H88   1.083006 S    
C109  H53   1.113269 S    
C271  N19   1.157539 T    
C101  C125  1.195489 T    
C213  C225  1.553646 S    
C190  H82   1.083007 S    
C95   C267  1.476201 S    
C95   C107  1.564933 S    
C108  C124  1.565850 S    
C29   H1    1.077084 S    
Zn2   O18   1.993519 S    
C60   N4    1.362573 A    
C120  C124  1.556505 S    
C244  N28   1.473800 S    
C38   C58   1.396653 A    
C278  N34   1.157391 T    
C212  C232  1.554671 S    
C225  C249  1.458025 S    
C218  C234  1.568646 S    
C220  H112  1.111937 S    
C67   C87   1.397387 A    
N29   O81   1.301523 A    
C160  C164  1.407748 A    
N8    C208  1.433133 S    
C77   C81   1.390301 A    
O11   C7    1.278891 A    
C189  C193  1.404181 A    
O12   C8    1.278773 A    
C40   C60   1.396650 A    
O1    Zn1   1.994943 S    
O9    Zn1   2.020993 S    
C71   C283  1.444448 S    
C45   C61   1.415114 A    
C145  C173  1.414874 A    
C104  C128  1.195484 T    
C198  H86   1.083004 S    
O5    Zn5   1.993511 S    
C54   H10   1.078477 S    
N1    C61   1.366067 A    
H95   C231  1.114322 S    
O18   C10   1.272902 A    
O7    Zn7   1.993511 S    
C235  C239  1.567891 S    
C104  C264  1.416730 S    
C156  C160  1.395943 A    
C236  C240  1.567897 S    
C153  H65   1.083492 S    
O2    Zn2   1.994959 S    
C154  C158  1.395940 A    
C286  N42   1.157231 T    
C216  C228  1.553644 S    
C140  C152  1.414902 A    
C279  N35   1.157389 T    
C118  C122  1.556479 S    
C111  C115  1.563092 S    
C188  H80   1.082908 S    
C31   H3    1.077091 S    
C151  H63   1.076869 S    
C92   H28   1.115082 S    
C19   C28   1.420408 A    
C110  C114  1.563083 S    
C124  N16   1.470442 S    
O62   C262  1.283824 A    
O7    C3    1.272892 A    
C116  C128  1.459723 S    
C113  C117  1.550034 S    
C152  C156  1.388050 A    
C93   H29   1.113703 S    
C283  N39   1.157403 T    
C61   O37   1.348689 S    
C174  H74   1.076870 S    
O57   Zn9   1.994152 S    
C194  C198  1.404217 A    
C165  C181  1.401807 A    
C170  C174  1.387972 A    
O64   Zn11  1.991017 S    
C243  H115  1.115818 S    
C52   C272  1.447159 S    
C173  H73   1.076872 S    
C16   C196  1.466351 S    
C35   C39   1.395692 A    
C147  C148  1.418944 A    
O2    C2    1.273175 A    
C230  N30   1.470680 S    
C280  N36   1.157393 T    
O31   C15   1.279070 A    
C156  H68   1.083490 S    
O32   C16   1.279068 A    
C210  H122  1.112648 S    
C91   C107  1.554237 S    
C162  C166  1.407739 A    
C234  C246  1.464736 S    
C168  C172  1.395919 A    
C150  C154  1.388051 A    
C191  H83   1.083006 S    
O22   C10   1.273123 A    
C183  O47   1.349914 S    
C203  C207  1.400685 A    
C12   C256  1.416424 S    
C221  C245  1.195150 T    
C140  C144  1.420194 A    
C146  C174  1.414875 A    
C137  C149  1.414902 A    
N1    C85   1.429522 S    
C181  O45   1.349912 S    
C227  C243  1.564127 S    
C160  C180  1.401908 A    
C31   C35   1.384919 A    
C190  C194  1.404173 A    
C157  C177  1.401906 A    
C224  C259  1.416084 S    
C232  N32   1.470678 S    
C97   H37   1.114600 S    
C36   H8    1.083585 S    
Zn7   O23   1.994943 S    
N2    C62   1.366120 A    
Zn8   O24   1.994951 S    
C233  C237  1.567892 S    
O16   C8    1.280776 A    
C117  H45   1.113694 S    
C212  H100  1.113822 S    
C237  C277  1.481980 S    
O57   C261  1.283704 A    
C107  C131  1.461053 S    
N30   O83   1.301523 A    
C84   C88   1.395921 A    
C51   C55   1.392310 A    
N16   O71   1.301760 A    
C2    C134  1.416486 S    
C26   C54   1.410722 A    
C124  H44   1.115480 S    
C198  C202  1.392231 A    
C17   C29   1.413039 A    
C210  C226  1.550658 S    
C178  N6    1.368107 A    
C57   N1    1.362788 A    
C252  C256  1.195301 T    
C19   C31   1.413033 A    
C106  C122  1.565861 S    
