data_mof_unit_36566.cif
_audit_creation_date              2012-10-26T19:02:28-0400
_audit_creation_method            fapswitch 2.2
_symmetry_space_group_name_H-M    P1
_symmetry_Int_Tables_number       1
_space_group_crystal_system       triclinic
_cell_length_a                    17.113626
_cell_length_b                    8.685773
_cell_length_c                    7.440336
_cell_angle_alpha                 102.991355
_cell_angle_beta                  90.12743
_cell_angle_gamma                 92.840009
_cell_volume                      1076.23581184

loop_
_atom_site_label
_atom_site_type_symbol
_atom_type_description
_atom_site_fract_x
_atom_site_fract_y
_atom_site_fract_z
_atom_type_partial_charge
C1    C     C_R   0.497637 0.199724 0.453605 0.551725
C2    C     C_R   0.778777 0.626500 0.601767 0.101819
C3    C     C_R   0.139235 0.364262 0.409272 0.107537
C4    C     C_R   0.860764 0.635753 0.590704 0.107542
C5    C     C_R   0.102809 0.459207 0.561408 0.030437
C6    C     C_R   0.897190 0.540785 0.438587 0.030427
C7    C     C_R   0.147651 0.551359 0.707393 -0.118909
C8    C     C_R   0.852348 0.448602 0.292621 -0.118914
C9    C     C_R   0.228732 0.559729 0.697087 -0.161623
C10   C     C_R   0.771267 0.440232 0.302929 -0.161621
C11   C     C_2   0.018156 0.473356 0.565899 -0.077874
C12   C     C_R   0.502363 0.800276 0.546395 0.551729
C13   C     C_2   0.981843 0.526641 0.434099 -0.077876
C14   C     C_2   0.496463 0.031843 0.427464 -0.147701
C15   C     C_2   0.503537 0.968157 0.572535 -0.147700
C16   C     C_R   0.350763 0.495042 0.525252 0.570972
C17   C     C_R   0.649237 0.504956 0.474748 0.570976
C18   C     C_R   0.265735 0.476106 0.540226 0.033343
C19   C     C_R   0.734264 0.523886 0.459771 0.033347
C20   C     C_R   0.221222 0.373518 0.398209 0.101821
Cu1   Cu    Cu3+1 0.508700 0.517250 0.683000 0.981778
Cu2   Cu    Cu3+1 0.491300 0.482750 0.317000 0.981779
H1    H     H_    0.737581 0.363655 0.191514 0.140112
H2    H     H_    0.561066 0.621036 0.041688 0.244803
H3    H     H_    0.239882 0.303686 0.123510 0.254695
H4    H     H_    0.245444 0.158377 0.242214 0.253357
H5    H     H_    0.760117 0.696387 0.876461 0.254699
H6    H     H_    0.754553 0.841660 0.757706 0.253352
H7    H     H_    0.262417 0.636283 0.808520 0.140117
H8    H     H_    0.013625 0.547705 0.314842 0.159873
H9    H     H_    0.986373 0.452296 0.685157 0.159869
H10   H     H_    0.119631 0.622511 0.825826 0.159205
H11   H     H_    0.880368 0.377426 0.174205 0.159218
H12   H     H_    0.489779 0.960304 0.287643 0.136427
H13   H     H_    0.510221 0.039696 0.712356 0.136427
H14   H     H_    0.438934 0.378964 0.958312 0.244804
I1    I     I_    0.928076 0.798417 0.799797 -0.377935
I2    I     I_    0.071924 0.201625 0.200150 -0.377958
N1    N     N_2   0.478180 0.456750 0.041980 -0.256547
N2    N     N_2   0.521820 0.543250 0.958020 -0.256548
N3    N     N_3   0.259909 0.277324 0.245468 -0.600471
N4    N     N_3   0.740090 0.722719 0.754488 -0.600477
O1    O     O_R   0.505650 0.286040 0.618880 -0.510248
O2    O     O_R   0.494350 0.713960 0.381120 -0.510248
O3    O     O_R   0.490960 0.256910 0.309800 -0.492705
O4    O     O_R   0.509040 0.743090 0.690200 -0.492702
O5    O     O_R   0.394600 0.516230 0.672450 -0.518437
O6    O     O_R   0.605400 0.483770 0.327550 -0.518435
O7    O     O_R   0.379910 0.487100 0.363380 -0.463628
O8    O     O_R   0.620090 0.512900 0.636620 -0.463633

loop_
_geom_bond_atom_site_label_1
_geom_bond_atom_site_label_2
_ccdc_geom_bond_type
C17   O8    A    
C14   H12   S    
Cu2   O6    S    
C17   O6    A    
C1    C14   S    
C10   H1    S    
C13   H8    S    
C2    C4    A    
C12   C15   S    
C9    H7    S    
C10   C19   A    
C20   N3    S    
C11   H9    S    
C3    C20   A    
C12   O2    A    
Cu1   Cu2   S    
C16   O7    A    
C6    C13   S    
C11   C13   D    
H5    N4    S    
C1    O3    A    
Cu1   N2    S    
C2    N4    S    
Cu2   O7    S    
Cu2   N1    S    
C16   O5    A    
C8    C10   A    
Cu1   O8    S    
H2    N2    S    
C5    C11   S    
C18   C20   A    
C8    H11   S    
Cu1   O5    S    
C4    C6    A    
H3    N3    S    
C7    C9    A    
C9    C18   A    
Cu2   O3    S    
C4    I1    S    
H4    N3    S    
C16   C18   S    
Cu1   O4    S    
C15   H13   S    
N1    N2    D    
C5    C7    A    
C14   C15   D    
C6    C8    A    
C7    H10   S    
H6    N4    S    
C17   C19   S    
C2    C19   A    
Cu1   O1    S    
C1    O1    A    
H14   N1    S    
Cu2   O2    S    
C3    I2    S    
C3    C5    A    
C12   O4    A    
