data_mof_unit_52809.cif
_audit_creation_date              2012-12-10T20:27:56-0500
_audit_creation_method            fapswitch 2.2
_symmetry_space_group_name_H-M    P1
_symmetry_Int_Tables_number       1
_space_group_crystal_system       triclinic
_cell_length_a                    12.895417
_cell_length_b                    10.636977
_cell_length_c                    9.859165
_cell_angle_alpha                 89.604609
_cell_angle_beta                  96.896462
_cell_angle_gamma                 89.91022
_cell_volume                      1342.54388891

loop_
_atom_site_label
_atom_site_type_symbol
_atom_type_description
_atom_site_fract_x
_atom_site_fract_y
_atom_site_fract_z
_atom_type_partial_charge
C1    C     C_R   0.504698 0.260461 0.501403 0.905537
C2    C     C_R   0.593793 0.933794 0.438643 0.158670
C3    C     C_R   0.515753 0.871639 0.503553 -0.166503
C4    C     C_R   0.298188 0.499550 0.473573 0.881749
C5    C     C_R   0.456630 0.936072 0.588608 0.095760
C6    C     C_3   0.341900 0.929859 0.597960 -0.468597
C7    C     C_3   0.343106 0.072406 0.599434 -0.479683
C8    C     C_R   0.416381 0.453907 0.058521 0.213808
C9    C     C_R   0.578163 0.555736 0.083812 -0.135211
C10   C     C_R   0.578153 0.555764 0.939812 -0.131032
C11   C     C_R   0.416406 0.453889 0.915962 0.223758
C12   C     C_R   0.029010 0.499630 0.565446 0.189226
C13   C     C_3   0.375415 0.322989 0.904796 -0.523768
C14   C     C_3   0.375267 0.323044 0.058846 -0.507019
C15   C     C_R   0.503408 0.739733 0.500073 0.913026
C16   C     C_R   0.701817 0.499833 0.526440 0.861408
C17   C     C_R   0.813844 0.498864 0.541868 -0.050474
C18   C     C_R   0.186158 0.497966 0.458188 -0.053931
C19   C     C_R   0.020948 0.490818 0.316611 -0.225284
C20   C     C_R   0.128890 0.492584 0.328327 -0.209679
C21   C     C_R   0.136193 0.501186 0.576156 -0.288970
C22   C     C_3   0.681071 0.138932 0.381336 -0.877394
C23   C     C_R   0.970999 0.494571 0.434700 0.191270
C24   C     C_3   0.669748 0.858235 0.365129 -0.865993
C25   C     C_R   0.863797 0.493917 0.423969 -0.289285
C26   C     C_R   0.871137 0.503260 0.671754 -0.200370
C27   C     C_R   0.979081 0.503532 0.683533 -0.227435
C28   C     C_R   0.457743 0.063318 0.590135 0.084123
C29   C     C_R   0.519045 0.128936 0.508004 -0.157814
C30   C     C_R   0.596947 0.066635 0.443470 0.162696
H1    H     H_    0.819601 0.490024 0.323253 0.160192
H2    H     H_    0.832786 0.506957 0.763570 0.157832
H3    H     H_    0.976757 0.486827 0.216006 0.135621
H4    H     H_    0.023285 0.507278 0.784147 0.135091
H5    H     H_    0.167258 0.489644 0.236483 0.158320
H6    H     H_    0.296969 0.890064 0.504757 0.195758
H7    H     H_    0.299012 0.115991 0.507008 0.197067
H8    H     H_    0.180356 0.505257 0.676891 0.158686
H9    H     H_    0.680240 0.240965 0.401828 0.246064
H10   H     H_    0.759288 0.105573 0.426771 0.234251
H11   H     H_    0.672138 0.125355 0.268987 0.244160
H12   H     H_    0.324558 0.887402 0.696073 0.208767
H13   H     H_    0.627432 0.813817 0.273216 0.248825
H14   H     H_    0.733514 0.914454 0.329883 0.238443
H15   H     H_    0.707080 0.784076 0.434444 0.227133
H16   H     H_    0.326072 0.112172 0.698286 0.205934
H17   H     H_    0.642267 0.598702 0.147727 0.144617
H18   H     H_    0.642182 0.598765 0.895208 0.144302
H19   H     H_    0.295742 0.319163 0.847692 0.195157
H20   H     H_    0.432544 0.255695 0.869870 0.223711
H21   H     H_    0.295490 0.319405 0.090661 0.195448
H22   H     H_    0.432113 0.255571 0.113015 0.227423
N1    N     N_R   0.499290 0.499140 0.142710 -0.105013
N2    N     N_R   0.499290 0.499180 0.857070 -0.107024
O1    O     O_R   0.500010 0.316790 0.614690 -0.614882
O2    O     O_R   0.500000 0.316760 0.385350 -0.616271
O3    O     O_R   0.346360 0.499990 0.595720 -0.624491
O4    O     O_R   0.346350 0.499960 0.366370 -0.624075
O5    O     O_R   0.500000 0.683240 0.614650 -0.615392
O6    O     O_R   0.499990 0.683210 0.385310 -0.614553
O7    O     O_R   0.653650 0.500040 0.633630 -0.628028
O8    O     O_R   0.653640 0.500010 0.404280 -0.635904
Zn1   Zn    Zn3+2 0.500010 0.500020 0.653130 0.943780
Zn2   Zn    Zn3+2 0.499990 0.499980 0.346870 0.936462

loop_
_geom_bond_atom_site_label_1
_geom_bond_atom_site_label_2
_ccdc_geom_bond_type
C8    N1    A    
C25   H1    S    
C19   C23   A    
O2    Zn2   S    
C26   H2    S    
C29   C30   A    
C18   C21   A    
C22   C30   S    
C15   O6    A    
O5    Zn1   S    
C19   C20   A    
O6    Zn2   S    
C2    C30   A    
C4    C18   S    
C7    C28   S    
C1    C29   S    
C2    C3    A    
C7    H7    S    
C17   C25   A    
C13   C14   S    
C4    O3    A    
C10   H18   S    
C11   C13   S    
C12   C23   A    
C26   C27   A    
C6    C7    S    
C11   N2    A    
C16   O8    A    
C8    C11   A    
C5    C6    S    
C22   H9    S    
C16   O7    A    
O1    Zn1   S    
C28   C29   A    
C1    O2    A    
C6    H6    S    
C9    H17   S    
C18   C20   A    
C23   C25   A    
C27   H4    S    
C2    C24   S    
C17   C26   A    
C24   H14   S    
N1    Zn2   S    
C13   H19   S    
C1    O1    A    
C22   H11   S    
C9    N1    A    
N2    Zn1   S    
C24   H15   S    
C10   N2    A    
C13   H20   S    
C5    C28   A    
C7    H16   S    
C3    C15   S    
O8    Zn2   S    
C9    C10   A    
C4    O4    A    
O7    Zn1   S    
C24   H13   S    
C22   H10   S    
C8    C14   S    
C12   C27   A    
O4    Zn2   S    
C20   H5    S    
C15   O5    A    
C12   C21   A    
C14   H22   S    
C21   H8    S    
C14   H21   S    
O3    Zn1   S    
C19   H3    S    
C16   C17   S    
C3    C5    A    
C6    H12   S    
