data_mof_unit_57563.cif
_audit_creation_date              2012-12-11T14:30:23-0500
_audit_creation_method            fapswitch 2.2
_symmetry_space_group_name_H-M    P1
_symmetry_Int_Tables_number       1
_space_group_crystal_system       triclinic
_cell_length_a                    12.653484
_cell_length_b                    12.665623
_cell_length_c                    26.902293
_cell_angle_alpha                 90.000091
_cell_angle_beta                  89.999802
_cell_angle_gamma                 120.05859
_cell_volume                      3731.64138143

loop_
_atom_site_label
_atom_site_type_symbol
_atom_type_description
_atom_site_fract_x
_atom_site_fract_y
_atom_site_fract_z
_atom_type_partial_charge
C1    C     C_R   0.557251 0.457427 0.821997 0.560988
C2    C     C_R   0.458135 0.556304 0.178580 0.565694
C3    C     C_R   0.935115 0.281498 0.467445 -0.133048
C4    C     C_R   0.333792 0.043702 0.030237 -0.133023
C5    C     C_R   0.699733 0.680034 0.472577 -0.135207
C6    C     C_R   0.327018 0.036808 0.521111 -0.133066
C7    C     C_R   0.939894 0.279877 0.981203 -0.132712
C8    C     C_R   0.695290 0.686071 0.524025 -0.135008
C9    C     C_R   0.327017 0.036807 0.978889 -0.133066
C10   C     C_R   0.939911 0.279885 0.518798 -0.132712
C11   C     C_R   0.695293 0.686068 0.975976 -0.135008
C12   C     C_3   0.021843 0.239848 0.138698 -0.277615
C13   C     C_R   0.444033 0.902199 0.321190 0.566856
C14   C     C_3   0.220468 0.983334 0.359363 -0.277542
C15   C     C_3   0.765127 0.780766 0.140631 -0.278673
C16   C     C_3   0.021833 0.239846 0.361297 -0.277640
C17   C     C_3   0.220473 0.983340 0.140639 -0.277541
C18   C     C_3   0.765125 0.780767 0.359369 -0.278671
C19   C     C_3   0.214079 0.888685 0.634421 -0.306256
C20   C     C_3   0.094554 0.309224 0.871908 -0.304598
C21   C     C_3   0.792591 0.754643 0.637916 -0.275835
C22   C     C_3   0.214078 0.888690 0.865578 -0.306254
C23   C     C_3   0.094567 0.309237 0.628095 -0.304611
C24   C     C_R   0.097389 0.541577 0.178965 0.567269
C25   C     C_3   0.792591 0.754642 0.862083 -0.275834
C26   C     C_R   0.969039 0.484404 0.977794 0.039750
C27   C     C_R   0.507590 0.016029 0.523951 0.040088
C28   C     C_R   0.504026 0.493692 0.975039 0.040295
C29   C     C_R   0.969046 0.484408 0.522207 0.039750
C30   C     C_R   0.507587 0.016025 0.976048 0.040088
C31   C     C_R   0.504024 0.493694 0.524962 0.040295
C32   C     C_R   0.505841 0.008939 0.471656 0.039413
C33   C     C_R   0.898301 0.441153 0.677430 0.550677
C34   C     C_R   0.976750 0.490546 0.030088 0.038557
C35   C     C_R   0.500397 0.496559 0.472628 0.039886
C36   C     C_R   0.505839 0.008935 0.028343 0.039414
C37   C     C_R   0.976756 0.490549 0.469913 0.038558
C38   C     C_R   0.500399 0.496557 0.027373 0.039886
C39   C     C_R   0.995610 0.688296 0.975375 -0.123014
C40   C     C_R   0.685437 0.990143 0.526050 -0.124520
C41   C     C_R   0.311230 0.302190 0.974947 -0.123716
C42   C     C_R   0.995609 0.688296 0.524625 -0.123015
C43   C     C_R   0.685430 0.990133 0.973948 -0.124524
C44   C     C_R   0.542625 0.100806 0.822270 0.553114
C45   C     C_R   0.311229 0.302191 0.525054 -0.123717
C46   C     C_R   0.679043 0.975438 0.474392 -0.121631
C47   C     C_R   0.010609 0.697210 0.027017 -0.119979
C48   C     C_R   0.302290 0.310736 0.473526 -0.121275
C49   C     C_R   0.679037 0.975427 0.025606 -0.121633
C50   C     C_R   0.010606 0.697210 0.472984 -0.119979
C51   C     C_R   0.302292 0.310735 0.026475 -0.121276
C52   C     C_R   0.965806 0.574368 0.898348 -0.179173
C53   C     C_R   0.608379 0.030569 0.602699 -0.176016
C54   C     C_R   0.423883 0.384534 0.897495 -0.177588
C55   C     C_R   0.557251 0.457428 0.678003 0.560989
C56   C     C_R   0.965808 0.574369 0.601653 -0.179173
C57   C     C_R   0.608374 0.030563 0.897300 -0.176017
C58   C     C_R   0.423883 0.384534 0.602506 -0.177589
C59   C     C_R   0.577938 0.963745 0.395741 -0.177337
C60   C     C_R   0.029693 0.611257 0.105346 -0.177905
C61   C     C_R   0.387234 0.420142 0.395766 -0.177283
C62   C     C_R   0.577936 0.963739 0.104258 -0.177337
C63   C     C_R   0.029692 0.611257 0.394655 -0.177905
C64   C     C_R   0.387236 0.420140 0.104235 -0.177283
C65   C     C_R   0.027854 0.515036 0.132019 0.019156
C66   C     C_R   0.898300 0.441153 0.822570 0.550675
C67   C     C_R   0.485132 0.968229 0.368930 0.018956
C68   C     C_R   0.483098 0.516492 0.130393 0.020097
C69   C     C_R   0.027854 0.515037 0.367982 0.019159
C70   C     C_R   0.485132 0.968227 0.131070 0.018955
C71   C     C_R   0.483096 0.516493 0.369607 0.020097
C72   C     C_R   0.518665 0.044691 0.627610 0.014370
C73   C     C_R   0.949554 0.469788 0.873649 0.014555
C74   C     C_R   0.521046 0.480369 0.628531 0.017711
C75   C     C_R   0.518663 0.044689 0.872389 0.014371
C76   C     C_R   0.949559 0.469791 0.626351 0.014556
C77   C     C_R   0.542626 0.100806 0.677729 0.553113
C78   C     C_R   0.521046 0.480369 0.871469 0.017711
C79   C     C_R   0.978093 0.583549 0.950260 0.008658
C80   C     C_R   0.600233 0.010666 0.551180 0.008242
C81   C     C_R   0.411403 0.393618 0.948863 0.006666
C82   C     C_R   0.978096 0.583551 0.549741 0.008657
C83   C     C_R   0.600228 0.010659 0.948819 0.008242
C84   C     C_R   0.411402 0.393619 0.551138 0.006665
C85   C     C_R   0.589860 0.985157 0.446963 0.007083
C86   C     C_R   0.003199 0.599464 0.054499 0.004814
C87   C     C_R   0.396897 0.407180 0.446989 0.006535
C88   C     C_R   0.458135 0.556305 0.321420 0.565693
C89   C     C_R   0.589856 0.985150 0.053036 0.007083
C90   C     C_R   0.003200 0.599465 0.445502 0.004814
C91   C     C_R   0.396899 0.407178 0.053012 0.006534
C92   C     C_R   0.959254 0.378947 0.901005 0.139744
C93   C     C_R   0.413874 0.026965 0.601059 0.138792
C94   C     C_R   0.598550 0.591283 0.896673 0.134686
C95   C     C_R   0.959265 0.378953 0.598996 0.139743
C96   C     C_R   0.413872 0.026965 0.898941 0.138792
C97   C     C_R   0.598548 0.591284 0.603327 0.134685
C98   C     C_R   0.416379 0.014752 0.392038 0.132763
C99   C     C_R   0.444033 0.902199 0.178810 0.566857
C100  C     C_R   0.977965 0.398427 0.109626 0.131797
C101  C     C_R   0.596613 0.589398 0.393728 0.134543
C102  C     C_R   0.416380 0.014752 0.107962 0.132762
C103  C     C_R   0.977969 0.398429 0.390375 0.131800
C104  C     C_R   0.596615 0.589396 0.106273 0.134543
C105  C     C_R   0.956687 0.380623 0.953154 0.024710
C106  C     C_R   0.414932 0.025770 0.548898 0.025376
C107  C     C_R   0.599190 0.592088 0.949015 0.023085
C108  C     C_R   0.956698 0.380629 0.546847 0.024712
C109  C     C_R   0.414930 0.025768 0.951102 0.025376
C110  C     C_R   0.097389 0.541577 0.321035 0.567268
C111  C     C_R   0.599188 0.592090 0.550985 0.023084
C112  C     C_R   0.419735 0.025320 0.444194 0.021504
C113  C     C_R   0.960261 0.388419 0.057784 0.020986
C114  C     C_R   0.600792 0.588242 0.446057 0.022567
C115  C     C_R   0.419735 0.025319 0.055806 0.021504
C116  C     C_R   0.960269 0.388423 0.442217 0.020988
C117  C     C_R   0.600794 0.588240 0.053943 0.022567
C118  C     C_R   0.935099 0.281492 0.032556 -0.133049
C119  C     C_R   0.333793 0.043703 0.469764 -0.133022
C120  C     C_R   0.699736 0.680031 0.027423 -0.135207
Cr1   Cr    Cr6+3 0.487630 0.241180 0.750000 1.022805
Cr2   Cr    Cr6+3 0.753550 0.512370 0.750000 0.992877
Cr3   Cr    Cr6+3 0.758820 0.246450 0.750000 1.028269
Cr4   Cr    Cr6+3 0.241180 0.487630 0.250000 1.000417
Cr5   Cr    Cr6+3 0.512370 0.753550 0.250000 0.998687
Cr6   Cr    Cr6+3 0.246450 0.758820 0.250000 0.998528
H1    H     H_    0.058985 0.697560 0.123528 0.115249
H2    H     H_    0.685944 0.038593 0.876923 0.115085
H3    H     H_    0.968062 0.647665 0.622970 0.098831
H4    H     H_    0.360318 0.301655 0.878129 0.118261
H5    H     H_    0.029068 0.780898 0.045390 0.090216
H6    H     H_    0.744016 0.956778 0.455900 0.087541
H7    H     H_    0.222147 0.241237 0.045616 0.087619
H8    H     H_    0.029062 0.780896 0.454610 0.090216
H9    H     H_    0.744008 0.956765 0.044097 0.087542
H10   H     H_    0.222146 0.241238 0.454385 0.087622
H11   H     H_    0.756019 0.983941 0.546410 0.085708
H12   H     H_    0.636579 0.937469 0.377060 0.113816
H13   H     H_    0.999966 0.764213 0.955052 0.086795
H14   H     H_    0.238721 0.225303 0.544618 0.082018
H15   H     H_    0.756010 0.983927 0.953587 0.085708
H16   H     H_    0.999962 0.764212 0.544948 0.086795
H17   H     H_    0.238722 0.225302 0.955384 0.082017
H18   H     H_    0.918023 0.199866 0.051854 0.121825
H19   H     H_    0.266643 0.057272 0.450708 0.118731
H20   H     H_    0.778738 0.751809 0.045873 0.115541
H21   H     H_    0.918045 0.199875 0.448146 0.121825
H22   H     H_    0.266643 0.057272 0.049293 0.118731
H23   H     H_    0.303722 0.358290 0.123447 0.112502
H24   H     H_    0.778734 0.751813 0.454127 0.115541
H25   H     H_    0.253459 0.043155 0.538370 0.099806
H26   H     H_    0.928639 0.197796 0.964130 0.104433
H27   H     H_    0.770959 0.762343 0.542138 0.114534
H28   H     H_    0.253458 0.043155 0.961631 0.099806
H29   H     H_    0.928660 0.197806 0.535871 0.104430
H30   H     H_    0.770962 0.762340 0.957862 0.114534
H31   H     H_    0.851343 0.228302 0.136935 0.243948
H32   H     H_    0.970761 0.144007 0.125294 0.082637
H33   H     H_    0.053953 0.238300 0.176915 0.170134
H34   H     H_    0.058980 0.697558 0.376472 0.115247
H35   H     H_    0.101943 0.292459 0.114162 0.145963
H36   H     H_    0.381678 0.149741 0.368032 0.245645
H37   H     H_    0.176108 0.034158 0.373481 0.082650
H38   H     H_    0.186745 0.898449 0.381310 0.144358
H39   H     H_    0.192837 0.959648 0.319967 0.169647
H40   H     H_    0.767218 0.620000 0.126830 0.247599
H41   H     H_    0.859482 0.825532 0.125432 0.084658
H42   H     H_    0.771451 0.803941 0.180693 0.168868
H43   H     H_    0.713742 0.817551 0.121051 0.143423
H44   H     H_    0.851339 0.228302 0.363071 0.243957
H45   H     H_    0.636575 0.937461 0.122938 0.113817
H46   H     H_    0.970762 0.144011 0.374706 0.082632
H47   H     H_    0.101941 0.292463 0.385824 0.145980
H48   H     H_    0.053920 0.238289 0.323080 0.170143
H49   H     H_    0.381685 0.149744 0.131968 0.245646
H50   H     H_    0.176113 0.034165 0.126521 0.082650
H51   H     H_    0.192844 0.959658 0.180036 0.169646
H52   H     H_    0.186747 0.898453 0.118693 0.144358
H53   H     H_    0.767216 0.620002 0.373170 0.247599
H54   H     H_    0.859479 0.825534 0.374569 0.084657
H55   H     H_    0.713737 0.817552 0.378948 0.143426
H56   H     H_    0.303720 0.358292 0.376555 0.112501
H57   H     H_    0.771451 0.803941 0.319307 0.168867
H58   H     H_    0.279366 0.072447 0.617245 0.234449
H59   H     H_    0.178046 0.843987 0.598004 0.138905
H60   H     H_    0.138516 0.886511 0.656235 0.123841
H61   H     H_    0.249941 0.837480 0.655228 0.161350
H62   H     H_    0.907042 0.197593 0.884534 0.237038
H63   H     H_    0.131804 0.311120 0.909433 0.138161
H64   H     H_    0.153343 0.397869 0.853040 0.162445
H65   H     H_    0.095713 0.235897 0.849720 0.129001
H66   H     H_    0.638889 0.767053 0.620316 0.243373
H67   H     H_    0.685950 0.038601 0.623075 0.115088
H68   H     H_    0.843871 0.845601 0.619865 0.084363
H69   H     H_    0.824056 0.694448 0.622282 0.155461
H70   H     H_    0.813558 0.767312 0.678248 0.168649
H71   H     H_    0.279367 0.072452 0.882756 0.234448
H72   H     H_    0.178043 0.843989 0.901994 0.138903
H73   H     H_    0.249939 0.837486 0.844770 0.161350
H74   H     H_    0.138516 0.886520 0.843763 0.123841
H75   H     H_    0.907063 0.197602 0.615467 0.237041
H76   H     H_    0.131819 0.311136 0.590571 0.138167
H77   H     H_    0.095728 0.235913 0.650283 0.129004
H78   H     H_    0.968064 0.647665 0.877030 0.098829
H79   H     H_    0.153352 0.397883 0.646961 0.162450
H80   H     H_    0.638890 0.767053 0.879686 0.243373
H81   H     H_    0.843872 0.845599 0.880135 0.084362
H82   H     H_    0.813556 0.767314 0.821751 0.168648
H83   H     H_    0.824056 0.694445 0.877716 0.155464
H84   H     H_    0.360318 0.301655 0.621871 0.118262
N1    N     N_2   0.942891 0.292511 0.139561 -0.494948
N2    N     N_2   0.309665 0.013573 0.872834 -0.485700
N3    N     N_2   0.970866 0.286235 0.624307 -0.484681
N4    N     N_2   0.662394 0.703001 0.869409 -0.499991
N5    N     N_2   0.352386 0.058577 0.362426 -0.497123
N6    N     N_2   0.706521 0.649523 0.134916 -0.498160
N7    N     N_2   0.942885 0.292510 0.360441 -0.494965
N8    N     N_2   0.352390 0.058581 0.137575 -0.497124
N9    N     N_2   0.706519 0.649525 0.365084 -0.498161
N10   N     N_2   0.309665 0.013569 0.627166 -0.485700
N11   N     N_2   0.970851 0.286226 0.875695 -0.484670
N12   N     N_2   0.662394 0.703002 0.630592 -0.499991
O1    O     O_R   0.460870 0.120930 0.805240 -0.474412
O2    O     O_R   0.120930 0.460870 0.194760 -0.485966
O3    O     O_R   0.539130 0.660060 0.305240 -0.489237
O4    O     O_R   0.339940 0.879070 0.194760 -0.488148
O5    O     O_R   0.498910 0.350470 0.801870 -0.509746
O6    O     O_R   0.851560 0.501090 0.698130 -0.515799
O7    O     O_R   0.649530 0.148440 0.801870 -0.507516
O8    O     O_R   0.498910 0.350470 0.698130 -0.509746
O9    O     O_R   0.851560 0.501090 0.801870 -0.515800
O10   O     O_R   0.649530 0.148440 0.698130 -0.507517
O11   O     O_R   0.350470 0.498910 0.301870 -0.514114
O12   O     O_R   0.660060 0.539130 0.694760 -0.488590
O13   O     O_R   0.501090 0.851560 0.198130 -0.514859
O14   O     O_R   0.148440 0.649530 0.301870 -0.515182
O15   O     O_R   0.350470 0.498910 0.198130 -0.514114
O16   O     O_R   0.501090 0.851560 0.301870 -0.514858
O17   O     O_R   0.148440 0.649530 0.198130 -0.515183
O18   O     O_3   0.666667 0.333333 0.750000 -0.241620
O19   O     O_3   0.333333 0.666667 0.250000 -0.234860
O20   O     O_R   0.879070 0.339940 0.805240 -0.471412
O21   O     O_R   0.460870 0.120930 0.694760 -0.474413
O22   O     O_R   0.660060 0.539130 0.805240 -0.488590
O23   O     O_R   0.879070 0.339940 0.694760 -0.471412
O24   O     O_R   0.120930 0.460870 0.305240 -0.485972
O25   O     O_R   0.539130 0.660060 0.194760 -0.489237
O26   O     O_R   0.339940 0.879070 0.305240 -0.488147

loop_
_geom_bond_atom_site_label_1
_geom_bond_atom_site_label_2
_ccdc_geom_bond_type
C36   C89   A    
C17   H52   S    
C98   N5    S    
C3    H21   S    
C56   C76   A    
C5    C114  A    
C43   C83   A    
C4    C115  A    
C10   C108  A    
C55   O8    A    
C44   O7    A    
C33   O6    A    
C20   H65   S    
C37   C116  A    
C34   C113  A    
C40   C46   A    
C62   H45   S    
C51   C91   A    
C15   H43   S    
C61   H56   S    
C37   C90   A    
C93   N10   S    
C96   N2    S    
C64   C68   A    
C22   H74   S    
C92   N11   S    
C41   H17   S    
C2    C68   S    
C3    C116  A    
C76   C95   A    
C46   H6    S    
C97   C111  A    
C40   C80   A    
C11   C120  A    
C28   C107  A    
C17   H51   S    
C4    H22   S    
C62   C89   A    
C120  H20   S    
C30   C83   A    
C53   H67   S    
C97   N12   S    
C62   C70   A    
C35   C114  A    
C34   C86   A    
C102  N8    S    
C14   H37   S    
C16   H46   S    
C102  C115  A    
C61   C87   A    
C67   C98   A    
C19   H61   S    
C12   H35   S    
C55   C74   S    
C35   C87   A    
C26   C34   A    
C43   H15   S    
Cr2   O18   S    
Cr3   O10   S    
C63   C69   A    
C110  O14   A    
C22   N2    S    
C42   H16   S    
C23   N3    S    
C20   N11   S    
C7    C105  A    
C29   C108  A    
C33   O23   A    
C57   C75   A    
C21   H68   S    
C25   H82   S    
Cr6   O14   S    
C53   C72   A    
C56   H3    S    
C17   H50   S    
H44   N7    S    
C59   C67   A    
H62   N11   S    
H80   N4    S    
C58   H84   S    
C71   C101  A    
Cr2   O6    S    
C21   H70   S    
C23   H79   S    
C14   H38   S    
C101  C114  A    
C38   C117  A    
C7    C118  A    
C15   H41   S    
C61   C71   A    
Cr6   O4    S    
C7    H26   S    
C63   H34   S    
C57   H2    S    
Cr5   O3    S    
Cr6   O17   S    
C26   C105  A    
C96   C109  A    
C50   C90   A    
C75   C96   A    
C74   C97   A    
H36   N5    S    
C24   O2    A    
C9    C109  A    
C54   H4    S    
C39   H13   S    
C94   C107  A    
C94   N4    S    
C98   C112  A    
C21   N12   S    
C30   C109  A    
C1    C78   S    
C47   C86   A    
Cr4   O2    S    
C22   H73   S    
C53   C80   A    
C104  N6    S    
C52   C73   A    
C50   H8    S    
C117  C120  A    
C20   H63   S    
Cr3   O23   S    
C60   C86   A    
C43   C49   A    
Cr2   O22   S    
C23   H76   S    
C59   H12   S    
C66   C73   S    
Cr6   O26   S    
C38   C91   A    
C45   H14   S    
C31   C84   A    
C71   C88   S    
C47   H5    S    
C52   H78   S    
C39   C79   A    
C44   C75   S    
C25   H83   S    
C2    O25   A    
C59   C85   A    
C72   C77   S    
Cr5   O13   S    
C1    O22   A    
C58   C84   A    
C93   C106  A    
C5    C8    A    
C99   O13   A    
C69   C110  S    
C101  N9    S    
C33   C76   S    
C88   O3    A    
Cr3   O7    S    
C28   C38   A    
C41   C81   A    
C40   H11   S    
C13   O26   A    
Cr6   O19   S    
C57   C83   A    
Cr1   O1    S    
C48   C87   A    
C16   N7    S    
C44   O1    A    
C21   H69   S    
C14   H39   S    
Cr5   O19   S    
C8    H27   S    
C6    C106  A    
H75   N3    S    
C24   O17   A    
C24   C65   S    
C42   C50   A    
C88   O11   A    
C6    H25   S    
C11   H30   S    
Cr2   O12   S    
C103  N7    S    
C60   C65   A    
H31   N1    S    
C12   N1    S    
C16   H47   S    
C11   C107  A    
C95   N3    S    
H49   N8    S    
C18   N9    S    
C15   H42   S    
C8    C111  A    
C45   C84   A    
C72   C93   A    
C55   O12   A    
C29   C37   A    
C52   C79   A    
C6    C119  A    
C70   C99   S    
C58   C74   A    
C39   C47   A    
Cr3   O18   S    
C13   C67   S    
C45   C48   A    
C16   H48   S    
Cr4   O19   S    
Cr1   O21   S    
C25   N4    S    
C77   O10   A    
C31   C111  A    
Cr1   O8    S    
C32   C112  A    
H53   N9    S    
C27   C32   A    
C77   O21   A    
C69   C103  A    
C48   H10   S    
C60   H1    S    
C100  C113  A    
C68   C104  A    
C73   C92   A    
C49   C89   A    
C15   N6    S    
C65   C100  A    
Cr1   O5    S    
C10   H29   S    
C9    H28   S    
C112  C119  A    
C70   C102  A    
C2    O15   A    
C56   C82   A    
C13   O16   A    
C119  H19   S    
Cr1   O18   S    
C66   O20   A    
Cr2   O9    S    
C104  C117  A    
C100  N1    S    
C118  H18   S    
C26   C79   A    
C18   H55   S    
C30   C36   A    
C64   H23   S    
Cr5   O16   S    
C46   C85   A    
C103  C116  A    
C28   C81   A    
H66   N12   S    
C29   C82   A    
C19   H60   S    
H71   N2    S    
C19   H59   S    
C20   H64   S    
Cr4   O15   S    
C51   H7    S    
C110  O24   A    
C18   H57   S    
C78   C94   A    
Cr4   O11   S    
C32   C85   A    
C66   O9    A    
C63   C90   A    
C14   N5    S    
C27   C106  A    
C31   C35   A    
Cr3   O20   S    
C12   H33   S    
C49   H9    S    
C99   O4    A    
Cr5   O25   S    
C95   C108  A    
C5    H24   S    
C18   H54   S    
C113  C118  A    
C92   C105  A    
H58   N10   S    
C1    O5    A    
C27   C80   A    
C23   H77   S    
C3    C10   A    
C22   H72   S    
C19   N10   S    
Cr4   O24   S    
C64   C91   A    
C12   H32   S    
C4    C9    A    
C25   H81   S    
C36   C115  A    
C41   C51   A    
C54   C81   A    
C17   N8    S    
C42   C82   A    
H40   N6    S    
C54   C78   A    
