data_mof_unit_10402.cif
_audit_creation_date              2012-12-11T17:36:08-0500
_audit_creation_method            fapswitch 2.2
_symmetry_space_group_name_H-M    P1
_symmetry_Int_Tables_number       1
_space_group_crystal_system       triclinic
_cell_length_a                    25.819088
_cell_length_b                    6.903598
_cell_length_c                    21.712809
_cell_angle_alpha                 89.995139
_cell_angle_beta                  96.125313
_cell_angle_gamma                 89.99655
_cell_volume                      3848.09571762

loop_
_atom_site_label
_atom_site_type_symbol
_atom_type_description
_atom_site_fract_x
_atom_site_fract_y
_atom_site_fract_z
_atom_type_partial_charge
O1    O     O_R   0.208650 0.594520 0.175450 -0.531084
O2    O     O_R   0.791350 0.405480 0.824550 -0.531094
O3    O     O_R   0.291350 0.094520 0.324550 -0.531074
O4    O     O_R   0.708650 0.905480 0.675450 -0.531082
O5    O     O_R   0.192980 0.260780 0.300160 -0.542027
O6    O     O_R   0.807020 0.739220 0.699840 -0.542016
O7    O     O_R   0.307020 0.760780 0.199840 -0.542012
O8    O     O_R   0.692980 0.239220 0.800160 -0.542014
C1    C     C_R   0.178821 0.432858 0.318463 0.688723
C2    C     C_R   0.821186 0.567140 0.681545 0.688730
C3    C     C_R   0.321186 0.932861 0.181546 0.688684
C4    C     C_R   0.678816 0.067138 0.818456 0.688698
O9    O     O_R   0.202550 0.264660 0.174420 -0.534370
O10   O     O_R   0.797450 0.735340 0.825580 -0.534370
O11   O     O_R   0.297450 0.764660 0.325580 -0.534364
O12   O     O_R   0.702550 0.235340 0.674420 -0.534347
O13   O     O_R   0.300990 0.096480 0.197920 -0.540410
O14   O     O_R   0.699010 0.903520 0.802080 -0.540407
O15   O     O_R   0.199010 0.596480 0.302080 -0.540392
O16   O     O_R   0.800990 0.403520 0.697920 -0.540405
C5    C     C_R   0.191042 0.433227 0.151095 0.706123
C6    C     C_R   0.808958 0.566772 0.848904 0.706101
C7    C     C_R   0.308962 0.933204 0.348905 0.706046
C8    C     C_R   0.691041 0.066798 0.651093 0.706090
O17   O     O_3   0.282290 0.427760 0.257860 -0.363387
O18   O     O_3   0.717710 0.572240 0.742140 -0.363377
O19   O     O_3   0.217710 0.927760 0.242140 -0.363372
O20   O     O_3   0.782290 0.072240 0.757860 -0.363397
V1    V     V_3+5 0.244010 0.152080 0.248540 1.461154
V2    V     V_3+5 0.755990 0.847920 0.751460 1.461146
V3    V     V_3+5 0.255990 0.652080 0.251460 1.461216
V4    V     V_3+5 0.744010 0.347920 0.748540 1.461207
C9    C     C_R   0.657674 0.062587 0.591520 -0.126490
C10   C     C_R   0.342329 0.937421 0.408476 -0.126446
C11   C     C_R   0.842323 0.562442 0.908474 -0.126457
C12   C     C_R   0.157676 0.437557 0.091525 -0.126465
C13   C     C_R   0.646280 0.151886 0.482607 0.018389
C14   C     C_R   0.353708 0.848256 0.517404 0.018413
C15   C     C_R   0.853629 0.650557 0.017481 0.018363
C16   C     C_R   0.146367 0.349409 0.982522 0.018367
C17   C     C_R   0.678134 0.127415 0.538474 -0.128429
C18   C     C_R   0.321860 0.872696 0.461531 -0.128465
C19   C     C_R   0.821806 0.626465 0.961575 -0.128627
C20   C     C_R   0.178191 0.373498 0.038427 -0.128627
C21   C     C_R   0.604850 0.012566 0.588562 -0.105030
C22   C     C_R   0.395155 0.987379 0.411431 -0.104964
C23   C     C_R   0.895175 0.512871 0.911400 -0.105095
C24   C     C_R   0.104826 0.487159 0.088597 -0.105104
C25   C     C_R   0.571210 0.027585 0.532337 0.110765
C26   C     C_R   0.428789 0.972406 0.467663 0.110770
C27   C     C_R   0.928788 0.527486 0.967654 0.110717
C28   C     C_R   0.071212 0.472540 0.032344 0.110712
C29   C     C_R   0.591987 0.112180 0.480433 -0.048739
C30   C     C_R   0.408005 0.887889 0.519574 -0.048761
C31   C     C_R   0.907947 0.611287 0.019637 -0.048828
C32   C     C_R   0.092051 0.388715 0.980363 -0.048822
C33   C     C_R   0.516996 0.972975 0.527020 -0.125379
C34   C     C_R   0.483001 0.027012 0.472982 -0.125380
C35   C     C_R   0.983024 0.473198 0.972943 -0.125411
C36   C     C_R   0.016976 0.526836 0.027055 -0.125406
C37   C     C_R   0.504328 0.137780 0.427000 0.635329
C38   C     C_R   0.495664 0.862240 0.573008 0.635350
C39   C     C_R   0.995578 0.636899 0.073145 0.635377
C40   C     C_R   0.004422 0.363130 0.926854 0.635369
C41   C     C_R   0.557550 0.170053 0.429486 -0.248938
C42   C     C_R   0.442439 0.830024 0.570525 -0.248904
C43   C     C_R   0.942339 0.668806 0.070664 -0.248961
C44   C     C_R   0.057659 0.331203 0.929336 -0.248945
H1    H     H_    0.570761 0.254758 0.392353 0.149693
H2    H     H_    0.429216 0.745371 0.607664 0.149697
H3    H     H_    0.929068 0.752951 0.107883 0.149716
H4    H     H_    0.070928 0.247044 0.892118 0.149722
H5    H     H_    0.409520 0.022105 0.368004 0.180528
H6    H     H_    0.590493 0.977768 0.631988 0.180578
H7    H     H_    0.090440 0.521370 0.132050 0.180594
H8    H     H_    0.909564 0.478685 0.867947 0.180584
H9    H     H_    0.280738 0.837526 0.458714 0.145915
H10   H     H_    0.719253 0.162649 0.541293 0.145991
H11   H     H_    0.219332 0.338611 0.041226 0.145970
H12   H     H_    0.780664 0.661326 0.958776 0.145964
C45   C     C_R   0.427133 0.793589 0.079078 -0.116109
C46   C     C_R   0.572787 0.206405 0.920805 -0.116140
C47   C     C_R   0.072499 0.293685 0.420415 -0.116222
C48   C     C_R   0.927112 0.706409 0.579047 -0.116095
H13   H     H_    0.445220 0.663017 0.063827 0.108946
H14   H     H_    0.554637 0.336991 0.935950 0.108968
H15   H     H_    0.054102 0.163201 0.435236 0.109082
H16   H     H_    0.945187 0.836973 0.563775 0.108939
C49   C     C_R   0.387884 0.778629 0.119042 -0.151467
C50   C     C_R   0.612038 0.221358 0.880843 -0.151525
C51   C     C_R   0.111759 0.278736 0.380465 -0.151699
C52   C     C_R   0.887866 0.721374 0.619015 -0.151420
H17   H     H_    0.376590 0.636211 0.133635 0.120682
H18   H     H_    0.623258 0.363779 0.866152 0.120735
H19   H     H_    0.122740 0.136416 0.365441 0.120982
H20   H     H_    0.876559 0.863788 0.633591 0.120670
C53   C     C_R   0.363511 0.945797 0.139632 -0.054517
C54   C     C_R   0.636498 0.054202 0.860376 -0.054491
C55   C     C_R   0.136514 0.445790 0.360399 -0.054450
C56   C     C_R   0.863509 0.554207 0.639631 -0.054480
C57   C     C_R   0.379686 0.127839 0.119082 -0.141263
C58   C     C_R   0.620409 0.872183 0.881051 -0.141216
C59   C     C_R   0.120724 0.627701 0.381480 -0.141088
C60   C     C_R   0.879699 0.372164 0.619102 -0.141205
H21   H     H_    0.362010 0.260092 0.133599 0.122116
H22   H     H_    0.638155 0.739918 0.866638 0.122066
H23   H     H_    0.138718 0.759860 0.367400 0.121991
H24   H     H_    0.862035 0.239917 0.633641 0.122118
C61   C     C_R   0.418818 0.142298 0.079255 -0.116113
C62   C     C_R   0.581278 0.857731 0.920878 -0.116120
C63   C     C_R   0.081590 0.642147 0.421303 -0.116132
C64   C     C_R   0.918828 0.357700 0.579273 -0.116109
H25   H     H_    0.430312 0.284094 0.064213 0.107759
H26   H     H_    0.569859 0.715934 0.936013 0.107776
H27   H     H_    0.070404 0.783840 0.436765 0.107895
H28   H     H_    0.930334 0.215907 0.564248 0.107746
C65   C     C_R   0.442778 0.975585 0.058913 0.126850
C66   C     C_R   0.557228 0.024434 0.941092 0.126866
C67   C     C_R   0.057235 0.475550 0.441103 0.126830
C68   C     C_R   0.942771 0.524411 0.558904 0.126852
C69   C     C_1   0.483162 0.992343 0.017363 -0.039958
C70   C     C_1   0.516842 0.007686 0.982640 -0.039946
C71   C     C_1   0.016839 0.492296 0.482637 -0.039987
C72   C     C_1   0.983156 0.507644 0.517355 -0.039958
C73   C     C_2   0.671011 0.216859 0.427246 0.393530
H29   H     H_    0.651869 0.195060 0.380902 0.055276
O21   O     O_2   0.713990 0.292773 0.432713 -0.516174
C74   C     C_2   0.328969 0.783419 0.572778 0.393504
H30   H     H_    0.348098 0.805381 0.619120 0.055290
O22   O     O_2   0.285998 0.707441 0.567317 -0.516175
C75   C     C_2   0.828841 0.714606 0.072904 0.393537
H31   H     H_    0.847981 0.692414 0.119230 0.055298
O23   O     O_2   0.785815 0.790174 0.067502 -0.516151
C76   C     C_2   0.171153 0.285324 0.927102 0.393545
H32   H     H_    0.152019 0.307572 0.880774 0.055294
O24   O     O_2   0.214168 0.209664 0.932507 -0.516146
F1    F     F_    0.474302 0.230391 0.381116 -0.701967
F2    F     F_    0.525683 0.769632 0.618895 -0.701978
F3    F     F_    0.025539 0.729164 0.119150 -0.701978
F4    F     F_    0.974459 0.270869 0.880849 -0.701979

loop_
_geom_bond_atom_site_label_1
_geom_bond_atom_site_label_2
_ccdc_geom_bond_type
O17   V3    S    
C55   C59   A    
O1    C5    A    
O19   V1    S    
C9    C21   A    
O3    C7    A    
C10   C18   A    
O1    V3    S    
O15   V3    S    
C74   H30   S    
C62   C66   A    
C61   C65   A    
C71   C72   T    
C5    C12   S    
O7    C3    A    
C6    C11   S    
C35   C40   A    
C26   C30   A    
C36   C39   A    
C40   C44   A    
O2    V4    S    
O9    V1    S    
C23   H8    S    
C14   C18   A    
C13   C17   A    
C40   F4    S    
O4    C8    A    
C25   C29   A    
C44   H4    S    
C43   H3    S    
C57   C61   A    
C45   C65   A    
C60   H24   S    
C52   H20   S    
O13   V1    S    
C59   C63   A    
C66   C70   S    
C47   C67   A    
O3    V1    S    
C65   C69   S    
C28   C36   A    
C68   C72   S    
C1    O15   A    
C56   C60   A    
C15   C31   A    
C2    O16   A    
C16   C32   A    
O2    C6    A    
C58   H22   S    
C10   C22   A    
C21   C25   A    
C11   C19   A    
C62   H26   S    
C16   C20   A    
O5    V1    S    
C48   C68   A    
C13   C29   A    
C34   C37   A    
O11   C7    A    
C11   C23   A    
C35   C36   A    
O12   C8    A    
O17   V1    S    
C24   H7    S    
O10   V2    S    
C50   H18   S    
C13   C73   S    
C57   H21   S    
C39   C43   A    
O7    V3    S    
C38   C42   A    
O19   V3    S    
C26   C34   A    
C33   C38   A    
C17   H10   S    
C64   C68   A    
O18   V4    S    
C15   C19   A    
C19   H12   S    
C54   C58   A    
C16   C76   S    
O4    V2    S    
C49   C53   A    
C21   H6    S    
O8    V4    S    
O5    C1    A    
C23   C27   A    
C63   H27   S    
C31   C43   A    
C14   C30   A    
O20   V4    S    
O8    C4    A    
C7    C10   S    
O9    C5    A    
C38   F2    S    
C2    C56   S    
C14   C74   S    
C69   C70   T    
O14   V2    S    
C63   C67   A    
O6    V2    S    
O18   V2    S    
C67   C71   S    
C73   H29   S    
C58   C62   A    
C27   C35   A    
C46   C66   A    
C75   H31   S    
C64   H28   S    
C29   C41   A    
C52   C56   A    
C60   C64   A    
O16   V4    S    
C3    O13   A    
C39   F3    S    
C20   H11   S    
C48   H16   S    
C75   O23   D    
C74   O22   D    
C47   H15   S    
O6    C2    A    
C25   C33   A    
C76   O24   D    
O11   V3    S    
C76   H32   S    
C30   C42   A    
C61   H25   S    
O12   V4    S    
C47   C51   A    
C22   C26   A    
C8    C9    S    
C46   C50   A    
C3    C53   S    
C9    C17   A    
O10   C6    A    
O20   V2    S    
C45   C49   A    
C32   C44   A    
C46   H14   S    
C37   F1    S    
C33   C34   A    
C42   H2    S    
C15   C75   S    
C41   H1    S    
C12   C24   A    
C27   C31   A    
C49   H17   S    
C45   H13   S    
C12   C20   A    
C51   H19   S    
C37   C41   A    
C24   C28   A    
C18   H9    S    
C1    C55   S    
C4    O14   A    
C4    C54   S    
C73   O21   D    
C59   H23   S    
C48   C52   A    
C51   C55   A    
C50   C54   A    
C22   H5    S    
C53   C57   A    
C28   C32   A    
