data_mof_unit_36750.cif
_audit_creation_date              2012-12-10T19:44:40-0500
_audit_creation_method            fapswitch 2.2
_symmetry_space_group_name_H-M    P1
_symmetry_Int_Tables_number       1
_space_group_crystal_system       triclinic
_cell_length_a                    8.551753
_cell_length_b                    15.074715
_cell_length_c                    14.33722
_cell_angle_alpha                 89.278525
_cell_angle_beta                  97.760264
_cell_angle_gamma                 92.101487
_cell_volume                      1830.07285478

loop_
_atom_site_label
_atom_site_type_symbol
_atom_type_description
_atom_site_fract_x
_atom_site_fract_y
_atom_site_fract_z
_atom_type_partial_charge
C1    C     C_R   0.505170 0.327891 0.501133 0.893615
C2    C     C_R   0.377654 0.456801 0.885630 0.374374
C3    C     C_R   0.499333 0.500327 0.052940 -0.108799
C4    C     C_R   0.499884 0.500155 0.946676 -0.112465
C5    C     C_R   0.201790 0.497457 0.475963 0.942096
C6    C     C_R   0.798344 0.501443 0.524275 0.946654
C7    C     C_2   0.037318 0.487616 0.465049 -0.391678
C8    C     C_2   0.963245 0.509113 0.536350 -0.387568
C9    C     C_R   0.407158 0.093210 0.562975 0.465072
C10   C     C_R   0.401920 0.903367 0.407488 0.464278
C11   C     C_R   0.446889 0.182812 0.575698 0.055989
C12   C     C_R   0.492695 0.672075 0.498909 0.899031
C13   C     C_R   0.414359 0.811018 0.409752 0.070936
C14   C     C_R   0.508020 0.231229 0.502690 -0.191743
C15   C     C_R   0.471260 0.767961 0.495940 -0.201318
C16   C     C_R   0.559257 0.185961 0.427081 0.166767
C17   C     C_R   0.509342 0.818199 0.579010 0.144023
C18   C     C_R   0.537544 0.094374 0.422056 -0.283762
C19   C     C_R   0.513041 0.909393 0.572778 -0.247428
C20   C     C_R   0.461056 0.048360 0.488844 -0.021233
C21   C     C_R   0.457190 0.952135 0.488877 -0.014766
C22   C     C_3   0.168871 0.039578 0.594988 -0.370474
C23   C     C_R   0.360514 0.514236 0.093562 0.366962
C24   C     C_3   0.189224 0.972567 0.329085 -0.339280
C25   C     C_3   0.574961 0.227623 0.728569 -0.719035
C26   C     C_3   0.209157 0.722059 0.318369 -0.738468
C27   C     C_3   0.800131 0.258339 0.389592 -0.773122
C28   C     C_3   0.404539 0.761498 0.716154 -0.720283
C29   C     C_3   0.215788 0.624022 0.020072 -0.278977
C30   C     C_3   0.691660 0.673543 0.980377 -0.331371
C31   C     C_3   0.174896 0.389045 0.229017 -0.720724
C32   C     C_3   0.823718 0.635372 0.750202 -0.721490
C33   C     C_3   0.817207 0.614839 0.279273 -0.744871
C34   C     C_R   0.622692 0.543238 0.904134 0.388130
C35   C     C_3   0.175811 0.365807 0.700870 -0.686402
C36   C     C_3   0.782843 0.374669 0.073678 -0.309715
C37   C     C_3   0.309810 0.326431 0.954568 -0.310486
C38   C     C_R   0.360741 0.501312 0.191789 0.143796
C39   C     C_R   0.629376 0.532639 0.806578 0.155450
C40   C     C_R   0.638380 0.499805 0.213676 0.152628
C41   C     C_R   0.370838 0.467411 0.786817 0.148668
C42   C     C_R   0.637989 0.486372 0.116008 0.373791
H1    H     H_    0.978011 0.459183 0.400424 0.183369
H2    H     H_    0.129322 0.983082 0.256440 0.189201
H3    H     H_    0.336456 0.197667 0.694814 0.250004
H4    H     H_    0.609882 0.159908 0.752572 0.227102
H5    H     H_    0.556584 0.267289 0.790596 0.213716
H6    H     H_    0.672116 0.260492 0.695240 0.245529
H7    H     H_    0.388635 0.793824 0.264574 0.249243
H8    H     H_    0.119817 0.774023 0.307061 0.221819
H9    H     H_    0.192621 0.683497 0.383024 0.234735
H10   H     H_    0.190268 0.676229 0.257663 0.228319
H11   H     H_    0.624895 0.200319 0.293427 0.214694
H12   H     H_    0.023021 0.535740 0.602202 0.185483
H13   H     H_    0.872705 0.198971 0.405517 0.217588
H14   H     H_    0.808778 0.300164 0.453428 0.238573
H15   H     H_    0.847976 0.297978 0.333433 0.220867
H16   H     H_    0.632594 0.810634 0.713076 0.205896
H17   H     H_    0.312047 0.722963 0.669999 0.248082
H18   H     H_    0.437071 0.722110 0.781306 0.209606
H19   H     H_    0.355829 0.825225 0.735005 0.232391
H20   H     H_    0.308669 0.646238 0.976757 0.131426
H21   H     H_    0.227511 0.662494 0.086580 0.128726
H22   H     H_    0.099749 0.638742 0.979373 0.221479
H23   H     H_    0.584101 0.058750 0.367258 0.186394
H24   H     H_    0.609397 0.666988 0.033880 0.157221
H25   H     H_    0.634971 0.709681 0.917329 0.134957
H26   H     H_    0.795182 0.714767 0.011630 0.179676
H27   H     H_    0.122547 0.519183 0.192848 0.261960
H28   H     H_    0.270923 0.353199 0.272022 0.252969
H29   H     H_    0.065657 0.378027 0.261839 0.199886
H30   H     H_    0.155356 0.361201 0.156797 0.230103
H31   H     H_    0.867672 0.514686 0.815943 0.248459
H32   H     H_    0.823223 0.680282 0.810721 0.235932
H33   H     H_    0.744532 0.659336 0.688859 0.275902
H34   H     H_    0.556544 0.947250 0.635327 0.189256
H35   H     H_    0.945017 0.636832 0.730517 0.195574
H36   H     H_    0.877488 0.488010 0.249800 0.238091
H37   H     H_    0.922450 0.626324 0.332347 0.230934
H38   H     H_    0.716727 0.648344 0.303696 0.258840
H39   H     H_    0.841036 0.644350 0.210912 0.226455
H40   H     H_    0.132709 0.484996 0.759676 0.227853
H41   H     H_    0.192329 0.318196 0.760597 0.231335
H42   H     H_    0.243542 0.346714 0.644598 0.270077
H43   H     H_    0.049115 0.362794 0.670628 0.207009
H44   H     H_    0.780329 0.340136 0.142614 0.132530
H45   H     H_    0.147845 0.994834 0.533207 0.168411
H46   H     H_    0.895294 0.359195 0.047932 0.213780
H47   H     H_    0.684976 0.348759 0.020899 0.142080
H48   H     H_    0.387015 0.333313 0.022979 0.154309
H49   H     H_    0.372418 0.291553 0.903352 0.131902
H50   H     H_    0.206075 0.283788 0.967022 0.179964
H51   H     H_    0.117322 0.105425 0.576879 0.150862
H52   H     H_    0.106015 0.009302 0.650948 0.196887
H53   H     H_    0.192222 0.036928 0.366142 0.170119
H54   H     H_    0.116382 0.922365 0.363418 0.144331
N1    N     N_R   0.500000 0.499980 0.252470 -0.147545
N2    N     N_2   0.221577 0.455309 0.730738 -0.246044
N3    N     N_R   0.500000 0.500020 0.747530 -0.154689
N4    N     N_2   0.430329 0.222637 0.663221 -0.282482
N5    N     N_2   0.366776 0.761809 0.325740 -0.267419
N6    N     N_2   0.637632 0.231442 0.357843 -0.271261
N7    N     N_2   0.542925 0.778293 0.669610 -0.286844
N8    N     N_2   0.214750 0.483099 0.225534 -0.239103
N9    N     N_2   0.778086 0.545382 0.773463 -0.238023
N10   N     N_2   0.783626 0.520417 0.269539 -0.246318
O1    O     O_R   0.500010 0.369070 0.579480 -0.597942
O2    O     O_3   0.343860 0.945019 0.323875 -0.622458
O3    O     O_3   0.219887 0.531957 0.037987 -0.521044
O4    O     O_3   0.745056 0.590198 0.957087 -0.527995
O5    O     O_3   0.777638 0.467383 0.083135 -0.527968
O6    O     O_3   0.255599 0.409506 0.920085 -0.533804
O7    O     O_R   0.499990 0.630930 0.420520 -0.594727
O8    O     O_R   0.500010 0.369060 0.420520 -0.594327
O9    O     O_R   0.499990 0.630940 0.579480 -0.597046
O10   O     O_R   0.271750 0.500000 0.560890 -0.591889
O11   O     O_R   0.728250 0.500000 0.439110 -0.577186
O12   O     O_R   0.271750 0.499990 0.401930 -0.592648
O13   O     O_R   0.728250 0.500010 0.598070 -0.599568
O14   O     O_3   0.331042 0.047860 0.629455 -0.618102
Zn1   Zn    Zn3+2 0.500000 0.500010 0.606140 0.961684
Zn2   Zn    Zn3+2 0.500000 0.499990 0.393860 0.966041

loop_
_geom_bond_atom_site_label_1
_geom_bond_atom_site_label_2
_ccdc_geom_bond_type
C36   H47   S    
C29   H21   S    
C3    C42   A    
O9    Zn1   S    
H40   N2    S    
C3    C23   A    
O11   Zn2   S    
C32   H33   S    
C7    C8    D    
C36   H46   S    
C18   H23   S    
C22   O14   S    
C2    O6    S    
C37   H48   S    
C30   O4    S    
C29   O3    S    
C19   H34   S    
C19   C21   A    
C24   H54   S    
C26   N5    S    
H7    N5    S    
C11   C14   A    
C27   H13   S    
H27   N8    S    
C2    C41   A    
C39   N9    S    
O12   Zn2   S    
C37   O6    S    
C38   N8    S    
C25   N4    S    
C32   H35   S    
C10   O2    S    
C31   H28   S    
O7    Zn2   S    
C41   N3    A    
C24   O2    S    
C7    H1    S    
C35   N2    S    
C25   H5    S    
C6    O11   A    
C30   H25   S    
N3    Zn1   S    
C12   O9    A    
C28   H19   S    
C28   H18   S    
C29   H22   S    
C22   H52   S    
C38   N1    A    
O13   Zn1   S    
C10   C21   A    
C23   O3    S    
C4    C34   A    
O10   Zn1   S    
C37   H49   S    
C34   C39   A    
C27   H15   S    
C24   H53   S    
C8    H12   S    
C40   N1    A    
C5    C7    S    
C35   H41   S    
C27   H14   S    
C33   H37   S    
C6    C8    S    
C36   H44   S    
C10   C13   A    
C11   N4    S    
C2    C4    A    
C42   O5    S    
N1    Zn2   S    
C26   H10   S    
C9    C20   A    
C39   N3    A    
C12   C15   S    
H11   N6    S    
C36   O5    S    
C22   H45   S    
C9    C11   A    
C25   H6    S    
C30   H24   S    
C1    O1    A    
C16   N6    S    
C31   H30   S    
C32   N9    S    
C13   C15   A    
C5    O10   A    
C34   O4    S    
C22   H51   S    
C14   C16   A    
C1    O8    A    
O1    Zn1   S    
C13   N5    S    
C3    C4    S    
C6    O13   A    
C40   N10   S    
C12   O7    A    
C28   H17   S    
C15   C17   A    
C29   H20   S    
C37   H50   S    
C33   N10   S    
C40   C42   A    
H3    N4    S    
C35   H42   S    
C33   H38   S    
H16   N7    S    
C23   C38   A    
C5    O12   A    
C27   N6    S    
H31   N9    S    
H36   N10   S    
C31   N8    S    
C26   H8    S    
C17   N7    S    
C26   H9    S    
C32   H32   S    
C35   H43   S    
C28   N7    S    
C24   H2    S    
C31   H29   S    
C17   C19   A    
C18   C20   A    
O8    Zn2   S    
C20   C21   S    
C16   C18   A    
C9    O14   S    
C41   N2    S    
C1    C14   S    
C33   H39   S    
C25   H4    S    
C30   H26   S    
