data_mof_unit_20803.cif
_audit_creation_date              2013-03-05T16:46:53-0500
_audit_creation_method            fapswitch 2.2
_symmetry_space_group_name_H-M    P1
_symmetry_Int_Tables_number       1
_space_group_crystal_system       triclinic
_cell_length_a                    18.212177
_cell_length_b                    18.250094
_cell_length_c                    18.545504
_cell_angle_alpha                 120.1503
_cell_angle_beta                  89.8176
_cell_angle_gamma                 119.619508
_cell_volume                      4380.47959974

loop_
_atom_site_label
_atom_site_type_symbol
_atom_site_description
_atom_site_fract_x
_atom_site_fract_y
_atom_site_fract_z
_atom_type_partial_charge
Zn1   Zn    Zn3+2 0.456040 0.586770 0.543190 1.105941
Zn2   Zn    Zn3+2 0.456820 0.413240 0.543960 1.052674
Zn3   Zn    Zn3+2 0.631110 0.586750 0.543190 1.093196
Zn4   Zn    Zn3+2 0.456040 0.413240 0.369660 1.123469
O1    O     O_3   0.500000 0.500000 0.500000 -0.566276
O2    O     O_R   0.383400 0.268380 0.323710 -0.577057
O3    O     O_R   0.555060 0.731630 0.615290 -0.559200
O4    O     O_R   0.383950 0.439280 0.616600 -0.628112
O5    O     O_R   0.677590 0.560710 0.444390 -0.552144
O6    O     O_R   0.556370 0.439260 0.616600 -0.593915
O7    O     O_R   0.382640 0.439290 0.322940 -0.629930
O8    O     O_R   0.678360 0.560700 0.616060 -0.635003
O9    O     O_R   0.382640 0.560750 0.444390 -0.558243
O10   O     O_R   0.383400 0.560740 0.616060 -0.629274
O11   O     O_R   0.555060 0.439270 0.322940 -0.611588
O12   O     O_R   0.383950 0.268380 0.445700 -0.648802
O13   O     O_R   0.677590 0.731610 0.615290 -0.630145
C1    C     C_R   0.358946 0.220043 0.361005 0.860211
C2    C     C_R   0.640610 0.780702 0.636914 0.987768
C3    C     C_R   0.359256 0.500901 0.640799 0.830528
C4    C     C_R   0.640572 0.499214 0.359588 0.997947
C5    C     C_R   0.641735 0.504329 0.644186 0.873161
C6    C     C_R   0.354726 0.497434 0.360483 1.042675
C7    C     C_3   0.295035 0.440632 0.209291 -0.407302
H1    H     H_    0.281768 0.365146 0.187469 0.259958
H2    H     H_    0.364261 0.483973 0.208578 0.290918
C8    C     C_3   0.228864 0.425764 0.142376 0.549816
C9    C     C_3   0.190921 0.433017 0.302376 0.321204
C10   C     C_3   0.334186 0.612964 0.340426 0.458014
C11   C     C_3   0.293136 0.497156 0.306130 -0.406486
C12   C     C_3   0.193510 0.495714 0.200121 -0.433879
C13   C     C_3   0.134210 0.447244 0.249311 0.400879
C14   C     C_3   0.282873 0.614437 0.271209 0.309880
C15   C     C_3   0.664928 0.943633 0.659637 0.553299
C16   C     C_3   0.723715 0.065744 0.727266 -0.007750
H3    H     H_    0.681805 0.091380 0.759735 0.149173
C17   C     C_3   0.696169 0.934841 0.792084 0.530987
C18   C     C_3   0.800080 0.940342 0.700146 -0.074598
C19   C     C_3   0.698609 0.897319 0.694217 -0.352873
H4    H     H_    0.821355 0.916635 0.735698 0.168856
C20   C     C_3   0.800616 0.102783 0.801844 -0.238382
C21   C     C_3   0.757140 0.057641 0.855985 0.574004
C22   C     C_3   0.858482 0.061370 0.756459 0.687328
C23   C     C_3   0.751093 0.450411 0.311477 0.282372
C24   C     C_3   0.809181 0.448868 0.245606 0.565298
H5    H     H_    0.678586 0.356481 0.087584 0.250881
C25   C     C_3   0.639387 0.428527 0.201378 0.673609
C26   C     C_3   0.765283 0.609242 0.328327 0.060290
C27   C     C_3   0.698290 0.495726 0.301674 -0.277417
H6    H     H_    0.723475 0.633365 0.316697 0.199429
C28   C     C_3   0.800436 0.499941 0.200508 -0.221195
C29   C     C_3   0.700817 0.434914 0.144017 -0.510141
C30   C     C_3   0.826609 0.612746 0.268997 0.668578
H7    H     H_    0.693007 0.468766 0.111177 0.277449
H8    H     H_    0.377563 0.119761 0.650902 0.205405
C31   C     C_R   0.404532 0.080221 0.529137 -0.094772
H9    H     H_    0.446321 0.058941 0.541550 0.243927
C32   C     C_R   0.387738 0.069814 0.450112 -0.096954
H10   H     H_    0.416056 0.038977 0.401327 0.200444
C33   C     C_R   0.328659 0.090622 0.430863 0.068456
C34   C     C_R   0.288962 0.125209 0.493170 -0.166670
H11   H     H_    0.240886 0.137548 0.476880 0.187256
C35   C     C_R   0.307318 0.138173 0.573880 0.386043
C36   C     C_R   0.364199 0.113413 0.590463 -0.104132
C37   C     C_R   0.236331 0.942171 0.282097 -0.198203
H12   H     H_    0.228876 0.898273 0.308285 0.211934
C38   C     C_R   0.192169 0.891358 0.194070 -0.091252
C39   C     C_R   0.201170 0.947945 0.159658 0.008278
C40   C     C_R   0.254940 0.055416 0.215013 0.280599
C41   C     C_R   0.300354 0.107158 0.304985 -0.178123
C42   C     C_R   0.289742 0.048630 0.338282 -0.012376
C43   C     C_R   0.189791 0.872284 0.000140 0.466244
C44   C     C_R   0.144363 0.833171 0.914205 0.179186
C45   C     C_R   0.061088 0.817780 0.897414 -0.237904
H13   H     H_    0.026637 0.789394 0.832511 0.186273
C46   C     C_R   0.022275 0.840397 0.963585 0.477360
C47   C     C_R   0.068313 0.881351 0.048918 -0.300554
H14   H     H_    0.039866 0.901355 0.101353 0.180898
C48   C     C_R   0.151793 0.898226 0.067445 0.027051
H15   H     H_    0.013832 0.839514 0.658809 0.224074
C49   C     C_R   0.956970 0.691529 0.635236 -0.056932
H16   H     H_    0.997017 0.675150 0.594755 0.241772
C50   C     C_R   0.895673 0.619234 0.650059 0.277019
C51   C     C_R   0.844937 0.643117 0.704802 -0.121172
C52   C     C_R   0.856126 0.739480 0.742116 0.508728
C53   C     C_R   0.916467 0.808274 0.723962 -0.092538
H17   H     H_    0.926384 0.882117 0.753018 0.188099
C54   C     C_R   0.966668 0.784786 0.671282 -0.181367
C55   C     C_R   0.841340 0.570226 0.785554 -0.144379
H18   H     H_    0.913365 0.615877 0.802941 0.174102
C56   C     C_R   0.799330 0.503355 0.810629 -0.044086
C57   C     C_R   0.705340 0.443863 0.787920 0.017313
C58   C     C_R   0.656318 0.459508 0.746395 0.278578
C59   C     C_R   0.697967 0.515019 0.709709 -0.186225
C60   C     C_R   0.792419 0.574981 0.733235 0.030798
C61   C     C_R   0.632501 0.259158 0.731403 0.264769
C62   C     C_R   0.573555 0.174268 0.733630 0.207538
C63   C     C_R   0.538263 0.188882 0.804117 0.099951
C64   C     C_R   0.563275 0.288503 0.872757 0.146660
C65   C     C_R   0.622540 0.373372 0.870123 0.215187
C66   C     C_R   0.655417 0.358356 0.798667 -0.165007
C67   C     C_R   0.370289 0.789218 0.707956 -0.224977
H19   H     H_    0.434347 0.862188 0.738854 0.225667
C68   C     C_R   0.359441 0.720150 0.726448 -0.155102
H20   H     H_    0.414906 0.741839 0.772384 0.199935
C69   C     C_R   0.277518 0.624511 0.687539 -0.060866
C70   C     C_R   0.204283 0.598976 0.630204 0.335565
C71   C     C_R   0.215266 0.671328 0.614030 0.563438
C72   C     C_R   0.298406 0.765676 0.652252 0.511707
C73   C     C_R   0.212414 0.556808 0.772704 -0.193672
H21   H     H_    0.183830 0.600799 0.788377 0.203531
C74   C     C_R   0.195274 0.497936 0.805620 -0.076555
C75   C     C_R   0.233549 0.441407 0.784917 0.021991
C76   C     C_R   0.287674 0.445889 0.732188 -0.153320
H22   H     H_    0.317124 0.402911 0.717376 0.225873
C77   C     C_R   0.303799 0.503607 0.698149 -0.081299
C78   C     C_R   0.265504 0.560238 0.719020 0.023780
C79   C     C_R   0.292062 0.408975 0.879072 -0.261164
H23   H     H_    0.353857 0.484468 0.909371 0.180613
C80   C     C_R   0.284427 0.342814 0.901381 0.537325
C81   C     C_R   0.204864 0.244779 0.860246 0.006705
H24   H     H_    0.198541 0.192797 0.876088 0.210322
C82   C     C_R   0.133967 0.212333 0.797074 -0.131859
H25   H     H_    0.074115 0.135125 0.763745 0.202174
C83   C     C_R   0.141557 0.277976 0.774926 -0.011814
H26   H     H_    0.087061 0.251032 0.724129 0.164633
C84   C     C_R   0.220612 0.376888 0.816117 0.074146
Zn5   Zn    Zn3+2 0.041710 0.413240 0.959030 1.092164
Zn6   Zn    Zn3+2 0.866640 0.413270 0.959030 1.062478
Zn7   Zn    Zn3+2 0.040930 0.586780 0.958260 1.002608
Zn8   Zn    Zn3+2 0.041710 0.586770 0.132560 1.125257
O14   O     O_3   0.997750 0.500010 0.002220 -0.547466
O15   O     O_R   0.942690 0.560750 0.179280 -0.562814
O16   O     O_R   0.114340 0.439270 0.886160 -0.655054
O17   O     O_R   0.820160 0.268410 0.886930 -0.640165
O18   O     O_R   0.113800 0.731630 0.056520 -0.656359
O19   O     O_R   0.819390 0.439310 0.886160 -0.636135
O20   O     O_R   0.115110 0.560720 0.179280 -0.587474
O21   O     O_R   0.941380 0.560750 0.885620 -0.664023
O22   O     O_R   0.115110 0.439270 0.057830 -0.615724
O23   O     O_R   0.942690 0.268390 0.886930 -0.568613
O24   O     O_R   0.114340 0.731630 0.178520 -0.618085
O25   O     O_R   0.820160 0.439310 0.057830 -0.653487
O26   O     O_R   0.113800 0.560730 0.885620 -0.640368
C85   C     C_R   0.857284 0.500598 0.142448 1.044413
C86   C     C_R   0.138756 0.499432 0.861775 0.836431
C87   C     C_R   0.857389 0.219259 0.862241 1.098043
C88   C     C_R   0.137077 0.779440 0.140558 0.845484
C89   C     C_R   0.855912 0.500013 0.862271 0.913927
C90   C     C_R   0.139325 0.499254 0.142418 0.991287
N1    N     N_R   0.270526 0.699572 0.324297 0.244571
O27   O     O_R   0.196300 0.687540 0.336802 -0.250289
O28   O     O_R   0.341199 0.794085 0.367180 -0.335973
N2    N     N_R   0.177576 0.466587 0.390164 0.278184
O29   O     O_R   0.232051 0.488999 0.454286 -0.382477
O30   O     O_R   0.097041 0.436382 0.393739 -0.227892
O31   O     O_3   0.118348 0.518724 0.311588 -0.632057
H27   H     H_    0.065286 0.508962 0.282952 0.402753
O32   O     O_3   0.573975 0.903602 0.652841 -0.671586
H28   H     H_    0.567808 0.943137 0.710240 0.338990
N3    N     N_R   0.668022 0.909703 0.569167 0.285396
O33   O     O_R   0.601060 0.820454 0.502332 -0.281201
O34   O     O_R   0.737152 0.963021 0.553208 -0.230399
O35   O     O_3   0.758391 0.117811 0.686880 -0.615770
H29   H     H_    0.707106 0.104801 0.651608 0.418343
O36   O     O_3   0.607197 0.895149 0.792425 -0.801257
H30   H     H_    0.606993 0.909085 0.851523 0.379152
O37   O     O_3   0.709175 0.098663 0.899702 -0.717739
H31   H     H_    0.651292 0.064728 0.857894 0.355878
N4    N     N_R   0.819332 0.895678 0.616694 0.273873
O38   O     O_R   0.899464 0.917041 0.621215 -0.392664
O39   O     O_R   0.757081 0.822725 0.540207 -0.315910
O40   O     O_3   0.886224 0.094507 0.701118 -0.628914
H32   H     H_    0.940341 0.095894 0.691744 0.372720
O41   O     O_3   0.936436 0.103618 0.820090 -0.733568
H33   H     H_    0.923190 0.064047 0.845749 0.384057
O42   O     O_3   0.729784 0.896655 0.822838 -0.726914
H34   H     H_    0.683055 0.822394 0.794718 0.356117
O43   O     O_3   0.826559 0.091384 0.922759 -0.653988
H35   H     H_    0.799765 0.075234 0.963862 0.423618
N5    N     N_R   0.689727 0.344011 0.287979 0.230952
O44   O     O_R   0.724010 0.294857 0.284766 -0.240148
O45   O     O_R   0.612138 0.313135 0.299619 -0.342200
N6    N     N_R   0.806574 0.513999 0.405241 0.252858
O46   O     O_R   0.887034 0.596788 0.439307 -0.341217
O47   O     O_R   0.774064 0.486466 0.456656 -0.308512
O48   O     O_3   0.899854 0.502277 0.290971 -0.685351
H36   H     H_    0.905054 0.460462 0.307333 0.413558
O49   O     O_3   0.781930 0.347347 0.177734 -0.678124
H37   H     H_    0.716403 0.301958 0.148981 0.377126
O50   O     O_3   0.579491 0.323448 0.168507 -0.682678
H38   H     H_    0.518665 0.307072 0.167590 0.415529
O51   O     O_3   0.278017 0.461216 0.094977 -0.686206
H39   H     H_    0.236729 0.430012 0.038225 0.358666
O52   O     O_3   0.815610 0.680011 0.418563 -0.644966
H40   H     H_    0.842820 0.750069 0.432748 0.399569
O53   O     O_3   0.918652 0.683068 0.318640 -0.689387
H41   H     H_    0.932230 0.669287 0.359888 0.425366
O54   O     O_3   0.809963 0.647157 0.221882 -0.727243
H42   H     H_    0.832234 0.720521 0.265185 0.376375
O55   O     O_3   0.591800 0.468233 0.194563 -0.738917
H43   H     H_    0.550013 0.420508 0.133421 0.409445
N7    N     N_R   0.159969 0.313322 0.077352 0.222823
O56   O     O_R   0.186646 0.252671 0.040505 -0.313917
O57   O     O_R   0.080161 0.277577 0.036587 -0.281380
N8    N     N_R   0.266091 0.172781 0.637309 0.213017
O58   O     O_R   0.287367 0.190788 0.714057 -0.364842
O59   O     O_R   0.206878 0.186367 0.618874 -0.419132
N9    N     N_R   0.260019 0.111037 0.179269 0.219121
O60   O     O_R   0.206911 0.140814 0.187449 -0.294733
O61   O     O_R   0.309153 0.120016 0.129191 -0.290731
O62   O     O_3   0.269639 0.884425 0.020514 -0.688145
H44   H     H_    0.274715 0.837108 0.965929 0.361879
N10   N     N_R   0.182814 0.812423 0.844592 0.194782
O63   O     O_R   0.267221 0.876133 0.860487 -0.312727
O64   O     O_R   0.131206 0.738869 0.763122 -0.406494
O65   O     O_3   0.940192 0.823341 0.943224 -0.717033
H45   H     H_    0.921718 0.842497 0.996652 0.368513
N11   N     N_R   0.161795 0.324577 0.260720 0.212454
O66   O     O_R   0.115085 0.250711 0.178166 -0.260844
O67   O     O_R   0.186962 0.302162 0.308035 -0.321966
N12   N     N_R   0.886468 0.522727 0.610118 0.247169
O68   O     O_R   0.953568 0.517150 0.593066 -0.299766
O69   O     O_R   0.809161 0.438119 0.582898 -0.272354
O70   O     O_3   0.811977 0.771242 0.798048 -0.696680
H46   H     H_    0.773533 0.718852 0.808859 0.351010
N13   N     N_R   0.566129 0.424688 0.746409 0.241032
O71   O     O_R   0.505461 0.328143 0.712235 -0.404731
O72   O     O_R   0.544508 0.490340 0.780592 -0.350377
N14   N     N_R   0.667714 0.243849 0.659324 0.247533
O73   O     O_R   0.615203 0.169470 0.578347 -0.299613
O74   O     O_R   0.753494 0.297311 0.674677 -0.342955
O75   O     O_3   0.551359 0.078357 0.665061 -0.714171
H47   H     H_    0.505948 0.024440 0.671246 0.370408
N15   N     N_R   0.475490 0.102416 0.805261 0.230534
O76   O     O_R   0.502943 0.058905 0.824642 -0.405603
O77   O     O_R   0.393912 0.076298 0.798833 -0.267095
N16   N     N_R   0.528503 0.303198 0.945031 0.235101
O78   O     O_R   0.516932 0.250216 0.976703 -0.296707
O79   O     O_R   0.503439 0.365527 0.976458 -0.295473
N17   N     N_R   0.043974 0.349791 0.190357 0.244566
O80   O     O_R   0.994933 0.342525 0.132964 -0.352697
O81   O     O_R   0.999954 0.294816 0.219707 -0.215883
N18   N     N_R   0.651767 0.475578 0.941200 0.240595
O82   O     O_R   0.603368 0.509693 0.942618 -0.267784
O83   O     O_R   0.731885 0.538875 0.997811 -0.376936
O84   O     O_3   0.307123 0.833609 0.634019 -0.607984
H48   H     H_    0.370258 0.893623 0.661881 0.357241
O85   O     O_3   0.121801 0.505775 0.590176 -0.665053
H49   H     H_    0.127427 0.456575 0.594100 0.370986
O86   O     O_3   0.146363 0.652901 0.561072 -0.619011
H50   H     H_    0.091665 0.584029 0.537584 0.418173
O87   O     O_3   0.353025 0.371836 0.963095 -0.629830
H51   H     H_    0.403439 0.443638 0.987337 0.387606
N19   N     N_R   0.331403 0.671932 0.431232 0.230357
O88   O     O_R   0.258076 0.659937 0.446464 -0.256332
O89   O     O_R   0.405087 0.743545 0.498177 -0.271556
O90   O     O_3   0.425459 0.659188 0.347445 -0.685479
H52   H     H_    0.452948 0.733019 0.372470 0.417824
N20   N     N_R   0.336967 0.645636 0.218667 0.243118
O91   O     O_R   0.309660 0.669858 0.174497 -0.374106
O92   O     O_R   0.409704 0.648933 0.212844 -0.259748

loop_
_geom_bond_atom_site_label_1
_geom_bond_atom_site_label_2
_geom_bond_distance
_ccdc_geom_bond_type
C23   C27   1.606246 S    
C1    C41   1.465012 S    
O11   C4    1.288342 A    
N7    O56   1.303009 A    
N19   O89   1.302807 A    
C55   C60   1.381757 A    
C58   C59   1.412118 A    
H5    C29   1.110461 S    
C13   N17   1.492718 S    
N15   O77   1.301069 A    
O55   H43   0.990818 S    
C16   H3    1.109571 S    
C7    C8    1.553706 S    
C37   H12   1.085849 S    
C15   N3    1.480517 S    
C4    C27   1.500955 S    
C62   C63   1.416679 A    
O86   H50   0.988453 S    
C25   C27   1.592276 S    
C43   O62   1.381125 S    
C52   C53   1.398480 A    
O20   C90   1.279421 A    
N7    O57   1.297700 A    
O9    C6    1.277978 A    
O85   H49   0.989273 S    
O4    C3    1.288410 A    
C45   C46   1.396438 A    
C50   C51   1.422017 A    
C8    N7    1.489378 S    
C57   C58   1.396028 A    
O35   H29   0.992637 S    
C49   H16   1.082340 S    
C7    H2    1.113556 S    
C15   C16   1.589980 S    
C43   C48   1.409172 A    
Zn5   O16   1.952957 S    
O87   H51   0.991869 S    
C67   C68   1.390387 A    
N8    O59   1.301199 A    
C82   C83   1.397593 A    
N4    O38   1.301661 A    
C28   C85   1.491649 S    
C32   C33   1.404217 A    
O8    C5    1.278253 A    
H15   C54   1.082456 S    
C53   C54   1.391094 A    
C71   C72   1.401266 A    
C25   O55   1.416209 S    
O25   C85   1.291070 A    
N17   O80   1.302073 A    
C20   C21   1.579527 S    
C17   C21   1.593902 S    
C34   C35   1.406203 A    
C79   H23   1.083594 S    
C74   C75   1.417350 A    
Zn3   O8    1.962146 S    
C73   C74   1.396634 A    
C49   C50   1.403247 A    
C80   O87   1.377443 S    
C50   N12   1.441244 S    
C22   O41   1.420299 S    
C15   C19   1.600454 S    
O31   H27   0.992827 S    
C63   N15   1.431008 S    
N13   O71   1.298198 A    
C10   C14   1.609033 S    
N18   O83   1.300412 A    
C39   C40   1.394622 A    
C37   C38   1.386447 A    
C35   N8    1.436373 S    
N15   O76   1.300023 A    
C31   C36   1.393731 A    
C41   C42   1.420336 A    
C8    O51   1.409419 S    
C61   N14   1.439688 S    
N8    O58   1.300680 A    
C55   C56   1.391376 A    
Zn7   O26   1.941904 S    
Zn5   O23   1.944360 S    
C23   N6    1.488776 S    
N2    O30   1.302460 A    
C34   H11   1.083312 S    
C65   N18   1.432915 S    
Zn6   O14   1.962443 S    
C15   O32   1.416358 S    
C39   C48   1.483598 S    
C26   H6    1.117073 S    
O54   H42   0.993607 S    
Zn6   O17   1.933321 S    
C61   C66   1.412653 A    
C61   C62   1.405116 A    
C9    N2    1.492567 S    
C5    C59   1.461428 S    
O19   C89   1.276242 A    
O36   H30   0.993386 S    
C67   H19   1.079272 S    
Zn7   O18   1.943867 S    
C64   N16   1.439061 S    
O16   C86   1.273840 A    
Zn7   O21   1.961850 S    
Zn5   O14   1.940403 S    
C73   C78   1.388027 A    
C68   C69   1.400256 A    
C68   H20   1.083643 S    
N3    O34   1.302119 A    
C29   H7    1.112757 S    
C18   N4    1.481349 S    
C79   C80   1.408508 A    
C46   C47   1.402453 A    
N5    O45   1.301551 A    
C44   C45   1.403584 A    
N18   O82   1.300447 A    
C26   C30   1.566668 S    
O2    C1    1.295200 A    
N16   O79   1.299063 A    
C13   O31   1.405710 S    
C45   H13   1.080727 S    
C70   O85   1.383399 S    
C71   O86   1.382490 S    
C8    C12   1.620461 S    
C28   C29   1.559621 S    
C30   O54   1.410982 S    
C6    C11   1.506877 S    
O10   C3    1.274291 A    
C82   H25   1.080201 S    
C51   C52   1.427340 A    
Zn4   O2    1.937127 S    
C14   N1    1.497071 S    
C56   C57   1.412256 A    
C3    C77   1.464062 S    
C12   C90   1.504129 S    
N10   O63   1.301432 A    
C24   O48   1.406731 S    
O52   H40   0.993076 S    
C33   C42   1.478747 S    
Zn8   O15   1.945568 S    
C32   H10   1.083370 S    
C47   H14   1.083716 S    
C31   C32   1.394018 A    
O21   C89   1.286729 A    
N14   O73   1.300240 A    
O6    C5    1.287942 A    
C73   H21   1.085252 S    
C33   C34   1.403355 A    
C28   C30   1.576656 S    
C51   C60   1.489614 S    
N5    O44   1.303025 A    
Zn7   O14   1.962797 S    
C38   C39   1.412343 A    
C10   C11   1.587817 S    
Zn3   O5    1.952634 S    
C83   C84   1.402782 A    
O24   C88   1.298661 A    
N11   O67   1.302257 A    
C58   N13   1.438801 S    
O48   H36   0.993790 S    
O32   H28   0.986984 S    
C20   C87   1.511719 S    
C9    C13   1.621986 S    
C21   O43   1.409064 S    
N1    O27   1.298150 A    
C62   O75   1.382819 S    
H8    C36   1.082793 S    
N20   O92   1.302663 A    
C12   C14   1.655280 S    
N9    O60   1.299861 A    
N2    O29   1.297504 A    
C47   C48   1.399480 A    
Zn6   O19   1.962002 S    
C59   C60   1.418220 A    
C69   C70   1.422531 A    
C7    H1    1.109744 S    
Zn4   O7    1.952711 S    
N14   O74   1.300270 A    
C81   H24   1.082271 S    
O18   C88   1.281630 A    
Zn8   O24   1.937081 S    
C2    C19   1.512494 S    
C57   C66   1.486742 S    
O42   H34   0.992846 S    
C75   C84   1.478536 S    
O49   H37   0.988872 S    
O26   C86   1.287621 A    
O37   H31   0.986674 S    
N13   O72   1.301646 A    
O51   H39   0.988500 S    
C9    N11   1.491282 S    
O17   C87   1.288660 A    
C26   O52   1.406117 S    
C67   C72   1.404428 A    
C83   H26   1.082816 S    
Zn1   O1    1.940403 S    
C44   N10   1.437259 S    
C21   O37   1.418843 S    
Zn2   O1    1.962649 S    
Zn1   O9    1.970748 S    
C31   H9    1.079874 S    
C70   C71   1.417721 A    
N19   O88   1.296879 A    
Zn2   O6    1.961951 S    
O22   C90   1.286807 A    
C24   C28   1.588828 S    
C52   O70   1.381980 S    
Zn2   O12   1.943968 S    
C23   C24   1.612134 S    
C53   H17   1.081506 S    
C46   O65   1.378337 S    
C56   C89   1.452552 S    
C75   C76   1.388941 A    
O75   H47   0.986781 S    
C24   O49   1.419776 S    
O50   H38   0.992236 S    
N11   O66   1.298606 A    
N16   O78   1.301023 A    
O53   H41   0.982600 S    
O70   H46   0.987195 S    
N12   O69   1.301507 A    
Zn1   O3    1.944461 S    
C12   C13   1.625144 S    
Zn2   O4    1.941860 S    
C20   C22   1.591525 S    
C10   O90   1.413056 S    
C43   C44   1.419792 A    
Zn3   O1    1.962444 S    
C76   C77   1.398329 A    
O84   H48   0.989509 S    
C76   H22   1.084810 S    
C25   C29   1.544330 S    
Zn6   O25   1.952634 S    
O43   H35   0.993589 S    
C17   O42   1.417385 S    
O3    C2    1.286203 A    
C16   O35   1.407650 S    
N6    O47   1.302247 A    
C64   C65   1.410515 A    
C30   O53   1.414569 S    
Zn4   O11   1.945572 S    
C9    C11   1.614138 S    
O90   H52   0.994022 S    
Zn5   O22   1.970647 S    
C18   C22   1.571074 S    
C69   C78   1.482605 S    
O41   H33   0.989158 S    
C37   C42   1.382545 A    
N20   O91   1.302846 A    
C18   H4    1.107218 S    
C22   O40   1.411556 S    
O5    C4    1.293530 A    
C18   C19   1.588707 S    
C17   O36   1.412331 S    
N3    O33   1.301790 A    
C26   C27   1.581614 S    
Zn4   O1    1.976241 S    
C23   N5    1.489109 S    
C14   N20   1.497009 S    
O7    C6    1.287646 A    
C65   C66   1.407854 A    
O13   C2    1.284879 A    
C74   C86   1.461910 S    
C77   C78   1.418907 A    
Zn3   O13   1.933322 S    
C40   N9    1.435665 S    
N10   O64   1.301030 A    
N1    O28   1.303197 A    
C25   O50   1.414643 S    
C40   C41   1.419114 A    
C16   C20   1.571216 S    
C7    C11   1.569880 S    
C81   C82   1.395481 A    
C49   C54   1.391189 A    
O65   H45   0.991645 S    
O23   C87   1.281495 A    
O40   H32   0.990422 S    
C35   C36   1.405801 A    
C17   C19   1.595681 S    
O15   C85   1.287137 A    
O62   H44   0.989530 S    
C72   O84   1.379442 S    
O12   C1    1.291616 A    
C63   C64   1.411942 A    
C79   C84   1.403198 A    
C38   C88   1.451837 S    
Zn8   O20   1.952708 S    
N9    O61   1.301047 A    
C80   C81   1.398576 A    
C10   N19   1.493165 S    
N6    O46   1.299139 A    
Zn1   O10   1.953058 S    
N4    O39   1.300436 A    
N17   O81   1.302428 A    
C55   H18   1.082266 S    
N12   O68   1.300740 A    
Zn8   O14   1.976241 S    
