data_mof_unit_54920.cif
_audit_creation_date              2012-12-10T17:08:42-0500
_audit_creation_method            fapswitch 2.2
_symmetry_space_group_name_H-M    P1
_symmetry_Int_Tables_number       1
_space_group_crystal_system       triclinic
_cell_length_a                    27.655442
_cell_length_b                    11.016906
_cell_length_c                    9.887734
_cell_angle_alpha                 111.978032
_cell_angle_beta                  98.940887
_cell_angle_gamma                 90.140471
_cell_volume                      2753.64472716

loop_
_atom_site_label
_atom_site_type_symbol
_atom_type_description
_atom_site_fract_x
_atom_site_fract_y
_atom_site_fract_z
_atom_type_partial_charge
C1    C     C_R   0.494775 0.254015 0.439728 0.835756
C2    C     C_R   0.505073 0.745971 0.560321 0.837178
C3    C     C_R   0.097975 0.485749 0.433782 -0.088442
C4    C     C_R   0.896261 0.471490 0.451213 -0.090627
C5    C     C_R   0.124105 0.378152 0.442736 0.009106
C6    C     C_R   0.875120 0.592754 0.511533 0.008766
C7    C     C_R   0.098747 0.264168 0.433015 -0.155834
C8    C     C_R   0.903530 0.710659 0.554329 -0.159011
C9    C     C_R   0.123461 0.602829 0.447661 -0.085902
C10   C     C_R   0.868570 0.351969 0.416356 -0.083606
C11   C     C_R   0.354055 0.503525 0.499754 -0.038502
C12   C     C_R   0.645800 0.495596 0.496742 -0.038272
C13   C     C_R   0.968596 0.352178 0.381177 -0.041217
C14   C     C_R   0.020347 0.588125 0.423768 -0.043130
C15   C     C_R   0.972260 0.590748 0.458026 0.071813
C16   C     C_R   0.020680 0.359024 0.399533 0.070651
C17   C     C_R   0.945664 0.471183 0.430187 0.052635
C18   C     C_R   0.046329 0.477192 0.417045 0.051739
C19   C     C_R   0.939182 0.232327 0.323763 0.101771
C20   C     C_R   0.043412 0.690917 0.397219 0.100491
C21   C     C_R   0.891793 0.230798 0.362452 0.163972
C22   C     C_R   0.095917 0.703854 0.419146 0.142096
C23   C     C_R   0.407356 0.500812 0.500459 0.786177
C24   C     C_R   0.592652 0.499349 0.499323 0.790198
C25   C     C_R   0.047921 0.255542 0.414054 -0.245179
C26   C     C_R   0.951609 0.709541 0.529891 -0.249691
C27   C     C_2   0.495974 0.114237 0.404644 -0.380898
C28   C     C_2   0.503442 0.885640 0.595673 -0.378076
C29   C     C_2   0.487379 0.060858 0.501506 0.193132
C30   C     C_2   0.512511 0.939999 0.500120 0.185509
C31   C     C_2   0.499620 0.525405 0.089656 -0.049519
C32   C     C_2   0.489406 0.520787 0.929872 -0.048801
C33   C     C_R   0.175297 0.387251 0.463239 0.527700
C34   C     C_R   0.825932 0.593860 0.528741 0.524874
C35   C     C_R   0.175574 0.610164 0.484471 0.538992
C36   C     C_R   0.818080 0.359770 0.430382 0.535769
C37   C     C_R   0.272227 0.509598 0.372183 -0.126026
C38   C     C_R   0.729765 0.514447 0.624046 -0.107330
C39   C     C_R   0.322696 0.508205 0.375683 -0.214523
C40   C     C_R   0.679535 0.520361 0.627683 -0.221032
C41   C     C_R   0.333872 0.500903 0.620775 -0.226297
C42   C     C_R   0.663290 0.465303 0.362456 -0.222203
C43   C     C_R   0.283070 0.501293 0.616483 -0.093406
C44   C     C_R   0.713446 0.459066 0.359121 -0.112257
C45   C     C_R   0.252136 0.505461 0.491876 0.367163
C46   C     C_R   0.746808 0.483358 0.489680 0.370674
Cu1   Cu    Cu3+1 0.508480 0.521810 0.644910 0.933330
Cu2   Cu    Cu3+1 0.491520 0.478190 0.355090 0.935350
N1    N     N_R   0.199808 0.501683 0.483150 -0.463115
N2    N     N_R   0.798407 0.478833 0.485338 -0.465370
N3    N     N_2   0.478780 0.445430 0.137360 -0.125404
N4    N     N_2   0.521220 0.554570 0.862640 -0.129458
O1    O     O_R   0.504520 0.332330 0.577400 -0.575149
O2    O     O_R   0.495480 0.667670 0.422600 -0.581159
O3    O     O_R   0.490210 0.295500 0.332650 -0.568731
O4    O     O_R   0.509790 0.704500 0.667350 -0.563019
O5    O     O_R   0.437420 0.518430 0.622370 -0.591255
O6    O     O_R   0.562580 0.481570 0.377630 -0.585335
O7    O     O_R   0.423110 0.481600 0.377610 -0.576943
O8    O     O_R   0.576890 0.518400 0.622390 -0.589458
O9    O     O_2   0.200538 0.282484 0.463130 -0.549771
O10   O     O_2   0.805279 0.709139 0.585284 -0.550577
O11   O     O_2   0.788072 0.250673 0.385590 -0.553098
O12   O     O_2   0.202310 0.724229 0.525501 -0.554848
H1    H     H_    0.357204 0.496999 0.717559 0.142995
H2    H     H_    0.638266 0.445856 0.259798 0.153774
H3    H     H_    0.486351 0.937887 0.690634 0.141960
H4    H     H_    0.512496 0.060830 0.308781 0.139391
H5    H     H_    0.452911 0.487897 0.867112 0.127521
H6    H     H_    0.526124 0.600055 0.169755 0.142453
C47   C     C_3   0.572548 0.586811 0.934974 -0.116207
C48   C     C_3   0.587158 0.730052 0.969544 -0.804873
H7    H     H_    0.586832 0.747442 0.866005 0.270911
H8    H     H_    0.561500 0.794670 0.035280 0.234035
H9    H     H_    0.624835 0.755551 0.034570 0.214029
H10   H     H_    0.581696 0.567123 0.037361 0.119845
H11   H     H_    0.596490 0.522488 0.862691 0.187419
C49   C     C_3   0.436326 0.360941 0.037929 -0.154279
C50   C     C_3   0.424880 0.239864 0.069563 -0.732385
H12   H     H_    0.457681 0.181834 0.068522 0.246167
H13   H     H_    0.410358 0.265713 0.174256 0.265361
H14   H     H_    0.395695 0.176259 0.980261 0.194083
H15   H     H_    0.403401 0.419165 0.042923 0.155448
H16   H     H_    0.443057 0.319360 0.922131 0.135246
H17   H     H_    0.267735 0.497857 0.709390 0.135849
H18   H     H_    0.726503 0.435770 0.255085 0.132334
H19   H     H_    0.118146 0.181815 0.443070 0.178162
H20   H     H_    0.888629 0.804587 0.606112 0.179391
H21   H     H_    0.667196 0.544357 0.732813 0.150767
H22   H     H_    0.337110 0.510849 0.280968 0.157329
H23   H     H_    0.755456 0.533879 0.725422 0.133558
H24   H     H_    0.248513 0.512349 0.275427 0.127755
C51   C     C_3   0.869363 0.101604 0.356963 -0.342496
C52   C     C_3   0.866721 0.106116 0.512197 -0.782701
H25   H     H_    0.904258 0.122018 0.577923 0.226438
H26   H     H_    0.844328 0.185683 0.571768 0.275720
H27   H     H_    0.850104 0.011225 0.504050 0.248455
H28   H     H_    0.833209 0.073333 0.283783 0.245350
H29   H     H_    0.891523 0.017824 0.308392 0.188110
C53   C     C_3   0.121368 0.822431 0.407904 -0.312431
C54   C     C_3   0.146555 0.784412 0.271227 -0.765212
H30   H     H_    0.179279 0.728772 0.281014 0.271215
H31   H     H_    0.121210 0.722518 0.169900 0.235503
H32   H     H_    0.158509 0.874598 0.257064 0.240801
H33   H     H_    0.095713 0.897907 0.403160 0.176523
H34   H     H_    0.147450 0.877139 0.510443 0.238272
C55   C     C_3   0.954919 0.112963 0.202055 -0.435231
C56   C     C_3   0.917997 0.070031 0.057649 -0.814488
H35   H     H_    0.882281 0.033284 0.070081 0.251332
H36   H     H_    0.912037 0.153546 0.021166 0.256835
H37   H     H_    0.932574 0.989565 0.970067 0.240935
H38   H     H_    0.989832 0.135940 0.171975 0.225297
H39   H     H_    0.961357 0.029941 0.238901 0.194855
C57   C     C_3   0.011388 0.773441 0.327453 -0.410444
C58   C     C_3   0.019611 0.752907 0.170826 -0.822851
H40   H     H_    0.048390 0.823944 0.173138 0.250474
H41   H     H_    0.029195 0.650920 0.111293 0.261722
H42   H     H_    0.985544 0.770710 0.106779 0.236809
H43   H     H_    0.971933 0.745076 0.312167 0.222218
H44   H     H_    0.016138 0.879075 0.400273 0.174960
H45   H     H_    0.030277 0.168755 0.416293 0.142635
H46   H     H_    0.972703 0.802564 0.568172 0.145454
C59   C     C_3   0.550975 0.883721 0.400256 -0.397223
C60   C     C_3   0.597716 0.974579 0.449961 -0.824859
H47   H     H_    0.590793 0.071647 0.444232 0.250749
H48   H     H_    0.613902 0.989244 0.565491 0.258021
H49   H     H_    0.624896 0.928998 0.377275 0.248854
H50   H     H_    0.563472 0.789161 0.403238 0.210177
H51   H     H_    0.535399 0.863173 0.282948 0.187252
C61   C     C_3   0.449472 0.118152 0.603119 -0.398575
C62   C     C_3   0.402164 0.029463 0.553073 -0.831045
H52   H     H_    0.385554 0.018281 0.438946 0.259497
H53   H     H_    0.408542 0.930802 0.554839 0.252288
H54   H     H_    0.375584 0.074805 0.628058 0.247079
H55   H     H_    0.465269 0.136229 0.719643 0.190883
H56   H     H_    0.437680 0.214155 0.603109 0.212435

loop_
_geom_bond_atom_site_label_1
_geom_bond_atom_site_label_2
_ccdc_geom_bond_type
Cu2   O3    S    
C38   C40   A    
C51   C52   S    
C27   C29   D    
C8    C26   A    
C55   H38   S    
C14   C18   A    
C61   H55   S    
C62   H54   S    
C57   C58   S    
C59   C60   S    
C23   O7    A    
C53   H33   S    
C54   H30   S    
C60   H48   S    
C19   C21   A    
C47   H10   S    
C9    C35   A    
C9    C22   A    
C33   N1    A    
C58   H40   S    
C34   O10   S    
C56   H35   S    
C3    C18   A    
C23   O5    A    
C1    O1    A    
C32   N4    D    
C12   C42   A    
C27   H4    S    
Cu1   O8    S    
C49   H15   S    
Cu2   N3    S    
C55   H39   S    
Cu1   Cu2   S    
C58   H41   S    
C5    C33   A    
C35   N1    A    
C55   C56   S    
C35   O12   S    
C40   H21   S    
C36   O11   S    
C51   H29   S    
C39   H22   S    
C57   H43   S    
Cu1   O1    S    
C1    C27   S    
C54   H31   S    
C59   H51   S    
C41   C43   A    
C42   C44   A    
C48   H9    S    
C44   H18   S    
C44   C46   A    
C31   H6    S    
C10   C21   A    
C7    H19   S    
C34   N2    A    
C22   C53   S    
C13   C19   A    
C43   H17   S    
C24   O6    A    
C14   C20   A    
C28   H3    S    
C4    C6    A    
C2    O2    A    
Cu2   O2    S    
C49   C50   S    
C15   C26   A    
C41   H1    S    
C52   H27   S    
C3    C5    A    
C38   H23   S    
C6    C34   A    
C8    H20   S    
C12   C40   A    
C52   H26   S    
C29   C30   S    
C3    C9    A    
Cu1   O5    S    
C31   C32   S    
C45   N1    S    
C24   O8    A    
C58   H42   S    
C11   C39   A    
C43   C45   A    
C32   H5    S    
C60   H49   S    
C4    C17   A    
C48   H8    S    
C20   C22   A    
C54   H32   S    
C37   C45   A    
C62   H52   S    
C47   H11   S    
C36   N2    A    
Cu2   O7    S    
C5    C7    A    
C16   C25   A    
C15   C17   A    
C12   C24   S    
C37   H24   S    
C61   H56   S    
C4    C10   A    
C31   N3    D    
C48   H7    S    
C62   H53   S    
C50   H14   S    
C6    C8    A    
C50   H13   S    
Cu2   O6    S    
Cu1   N4    S    
C46   N2    S    
C53   H34   S    
C7    C25   A    
C56   H37   S    
C13   C17   A    
C28   C30   D    
C61   C62   S    
C1    O3    A    
N3    C49   S    
C47   C48   S    
C37   C39   A    
N4    C47   S    
C2    O4    A    
C20   C57   S    
C59   H50   S    
C10   C36   A    
C21   C51   S    
C33   O9    S    
C11   C23   S    
C53   C54   S    
C56   H36   S    
C11   C41   A    
C52   H25   S    
C38   C46   A    
C50   H12   S    
C29   C61   S    
C49   H16   S    
C30   C59   S    
C16   C18   A    
C13   C16   A    
C42   H2    S    
C14   C15   A    
Cu1   O4    S    
C2    C28   S    
C26   H46   S    
C25   H45   S    
C51   H28   S    
C57   H44   S    
C60   H47   S    
C19   C55   S    
