data_mof_unit_25769.cif
_audit_creation_date              2012-12-10T16:56:28-0500
_audit_creation_method            fapswitch 2.2
_symmetry_space_group_name_H-M    P1
_symmetry_Int_Tables_number       1
_space_group_crystal_system       triclinic
_cell_length_a                    7.805541
_cell_length_b                    8.56607
_cell_length_c                    15.718799
_cell_angle_alpha                 91.483269
_cell_angle_beta                  85.329057
_cell_angle_gamma                 93.445305
_cell_volume                      1045.38647895

loop_
_atom_site_label
_atom_site_type_symbol
_atom_type_description
_atom_site_fract_x
_atom_site_fract_y
_atom_site_fract_z
_atom_type_partial_charge
C1    C     C_R   0.545497 0.794554 0.497876 0.950115
C2    C     C_3   0.366791 0.401198 0.030815 -0.418100
C3    C     C_1   0.504343 0.500374 0.750471 -0.116424
C4    C     C_1   0.495657 0.499626 0.249529 -0.116425
C5    C     C_3   0.353311 0.548022 0.977383 0.354876
C6    C     C_3   0.646689 0.451978 0.022617 0.354882
C7    C     C_3   0.504947 0.500954 0.916367 -0.140132
C8    C     C_3   0.495053 0.499047 0.083633 -0.140128
C9    C     C_1   0.505529 0.500604 0.825639 0.159045
C10   C     C_1   0.494471 0.499396 0.174361 0.159045
C11   C     C_R   0.454503 0.205446 0.502124 0.950115
C12   C     C_R   0.501397 0.500263 0.661821 0.876247
C13   C     C_R   0.498603 0.499737 0.338178 0.876247
C14   C     C_2   0.569519 0.957964 0.496582 -0.347185
C15   C     C_2   0.430481 0.042036 0.503417 -0.347185
C16   C     C_3   0.478321 0.644774 0.030823 0.654627
C17   C     C_3   0.521679 0.355226 0.969178 0.654627
C18   C     C_3   0.633209 0.598802 0.969185 -0.418081
F1    F     F_    0.451520 0.792879 0.064399 -0.594593
F2    F     F_    0.548479 0.207121 0.935601 -0.594594
H1    H     H_    0.742103 0.677575 0.943329 0.230456
H2    H     H_    0.257896 0.322425 0.056671 0.230454
H3    H     H_    0.701022 0.008553 0.489994 0.192857
H4    H     H_    0.298977 0.991447 0.510005 0.192857
H5    H     H_    0.872179 0.378229 0.996133 0.365104
H6    H     H_    0.127816 0.621751 0.003875 0.365088
H7    H     H_    0.935698 0.299889 0.394892 0.342639
H8    H     H_    0.064301 0.700111 0.605108 0.342639
N1    N     N_2   0.950320 0.457950 0.477300 0.180078
N2    N     N_2   0.049680 0.542050 0.522700 0.180078
O1    O     O_R   0.389250 0.738570 0.505570 -0.636609
O2    O     O_3   0.200649 0.600588 0.950648 -0.700362
O3    O     O_3   0.029642 0.355589 0.424277 -0.647734
O4    O     O_3   0.970358 0.644410 0.575723 -0.647734
O5    O     O_R   0.610750 0.261430 0.494430 -0.636609
O6    O     O_R   0.678390 0.711630 0.491020 -0.576813
O7    O     O_R   0.321610 0.288370 0.508980 -0.576813
O8    O     O_R   0.355460 0.513480 0.630490 -0.622640
O9    O     O_R   0.644540 0.486520 0.369510 -0.622639
O10   O     O_R   0.644600 0.486540 0.615950 -0.570252
O11   O     O_R   0.355400 0.513460 0.384050 -0.570252
O12   O     O_3   0.799350 0.399413 0.049353 -0.700395
Zn1   Zn    Zn3+2 0.306940 0.517990 0.509710 1.064812
Zn2   Zn    Zn3+2 0.693060 0.482010 0.490290 1.064812

loop_
_geom_bond_atom_site_label_1
_geom_bond_atom_site_label_2
_ccdc_geom_bond_type
H5    O12   S    
C12   O10   A    
H6    O2    S    
N1    N2    D    
C3    C9    T    
C1    C14   S    
C18   H1    S    
O10   Zn2   S    
C5    O2    S    
C7    C9    S    
C7    C18   S    
C13   O11   A    
H8    O4    S    
O8    Zn1   S    
C8    C16   S    
C2    H2    S    
H7    O3    S    
C2    C17   S    
O5    Zn2   S    
O11   Zn1   S    
O9    Zn2   S    
O1    Zn1   S    
C16   F1    S    
C16   C18   S    
C15   H4    S    
C14   H3    S    
C5    C7    S    
N1    Zn2   S    
C12   O8    A    
C6    C18   S    
N2    Zn1   S    
C13   O9    A    
C2    C5    S    
O6    Zn2   S    
N2    O4    S    
C4    C10   T    
N1    O3    S    
C1    O1    A    
C17   F2    S    
C8    C10   S    
C6    O12   S    
C4    C13   S    
C11   O7    A    
C6    C17   S    
C14   C15   D    
C5    C16   S    
C6    C8    S    
C3    C12   S    
C11   C15   S    
C11   O5    A    
O7    Zn1   S    
C2    C8    S    
C1    O6    A    
C7    C17   S    
