data_mof_unit_49194.cif
_audit_creation_date              2012-12-11T15:53:39-0500
_audit_creation_method            fapswitch 2.2
_symmetry_space_group_name_H-M    P1
_symmetry_Int_Tables_number       1
_space_group_crystal_system       triclinic
_cell_length_a                    6.930637
_cell_length_b                    14.537055
_cell_length_c                    15.972479
_cell_angle_alpha                 90.50136
_cell_angle_beta                  89.898816
_cell_angle_gamma                 89.91072
_cell_volume                      1609.1779395

loop_
_atom_site_label
_atom_site_type_symbol
_atom_type_description
_atom_site_fract_x
_atom_site_fract_y
_atom_site_fract_z
_atom_type_partial_charge
O1    O     O_R   0.361600 0.167310 0.164620 -0.534794
O2    O     O_R   0.638400 0.832690 0.835380 -0.534794
O3    O     O_R   0.691080 0.157570 0.338750 -0.548569
O4    O     O_R   0.308920 0.842430 0.661250 -0.548569
O5    O     O_R   0.861410 0.336420 0.339360 -0.544007
O6    O     O_R   0.138590 0.663580 0.660640 -0.544007
C1    C     C_R   0.522009 0.135185 0.367470 0.670900
C2    C     C_R   0.477991 0.864815 0.632530 0.670900
O7    O     O_R   0.691320 0.156280 0.165240 -0.506461
O8    O     O_R   0.308680 0.843720 0.834760 -0.506461
O9    O     O_R   0.861640 0.335130 0.164600 -0.535025
O10   O     O_R   0.138360 0.664870 0.835400 -0.535025
C3    C     C_R   0.523222 0.135096 0.135094 0.778450
C4    C     C_R   0.476778 0.864904 0.864906 0.778450
O11   O     O_R   0.361370 0.168600 0.339370 -0.545942
O12   O     O_R   0.638630 0.831400 0.660630 -0.545942
O13   O     O_3   0.527990 0.310540 0.251980 -0.380102
O14   O     O_3   0.472010 0.689460 0.748020 -0.380102
V1    V     V_3+5 0.802830 0.240980 0.251990 1.478158
V2    V     V_3+5 0.197170 0.759020 0.748010 1.478158
O15   O     O_R   0.191360 0.346160 0.165220 -0.545645
O16   O     O_R   0.808640 0.653840 0.834780 -0.545645
C5    C     C_R   0.022329 0.368181 0.136011 0.730312
C6    C     C_R   0.977671 0.631819 0.863989 0.730313
O17   O     O_R   0.191130 0.347440 0.338740 -0.546548
O18   O     O_R   0.808870 0.652560 0.661260 -0.546548
C7    C     C_R   0.022157 0.369652 0.367639 0.661780
C8    C     C_R   0.977843 0.630348 0.632361 0.661780
V3    V     V_3+5 0.302840 0.262750 0.251990 1.438354
V4    V     V_3+5 0.697160 0.737250 0.748010 1.438354
O19   O     O_3   0.027820 0.193180 0.251990 -0.359126
O20   O     O_3   0.972180 0.806820 0.748010 -0.359126
C9    C     C_3   0.922356 0.420053 0.524339 -0.139786
C10   C     C_3   0.077644 0.579947 0.475660 -0.139786
C11   C     C_3   0.096550 0.468310 0.566628 -0.139970
C12   C     C_3   0.903450 0.531690 0.433372 -0.139970
H1    H     H_    0.176062 0.442562 0.621978 0.106875
H2    H     H_    0.823938 0.557438 0.378022 0.106874
H3    H     H_    0.858314 0.353681 0.543972 0.104878
H4    H     H_    0.141686 0.646319 0.456028 0.104878
C13   C     C_3   0.988450 0.560713 0.562110 -0.004387
C14   C     C_3   0.011550 0.439287 0.437890 -0.004387
C15   C     C_3   0.814043 0.513250 0.520606 -0.116248
C16   C     C_3   0.185957 0.486750 0.479394 -0.116248
H5    H     H_    0.660548 0.524393 0.537953 0.107615
H6    H     H_    0.339452 0.475607 0.462046 0.107615
C17   C     C_R   0.820688 0.524477 0.966848 -0.145410
C18   C     C_R   0.179312 0.475523 0.033152 -0.145410
H7    H     H_    0.680007 0.542254 0.942394 0.116009
H8    H     H_    0.319993 0.457746 0.057606 0.116009
C19   C     C_R   0.831742 0.461362 0.032487 -0.124873
C20   C     C_R   0.168258 0.538638 0.967513 -0.124873
H9    H     H_    0.699028 0.432337 0.056370 0.119770
H10   H     H_    0.300972 0.567663 0.943629 0.119770
C21   C     C_R   0.011210 0.435996 0.066631 -0.046914
C22   C     C_R   0.988790 0.564004 0.933369 -0.046914
C23   C     C_R   0.679489 0.026139 0.468033 -0.155716
C24   C     C_R   0.320511 0.973861 0.531967 -0.155716
H11   H     H_    0.820247 0.045165 0.444375 0.116487
H12   H     H_    0.179753 0.954835 0.555625 0.116487
C25   C     C_R   0.668614 0.960996 0.531825 -0.150360
C26   C     C_R   0.331386 0.039003 0.468175 -0.150360
H13   H     H_    0.801497 0.931793 0.555352 0.117736
H14   H     H_    0.198503 0.068207 0.444648 0.117736
C27   C     C_R   0.488980 0.934001 0.564674 -0.040919
C28   C     C_R   0.511020 0.065999 0.435326 -0.040919
C29   C     C_R   0.665954 0.054967 0.006843 0.415917
C30   C     C_R   0.334045 0.945033 0.993157 0.415918
C31   C     C_R   0.650671 0.988984 0.942786 -0.186845
C32   C     C_R   0.349328 0.011016 0.057214 -0.186849
H15   H     H_    0.767871 0.982202 0.898147 0.193020
H16   H     H_    0.232128 0.017800 0.101852 0.193022
C33   C     C_R   0.485725 0.933560 0.934498 -0.207321
C34   C     C_R   0.514274 0.066439 0.065502 -0.207322
Cl1   Cl    Cl    0.874321 0.124473 0.007400 -0.651294
Cl2   Cl    Cl    0.125678 0.875527 0.992600 -0.651293

loop_
_geom_bond_atom_site_label_1
_geom_bond_atom_site_label_2
_ccdc_geom_bond_type
C24   C26   A    
C18   C21   A    
O13   V3    S    
C12   C14   S    
C23   C28   A    
O4    C2    A    
V1    O19   S    
C17   H7    S    
O9    V1    S    
C9    H3    S    
C10   H4    S    
C9    C14   S    
C11   H1    S    
O3    C1    A    
C23   H11   S    
O12   V4    S    
C8    C13   S    
C31   H15   S    
O9    C5    A    
C23   C25   A    
C25   H13   S    
O7    C3    A    
C26   H14   S    
C9    C11   S    
O5    C7    A    
O7    V1    S    
O6    C8    A    
O8    V2    S    
C32   C34   A    
C31   C33   A    
O14   V4    S    
O14   V2    S    
C18   H8    S    
C2    C27   S    
C2    O12   A    
C13   C15   S    
C10   C13   S    
C14   C16   S    
C11   C13   S    
C20   H10   S    
O11   V3    S    
O17   V3    S    
C26   C28   A    
C9    C15   S    
C4    C33   S    
C10   C16   S    
O8    C4    A    
C17   C19   A    
C16   H6    S    
C19   C21   A    
C30   C33   A    
O15   V3    S    
C19   H9    S    
O1    C3    A    
C24   C27   A    
O10   V2    S    
O1    V3    S    
C29   C34   A    
O3    V1    S    
C11   C16   S    
C15   H5    S    
O18   V4    S    
O15   C5    A    
O16   C6    A    
C30   Cl2   S    
V2    O20   S    
O16   V4    S    
C5    C21   S    
O5    V1    S    
O17   C7    A    
O6    V2    S    
O10   C6    A    
O18   C8    A    
O2    V4    S    
C12   H2    S    
V3    O19   S    
C1    C28   S    
V4    O20   S    
C7    C14   S    
C6    C22   S    
C1    O11   A    
O13   V1    S    
C10   C12   S    
O2    C4    A    
O4    V2    S    
C25   C27   A    
C18   C20   A    
C29   Cl1   S    
C3    C34   S    
C30   C32   A    
C12   C15   S    
C32   H16   S    
C29   C31   A    
C24   H12   S    
C20   C22   A    
C17   C22   A    
