data_mof_unit_26110.cif
_audit_creation_date              2012-12-10T20:31:54-0500
_audit_creation_method            fapswitch 2.2
_symmetry_space_group_name_H-M    P1
_symmetry_Int_Tables_number       1
_space_group_crystal_system       triclinic
_cell_length_a                    9.880545
_cell_length_b                    10.649869
_cell_length_c                    15.46102
_cell_angle_alpha                 91.022612
_cell_angle_beta                  67.420182
_cell_angle_gamma                 90.338501
_cell_volume                      1501.95926298

loop_
_atom_site_label
_atom_site_type_symbol
_atom_type_description
_atom_site_fract_x
_atom_site_fract_y
_atom_site_fract_z
_atom_type_partial_charge
C1    C     C_R   0.498909 0.739517 0.502257 0.955615
C2    C     C_R   0.423711 0.463705 0.908643 0.037480
C3    C     C_R   0.301417 0.384952 0.957677 -0.162090
C4    C     C_R   0.531810 0.491339 0.945405 -0.011541
C5    C     C_R   0.500628 0.465126 0.039467 -0.092575
C6    C     C_R   0.384840 0.382527 0.086836 0.634847
C7    C     C_R   0.290839 0.337356 0.045291 0.253362
C8    C     C_R   0.672441 0.539589 0.890461 -0.149238
C9    C     C_R   0.776851 0.563683 0.929155 0.315794
C10   C     C_R   0.739389 0.547738 0.025584 0.005150
C11   C     C_R   0.595375 0.511109 0.081392 0.029713
C12   C     C_R   0.408010 0.494339 0.675916 0.935787
C13   C     C_R   0.839462 0.569565 0.068749 -0.138765
C14   C     C_R   0.796898 0.554044 0.165439 0.264120
C15   C     C_R   0.545849 0.529935 0.178006 0.294731
C16   C     C_R   0.431924 0.933430 0.454921 0.103334
C17   C     C_R   0.493256 0.871213 0.508738 -0.291939
C18   C     C_R   0.534791 0.936346 0.574026 0.584308
C19   C     C_R   0.533542 0.066876 0.574908 0.211145
C20   C     C_R   0.490818 0.128428 0.509413 -0.299998
C21   C     C_R   0.428944 0.061401 0.455622 0.062503
C22   C     C_3   0.465362 0.064227 0.352185 0.129328
C23   C     C_R   0.498612 0.260237 0.501543 0.969676
C24   C     C_3   0.470505 0.921963 0.352010 -0.425990
C25   C     C_R   0.889780 0.568717 0.565592 0.034058
C26   C     C_R   0.963795 0.422158 0.441598 0.359825
C27   C     C_R   0.107356 0.423363 0.441374 -0.024221
C28   C     C_R   0.032504 0.569486 0.565079 0.113767
C29   C     C_3   0.028761 0.708855 0.578485 0.459272
C30   C     C_3   0.873636 0.707100 0.581174 -0.417840
C31   C     C_R   0.591521 0.510081 0.323786 0.924050
C32   C     C_R   0.351376 0.469724 0.776223 -0.152627
C33   C     C_R   0.647467 0.531003 0.221661 -0.247026
C34   C     C_R   0.200030 0.355117 0.914661 0.306930
C35   C     C_R   0.232873 0.388730 0.820990 0.256758
C36   C     C_R   0.436208 0.513791 0.823488 -0.185281
H1    H     H_    0.951962 0.594745 0.027819 0.217461
H2    H     H_    0.572739 0.109046 0.312069 0.149701
H3    H     H_    0.382602 0.874512 0.335502 0.288437
H4    H     H_    0.582344 0.882971 0.313834 0.177110
H5    H     H_    0.191458 0.364861 0.392222 0.223723
H6    H     H_    0.037246 0.739733 0.645222 0.130198
H7    H     H_    0.789957 0.731507 0.651481 0.214357
H8    H     H_    0.861584 0.756568 0.521802 0.269757
H9    H     H_    0.517559 0.584436 0.789859 0.175027
H10   H     H_    0.707570 0.552135 0.815889 0.162012
N1    N     N_R   0.856900 0.500860 0.500610 -0.118687
N2    N     N_R   0.142540 0.500820 0.500610 -0.105865
O1    O     O_R   0.385310 0.683210 0.499990 -0.563195
O2    O     O_R   0.614650 0.683240 0.500000 -0.600385
O3    O     O_R   0.319830 0.499970 0.632240 -0.584262
O4    O     O_R   0.549170 0.500000 0.632250 -0.604977
O5    O     O_R   0.385350 0.316760 0.500000 -0.595701
O6    O     O_R   0.614690 0.316790 0.500010 -0.571449
O7    O     O_R   0.450830 0.500000 0.367750 -0.573308
O8    O     O_R   0.680170 0.500030 0.367760 -0.563980
Zn1   Zn    Zn3+2 0.346870 0.499980 0.499990 1.070860
Zn2   Zn    Zn3+2 0.653130 0.500020 0.500010 1.056442
Br1   Br    Br    0.173624 0.195587 0.107446 -0.203151
F1    F     F_    0.577959 0.873710 0.634822 -0.640792
Br2   Br    Br    0.590528 0.155757 0.665086 -0.349270
Br3   Br    Br    0.302417 0.123924 0.323970 -0.285400
Br4   Br    Br    0.925506 0.308787 0.356601 -0.296477
Br5   Br    Br    0.349963 0.601222 0.238845 -0.363533
F2    F     F_    0.124415 0.769406 0.500155 -0.597216
Br6   Br    Br    0.945962 0.581924 0.214746 -0.363251
Br7   Br    Br    0.963665 0.628362 0.848092 -0.507243
Br8   Br    Br    0.008544 0.282734 0.980212 -0.336243
Br9   Br    Br    0.121620 0.315065 0.753578 -0.355938
F3    F     F_    0.373764 0.333317 0.169772 -0.597187

loop_
_geom_bond_atom_site_label_1
_geom_bond_atom_site_label_2
_ccdc_geom_bond_type
C27   N2    A    
C8    C9    A    
C2    C4    A    
C15   Br5   S    
C31   C33   S    
C23   O5    A    
C16   C21   A    
O3    Zn1   S    
C31   O8    A    
C22   Br3   S    
C1    O2    A    
C27   H5    S    
C1    C17   S    
C19   C20   A    
C20   C23   S    
C4    C8    A    
C26   Br4   S    
C31   O7    A    
C12   O3    A    
C14   C33   A    
C9    Br7   S    
C2    C3    A    
C14   Br6   S    
O2    Zn2   S    
C36   H9    S    
C16   C24   S    
C21   C22   S    
C12   C32   S    
N1    Zn2   S    
C30   H8    S    
C26   C27   A    
C29   C30   S    
O4    Zn2   S    
C26   N1    A    
C19   Br2   S    
C29   F2    S    
C32   C36   A    
C11   C15   A    
C18   F1    S    
C28   C29   S    
C12   O4    A    
O8    Zn2   S    
C5    C11   A    
C6    C7    A    
C3    C7    A    
C2    C36   A    
O7    Zn1   S    
C8    H10   S    
O6    Zn2   S    
C5    C6    A    
C29   H6    S    
C22   C24   S    
C30   H7    S    
C10   C11   A    
C34   Br8   S    
C22   H2    S    
C32   C35   A    
N2    Zn1   S    
C24   H3    S    
O1    Zn1   S    
C20   C21   A    
C35   Br9   S    
C23   O6    A    
C17   C18   A    
C34   C35   A    
C9    C10   A    
C7    Br1   S    
C25   C30   S    
C6    F3    S    
C18   C19   A    
C25   N1    A    
C16   C17   A    
O5    Zn1   S    
C3    C34   A    
C24   H4    S    
C13   C14   A    
C13   H1    S    
C15   C33   A    
C28   N2    A    
C4    C5    A    
C25   C28   A    
C10   C13   A    
C1    O1    A    
