data_mof_unit_63000.cif
_audit_creation_date              2012-10-26T17:27:18-0400
_audit_creation_method            fapswitch 2.2
_symmetry_space_group_name_H-M    P1
_symmetry_Int_Tables_number       1
_space_group_crystal_system       triclinic
_cell_length_a                    18.858823
_cell_length_b                    18.988352
_cell_length_c                    18.746062
_cell_angle_alpha                 109.71614
_cell_angle_beta                  109.168905
_cell_angle_gamma                 109.769198
_cell_volume                      5152.08350493

loop_
_atom_site_label
_atom_site_type_symbol
_atom_type_description
_atom_site_fract_x
_atom_site_fract_y
_atom_site_fract_z
_atom_type_partial_charge
C1    C     C_R   0.118448 0.000484 0.619479 0.633611
C2    C     C_R   0.312971 0.079814 0.835635 0.230793
C3    C     C_R   0.316470 0.002731 0.816873 -0.034632
C4    C     C_R   0.121098 0.118454 0.502064 0.598379
C5    C     C_R   0.257048 0.931077 0.733635 -0.072570
C6    C     C_3   0.226205 0.837653 0.673653 0.476311
C7    C     C_3   0.149833 0.838021 0.608053 0.509882
C8    C     C_R   0.741033 0.749145 0.427799 -0.051883
C9    C     C_R   0.818027 0.815971 0.503847 0.041581
C10   C     C_R   0.829526 0.817640 0.583141 0.234958
C11   C     C_R   0.763970 0.752533 0.582243 -0.082072
C12   C     C_R   0.276804 0.230436 0.569079 -0.051325
C13   C     C_R   0.685742 0.687279 0.503348 -0.008373
C14   C     C_R   0.676801 0.689513 0.427962 -0.019142
C15   C     C_3   0.618616 0.641738 0.331373 0.460672
C16   C     C_R   0.882852 0.001659 0.380916 0.562685
C17   C     C_3   0.692701 0.710591 0.331130 0.459367
C18   C     C_R   0.760602 0.929730 0.230797 0.021287
C19   C     C_R   0.815720 0.002196 0.314583 -0.005098
C20   C     C_R   0.798466 0.071549 0.334820 0.225822
C21   C     C_R   0.734983 0.069941 0.267409 -0.133889
C22   C     C_R   0.683334 0.997099 0.183060 -0.057305
C23   C     C_R   0.188790 0.184911 0.502251 0.009305
C24   C     C_R   0.690889 0.923432 0.168444 -0.006978
C25   C     C_3   0.691107 0.860379 0.093831 0.173379
C26   C     C_3   0.773340 0.873101 0.163383 0.534375
C27   C     C_R   0.501098 0.619067 0.619134 0.609000
C28   C     C_R   0.882331 0.881575 0.501138 0.600658
C29   C     C_R   0.380867 0.386250 0.504956 0.598821
C30   C     C_R   0.500431 0.382110 0.381040 0.595362
C31   C     C_R   0.618728 0.619281 0.500873 0.589719
C32   C     C_R   0.500245 0.118744 0.119285 0.559527
C33   C     C_R   0.381538 0.999834 0.881247 0.569603
C34   C     C_R   0.162716 0.212002 0.442246 0.265636
C35   C     C_R   0.502597 0.881369 0.883428 0.523576
C36   C     C_R   0.618341 0.997120 0.115681 0.529349
C37   C     C_R   0.438734 0.666000 0.708282 0.038313
C38   C     C_R   0.505110 0.686161 0.688598 -0.010079
C39   C     C_R   0.582806 0.766788 0.747866 0.254719
C40   C     C_R   0.310989 0.199431 0.622867 0.246351
C41   C     C_R   0.583590 0.832888 0.812651 0.209037
C42   C     C_R   0.508520 0.814812 0.821877 -0.073598
C43   C     C_R   0.440700 0.728655 0.773983 -0.095469
C44   C     C_3   0.344087 0.688692 0.725609 -0.178142
C45   C     C_R   0.225370 0.277414 0.442126 0.268662
C46   C     C_3   0.342431 0.620366 0.652234 0.120816
C47   C     C_R   0.428235 0.234030 0.258379 -0.052860
C48   C     C_R   0.501758 0.316531 0.314778 0.085429
C49   C     C_R   0.580639 0.330354 0.316045 0.278078
C50   C     C_R   0.579871 0.265022 0.250741 -0.108808
C51   C     C_R   0.502885 0.184743 0.189451 -0.004589
C52   C     C_R   0.390183 0.256024 0.700892 -0.067495
C53   C     C_R   0.429502 0.168567 0.198615 -0.038427
C54   C     C_3   0.337246 0.130514 0.131661 -0.184285
C55   C     C_3   0.335964 0.203593 0.196914 0.119732
C56   C     C_R   0.312448 0.327020 0.512289 -0.002790
C57   C     C_R   0.436182 0.342548 0.725473 -0.084617
C58   C     C_R   0.409210 0.371006 0.667551 0.279883
C59   C     C_R   0.333611 0.311370 0.583455 -0.037945
C60   C     C_3   0.034098 0.208891 0.410150 -0.112701
C61   C     C_3   0.110086 0.740585 0.467380 -0.007876
C62   C     C_3   0.800475 0.153011 0.457509 -0.076354
C63   C     C_3   0.557098 0.753058 0.971589 -0.039616
C64   C     C_3   0.880480 0.998502 0.178030 -0.104589
C65   C     C_3   0.714044 0.774365 0.795626 -0.045397
C66   C     C_3   0.719775 0.404135 0.429417 -0.078097
C67   C     C_R   0.193394 0.931291 0.674096 0.012380
C68   C     C_3   0.171224 0.343937 0.376164 -0.044797
C69   C     C_3   0.367834 0.875874 0.696276 -0.087770
C70   C     C_R   0.186506 0.004398 0.688358 0.021812
C71   C     C_R   0.248952 0.081373 0.771060 0.251890
Cl1   Cl    Cl    0.195193 0.769303 0.717101 -0.522254
Cl2   Cl    Cl    0.678373 0.936684 0.878266 -0.536856
Cl3   Cl    Cl    0.289688 0.514790 0.637489 -0.568580
Cl4   Cl    Cl    0.324457 0.276479 0.159780 -0.422639
Cl5   Cl    Cl    0.462276 0.483999 0.711216 -0.523927
Cl6   Cl    Cl    0.251708 0.180975 0.794418 -0.422163
Cl7   Cl    Cl    0.387126 0.173825 0.940089 -0.441657
Cl8   Cl    Cl    0.043280 0.781388 0.593626 -0.503475
Cl9   Cl    Cl    0.926065 0.896885 0.683347 -0.484030
Cl10  Cl    Cl    0.598315 0.533083 0.282085 -0.364456
Cl11  Cl    Cl    0.520023 0.645206 0.302283 -0.399043
Cl12  Cl    Cl    0.747864 0.671338 0.281437 -0.366757
Cl13  Cl    Cl    0.670028 0.784535 0.302686 -0.443064
Cl14  Cl    Cl    0.269882 0.088455 0.585621 -0.576730
Cl15  Cl    Cl    0.761501 0.777792 0.168491 -0.307956
Cu1   Cu    Cu3+1 0.000020 0.938200 0.438210 1.212631
Cu2   Cu    Cu3+1 0.999980 0.061800 0.561790 1.132734
Cu3   Cu    Cu3+1 0.438170 0.500030 0.438220 1.147169
Cu4   Cu    Cu3+1 0.561770 0.500000 0.561810 1.039972
Cu5   Cu    Cu3+1 0.561810 0.061820 0.000030 1.083581
Cu6   Cu    Cu3+1 0.438190 0.938280 0.000080 1.050906
H1    H     H_    0.774001 0.753306 0.642841 0.168471
H2    H     H_    0.294541 0.065726 0.119581 0.132776
H3    H     H_    0.291030 0.181032 0.220808 0.148552
H4    H     H_    0.494202 0.387306 0.789128 0.180250
H5    H     H_    0.975640 0.193936 0.353935 0.143498
H6    H     H_    0.074879 0.280844 0.451769 0.126914
H7    H     H_    0.011987 0.182235 0.447874 0.186885
H8    H     H_    0.038407 0.712183 0.432772 0.170996
H9    H     H_    0.127353 0.701909 0.495757 0.165494
H10   H     H_    0.131130 0.735787 0.418035 0.150233
H11   H     H_    0.844820 0.205773 0.526731 0.155519
H12   H     H_    0.726854 0.125978 0.280645 0.125630
H13   H     H_    0.765475 0.092565 0.457567 0.151489
H14   H     H_    0.753876 0.171073 0.426192 0.105549
H15   H     H_    0.583935 0.751098 0.926693 0.117901
H16   H     H_    0.531644 0.798163 0.978855 0.139941
H17   H     H_    0.501896 0.687143 0.942152 0.202407
H18   H     H_    0.918796 0.042309 0.249697 0.160911
H19   H     H_    0.828439 0.011323 0.148061 0.088328
H20   H     H_    0.925289 0.014247 0.152316 0.196463
H21   H     H_    0.766920 0.779343 0.780272 0.155357
H22   H     H_    0.683613 0.710205 0.790664 0.138030
H23   H     H_    0.701822 0.883530 0.048849 0.093067
H24   H     H_    0.744407 0.826611 0.864078 0.177654
H25   H     H_    0.695218 0.368676 0.460599 0.107643
H26   H     H_    0.773567 0.470301 0.482661 0.180370
H27   H     H_    0.747345 0.372671 0.394112 0.113563
H28   H     H_    0.188415 0.377493 0.340974 0.156865
H29   H     H_    0.199546 0.395114 0.444937 0.143711
H30   H     H_    0.099263 0.307754 0.343627 0.138677
H31   H     H_    0.384090 0.879171 0.759955 0.123743
H32   H     H_    0.390626 0.941742 0.704574 0.156944
H33   H     H_    0.402887 0.848372 0.669777 0.150631
H34   H     H_    0.313475 0.663569 0.759836 0.220921
H35   H     H_    0.323212 0.729919 0.705751 0.176659
H36   H     H_    0.415978 0.232977 0.742894 0.186008
H37   H     H_    0.321632 0.622993 0.590832 0.134112
H38   H     H_    0.638364 0.277811 0.246444 0.143064
H39   H     H_    0.331024 0.132968 0.071567 0.221660
O1    O     O_R   0.090180 0.947810 0.537990 -0.447174
O2    O     O_R   0.447830 0.038100 0.090230 -0.510183
O3    O     O_R   0.462030 0.052220 0.909860 -0.485685
O4    O     O_R   0.090150 0.052180 0.642350 -0.454232
O5    O     O_R   0.357640 0.947890 0.909900 -0.467499
O6    O     O_R   0.552170 0.962000 0.909870 -0.456268
O7    O     O_R   0.447780 0.857670 0.909910 -0.523816
O8    O     O_R   0.642360 0.052210 0.090200 -0.508124
O9    O     O_R   0.537970 0.947880 0.090240 -0.497640
O10   O     O_R   0.090190 0.037990 0.447830 -0.462912
O11   O     O_R   0.090170 0.142360 0.552190 -0.521076
O12   O     O_R   0.552150 0.590170 0.642370 -0.477919
O13   O     O_R   0.909850 0.947820 0.357650 -0.468755
O14   O     O_R   0.909820 0.052190 0.462010 -0.498769
O15   O     O_R   0.909830 0.857640 0.447810 -0.464889
O16   O     O_R   0.909810 0.962010 0.552170 -0.486913
O17   O     O_R   0.447770 0.590190 0.538000 -0.526782
O18   O     O_3   0.076675 0.169276 0.377756 -0.569369
O19   O     O_3   0.151360 0.828955 0.530456 -0.511258
O20   O     O_3   0.850712 0.145179 0.416949 -0.574509
O21   O     O_3   0.619969 0.775873 0.053727 -0.484382
O22   O     O_3   0.849420 0.911369 0.157802 -0.544408
O23   O     O_R   0.357600 0.409850 0.447820 -0.485009
O24   O     O_3   0.654207 0.783775 0.736058 -0.529671
O25   O     O_3   0.654710 0.411389 0.373541 -0.510640
O26   O     O_3   0.202754 0.285566 0.368320 -0.516041
O27   O     O_3   0.277926 0.821860 0.636453 -0.560199
O28   O     O_R   0.461980 0.409830 0.552180 -0.491749
O29   O     O_R   0.447790 0.409860 0.357660 -0.439073
O30   O     O_R   0.552170 0.409840 0.462020 -0.524552
O31   O     O_R   0.537960 0.590200 0.447840 -0.454521
O32   O     O_R   0.642340 0.590180 0.552210 -0.520100
O33   O     O_R   0.552220 0.142430 0.090190 -0.487363

loop_
_geom_bond_atom_site_label_1
_geom_bond_atom_site_label_2
_ccdc_geom_bond_type
Cu1   O1    S    
Cu3   O17   S    
Cu1   Cu2   S    
C44   H35   S    
C12   C40   A    
Cu1   O15   S    
C65   H22   S    
C49   O25   S    
C19   C20   A    
C18   C26   S    
C46   Cl3   S    
C5    C67   A    
C60   H7    S    
Cu6   O7    S    
C46   H37   S    
C52   H36   S    
C58   Cl5   S    
C29   O28   A    
C62   H13   S    
C53   C54   S    
C30   O29   A    
C54   H39   S    
C12   C23   A    
C44   H34   S    
C25   O21   S    
C18   C24   A    
C30   C48   S    
C16   O13   A    
C60   H6    S    
C25   H23   S    
C35   O7    A    
C4    O11   A    
C32   O2    A    
C64   H20   S    
C69   H31   S    
C27   C38   S    
C18   C19   A    
C41   C42   A    
Cu4   O28   S    
C35   C42   S    
C50   H38   S    
Cu5   O6    S    
C21   H12   S    
C33   O3    A    
Cu6   O2    S    
C45   C56   A    
C8    C9    A    
C57   H4    S    
C27   O12   A    
Cu2   O14   S    
C70   C71   A    
Cu1   O13   S    
C9    C10   A    
Cu4   O12   S    
Cu5   Cu6   S    
C47   C53   A    
C55   Cl4   S    
C1    O1    A    
C31   O31   A    
C69   H33   S    
C13   C14   A    
C12   C59   A    
Cu6   O5    S    
Cu2   O11   S    
C6    O27   S    
C34   O18   S    
C44   C46   S    
C69   O27   S    
C15   Cl11  S    
C38   C39   A    
C31   O32   A    
C15   Cl10  S    
C62   O20   S    
Cu4   O30   S    
C45   O26   S    
C24   C25   S    
C39   C41   A    
C60   H5    S    
C52   C57   A    
C68   H30   S    
C4    O10   A    
C4    C23   S    
C10   Cl9   S    
C27   O17   A    
C64   H19   S    
C69   H32   S    
C25   C26   S    
C40   C52   A    
C7    C67   S    
C64   O22   S    
C66   H25   S    
C39   O24   S    
C16   O14   A    
C17   Cl12  S    
C40   Cl14  S    
C63   H17   S    
C61   H9    S    
C43   C44   S    
C32   C51   S    
C37   C38   A    
C2    Cl7   S    
C7    O19   S    
C64   H18   S    
C47   C48   A    
C26   Cl15  S    
C23   C34   A    
C50   C51   A    
C6    Cl1   S    
C34   C45   A    
Cu1   O10   S    
C36   O9    A    
Cu5   O8    S    
C55   H3    S    
C48   C49   A    
Cu3   Cu4   S    
C66   H27   S    
C65   H24   S    
C22   C24   A    
C37   C43   A    
C58   C59   A    
C61   H8    S    
C42   C43   A    
C63   H15   S    
C68   O26   S    
Cu6   O9    S    
Cu3   O31   S    
C71   Cl6   S    
Cu3   O29   S    
C7    Cl8   S    
C62   H11   S    
C61   O19   S    
C15   C17   S    
C54   C55   S    
C28   O16   A    
C8    C14   A    
C65   H21   S    
C13   C31   S    
C8    C17   S    
Cu2   O4    S    
C3    C5    A    
C68   H29   S    
Cu3   O23   S    
C20   O20   S    
C6    C7    S    
C62   H14   S    
C29   C56   S    
C22   C36   S    
C28   O15   A    
C1    C70   S    
C56   C59   A    
Cu4   O32   S    
C67   C70   A    
C21   C22   A    
C17   Cl13  S    
C61   H10   S    
C63   H16   S    
C65   O24   S    
C35   O6    A    
C66   O25   S    
C11   C13   A    
C33   O5    A    
C11   H1    S    
C57   C58   A    
C5    C6    S    
Cu5   O3    S    
C16   C19   S    
C32   O33   A    
Cu2   O16   S    
C2    C3    A    
C60   O18   S    
Cu5   O33   S    
C36   O8    A    
C63   O21   S    
C54   H2    S    
C10   C11   A    
C41   Cl2   S    
C47   C55   S    
C20   C21   A    
C49   C50   A    
C66   H26   S    
C3    C33   S    
C14   C15   S    
C26   O22   S    
C30   O30   A    
C51   C53   A    
C37   C46   S    
C1    O4    A    
C68   H28   S    
C2    C71   A    
C9    C28   S    
C29   O23   A    
