data_mof_unit_60260.cif
_audit_creation_date              2013-03-05T15:56:08-0500
_audit_creation_method            fapswitch 2.2
_symmetry_space_group_name_H-M    P1
_symmetry_Int_Tables_number       1
_space_group_crystal_system       triclinic
_cell_length_a                    38.593436
_cell_length_b                    21.771336
_cell_length_c                    21.741677
_cell_angle_alpha                 90.000011
_cell_angle_beta                  123.788715
_cell_angle_gamma                 90.0
_cell_volume                      15182.4452549

loop_
_atom_site_label
_atom_site_type_symbol
_atom_site_description
_atom_site_fract_x
_atom_site_fract_y
_atom_site_fract_z
_atom_type_partial_charge
O1    O     O_R   0.999990 0.947780 0.090170 -0.547686
O2    O     O_R   0.000010 0.947780 0.909830 -0.547685
O3    O     O_R   0.499990 0.447780 0.090170 -0.547686
O4    O     O_R   0.500010 0.447780 0.909830 -0.547686
O5    O     O_R   0.999990 0.052220 0.090220 -0.581520
O6    O     O_R   0.000010 0.052220 0.909780 -0.581521
O7    O     O_R   0.499990 0.552220 0.090220 -0.581521
O8    O     O_R   0.500010 0.552220 0.909780 -0.581521
C1    C     C_R   0.000789 0.999982 0.119499 0.867145
C2    C     C_R   0.999211 0.999982 0.880501 0.867150
C3    C     C_R   0.500789 0.499982 0.119499 0.867150
C4    C     C_R   0.499211 0.499982 0.880501 0.867150
O9    O     O_R   0.060280 0.947780 0.060280 -0.550611
O10   O     O_R   0.939720 0.947780 0.939720 -0.550609
O11   O     O_R   0.560280 0.447780 0.060280 -0.550610
O12   O     O_R   0.439720 0.447780 0.939720 -0.550609
O13   O     O_R   0.060280 0.052220 0.060320 -0.578958
O14   O     O_R   0.939720 0.052220 0.939680 -0.578958
O15   O     O_R   0.560280 0.552220 0.060320 -0.578958
O16   O     O_R   0.439720 0.552220 0.939680 -0.578958
C5    C     C_R   0.079829 0.000010 0.079720 0.828301
C6    C     C_R   0.920171 0.000010 0.920280 0.828305
C7    C     C_R   0.579829 0.500010 0.079720 0.828305
C8    C     C_R   0.420171 0.500010 0.920280 0.828305
Cu1   Cu    Cu3+1 0.000000 0.938160 0.000000 1.149450
Cu2   Cu    Cu3+1 0.500000 0.438160 0.000000 1.149449
Cu3   Cu    Cu3+1 0.000000 0.061840 0.000000 1.070348
Cu4   Cu    Cu3+1 0.500000 0.561840 0.000000 1.070348
C9    C     C_3   0.224684 0.940329 0.262461 -0.292766
C10   C     C_3   0.775316 0.940328 0.737539 -0.292766
C11   C     C_3   0.724684 0.440328 0.262461 -0.292766
C12   C     C_3   0.275316 0.440328 0.737539 -0.292766
C13   C     C_3   0.225325 0.061293 0.264024 -0.222971
C14   C     C_3   0.774675 0.061292 0.735976 -0.222971
C15   C     C_3   0.725325 0.561292 0.264025 -0.222972
C16   C     C_3   0.274675 0.561292 0.735975 -0.222972
C17   C     C_3   0.274752 0.058100 0.322341 -0.253723
C18   C     C_3   0.725248 0.058100 0.677659 -0.253723
C19   C     C_3   0.774752 0.558099 0.322341 -0.253724
C20   C     C_3   0.225248 0.558099 0.677659 -0.253724
H1    H     H_    0.219211 0.096171 0.221816 0.184751
H2    H     H_    0.780789 0.096171 0.778184 0.184751
H3    H     H_    0.719211 0.596171 0.221816 0.184751
H4    H     H_    0.280789 0.596171 0.778184 0.184751
C21   C     C_1   0.375460 0.000179 0.376900 0.110183
C22   C     C_1   0.624540 0.000179 0.623100 0.110182
C23   C     C_1   0.875460 0.500178 0.376900 0.110183
C24   C     C_1   0.124540 0.500179 0.623100 0.110182
C25   C     C_3   0.208125 0.001009 0.215755 0.007669
C26   C     C_3   0.791875 0.001009 0.784245 0.007669
C27   C     C_3   0.708125 0.501009 0.215755 0.007669
C28   C     C_3   0.291875 0.501009 0.784245 0.007669
C29   C     C_3   0.274700 0.936209 0.310728 0.063781
C30   C     C_3   0.725300 0.936209 0.689272 0.063782
C31   C     C_3   0.774700 0.436208 0.310728 0.063782
C32   C     C_3   0.225300 0.436208 0.689272 0.063782
C33   C     C_3   0.291514 0.000517 0.299007 -0.147431
C34   C     C_3   0.708486 0.000517 0.700992 -0.147431
C35   C     C_3   0.791514 0.500517 0.299007 -0.147430
C36   C     C_3   0.208486 0.500517 0.700993 -0.147430
C37   C     C_3   0.273899 0.005844 0.213737 0.168003
C38   C     C_3   0.726101 0.005844 0.786263 0.168002
C39   C     C_3   0.773899 0.505844 0.213737 0.168002
C40   C     C_3   0.226101 0.505844 0.786263 0.168002
C41   C     C_3   0.225364 0.001291 0.165814 -0.466066
C42   C     C_3   0.774636 0.001291 0.834186 -0.466066
C43   C     C_3   0.725364 0.501292 0.165814 -0.466066
C44   C     C_3   0.274636 0.501292 0.834186 -0.466066
C45   C     C_1   0.337861 0.000326 0.341624 0.163512
C46   C     C_1   0.662139 0.000326 0.658375 0.163512
C47   C     C_1   0.837861 0.500326 0.341624 0.163512
C48   C     C_1   0.162139 0.500326 0.658375 0.163512
C49   C     C_1   0.162022 0.000502 0.165846 0.014323
C50   C     C_1   0.837978 0.000502 0.834154 0.014323
C51   C     C_1   0.662022 0.500502 0.165846 0.014323
C52   C     C_1   0.337978 0.500502 0.834155 0.014323
C53   C     C_1   0.124488 0.000111 0.125962 -0.040844
C54   C     C_1   0.875512 0.000111 0.874038 -0.040844
C55   C     C_1   0.624488 0.500111 0.125962 -0.040844
C56   C     C_1   0.375512 0.500111 0.874038 -0.040844
H5    H     H_    0.215862 0.958484 0.132097 0.192728
H6    H     H_    0.784138 0.958484 0.867903 0.192727
H7    H     H_    0.715862 0.458485 0.132097 0.192727
H8    H     H_    0.284138 0.458485 0.867903 0.192727
H9    H     H_    0.210490 0.038602 0.124061 0.238618
H10   H     H_    0.789510 0.038602 0.875939 0.238618
H11   H     H_    0.710490 0.538603 0.124062 0.238618
H12   H     H_    0.289510 0.538603 0.875938 0.238618
H13   H     H_    0.284986 0.966097 0.197213 0.186846
H14   H     H_    0.715013 0.966097 0.802787 0.186846
H15   H     H_    0.784987 0.466098 0.197212 0.186846
H16   H     H_    0.215013 0.466098 0.802788 0.186846
H17   H     H_    0.213528 0.904670 0.218550 0.189561
H18   H     H_    0.786472 0.904670 0.781450 0.189561
H19   H     H_    0.713528 0.404669 0.218549 0.189561
H20   H     H_    0.286472 0.404669 0.781450 0.189561
C57   C     C_R   0.974354 0.038048 0.191509 -0.253191
C58   C     C_R   0.025646 0.038048 0.808491 -0.253193
C59   C     C_R   0.474354 0.538048 0.191509 -0.253193
C60   C     C_R   0.525646 0.538048 0.808491 -0.253193
H21   H     H_    0.953329 0.067484 0.145133 0.204660
H22   H     H_    0.046671 0.067484 0.854868 0.204660
H23   H     H_    0.453329 0.567483 0.145132 0.204660
H24   H     H_    0.546671 0.567483 0.854868 0.204659
C61   C     C_R   0.973324 0.038846 0.254431 0.327247
C62   C     C_R   0.026676 0.038846 0.745569 0.327248
C63   C     C_R   0.473323 0.538845 0.254430 0.327249
C64   C     C_R   0.526676 0.538845 0.745570 0.327249
C65   C     C_R   0.000745 0.000118 0.314554 -0.282947
C66   C     C_R   0.999255 0.000118 0.685446 -0.282947
C67   C     C_R   0.500745 0.500118 0.314554 -0.282947
C68   C     C_R   0.499255 0.500118 0.685446 -0.282947
C69   C     C_R   0.029182 0.961646 0.311024 0.216569
C70   C     C_R   0.970817 0.961646 0.688975 0.216569
C71   C     C_R   0.529183 0.461646 0.311024 0.216569
C72   C     C_R   0.470817 0.461646 0.688975 0.216569
C73   C     C_R   0.029962 0.961863 0.247267 0.265707
C74   C     C_R   0.970037 0.961864 0.752733 0.265704
C75   C     C_R   0.529963 0.461864 0.247267 0.265705
C76   C     C_R   0.470037 0.461864 0.752733 0.265705
C77   C     C_R   0.002132 0.000054 0.187550 -0.225047
C78   C     C_R   0.997867 0.000054 0.812450 -0.225044
C79   C     C_R   0.502132 0.500054 0.187550 -0.225044
C80   C     C_R   0.497868 0.500054 0.812450 -0.225045
C81   C     C_R   0.500000 0.185636 0.500000 -0.325771
C82   C     C_R   0.000000 0.685636 0.500000 -0.325770
O17   O     O_R   0.500000 0.909980 0.552210 -0.555606
O18   O     O_R   0.500000 0.909980 0.447790 -0.555605
O19   O     O_R   0.000000 0.409980 0.552210 -0.555606
O20   O     O_R   0.000000 0.409980 0.447790 -0.555606
C83   C     C_R   0.500000 0.881488 0.500000 0.880036
C84   C     C_R   0.000000 0.381488 0.500000 0.880036
O21   O     O_R   0.439710 0.000200 0.491930 -0.552255
O22   O     O_R   0.560290 0.000200 0.508070 -0.552255
O23   O     O_R   0.939710 0.500200 0.491930 -0.552255
O24   O     O_R   0.060290 0.500200 0.508070 -0.552255
O25   O     O_R   0.439720 0.000170 0.387560 -0.559445
O26   O     O_R   0.560280 0.000170 0.612440 -0.559444
O27   O     O_R   0.939720 0.500170 0.387560 -0.559445
O28   O     O_R   0.060280 0.500170 0.612440 -0.559444
C85   C     C_R   0.420141 0.000127 0.420462 0.842921
C86   C     C_R   0.579859 0.000127 0.579538 0.842920
C87   C     C_R   0.920141 0.500127 0.420462 0.842921
C88   C     C_R   0.079859 0.500127 0.579538 0.842920
Cu5   Cu    Cu3+1 0.500000 0.000210 0.561820 1.181536
Cu6   Cu    Cu3+1 0.500000 0.000210 0.438180 1.181535
Cu7   Cu    Cu3+1 0.000000 0.500210 0.561820 1.181536
Cu8   Cu    Cu3+1 0.000000 0.500210 0.438180 1.181535
O29   O     O_R   0.500000 0.090430 0.552220 -0.554321
O30   O     O_R   0.500000 0.090430 0.447780 -0.554321
O31   O     O_R   0.000000 0.590430 0.552220 -0.554321
O32   O     O_R   0.000000 0.590430 0.447780 -0.554322
C89   C     C_R   0.500000 0.118909 0.500000 0.914558
C90   C     C_R   0.000000 0.618909 0.500000 0.914559
O33   O     O_R   0.965130 0.909670 0.465120 -0.546965
O34   O     O_R   0.034870 0.909670 0.534880 -0.546966
O35   O     O_R   0.465130 0.409670 0.465120 -0.546965
O36   O     O_R   0.534870 0.409670 0.534880 -0.546965
C91   C     C_R   0.000000 0.880787 0.500000 0.950294
C92   C     C_R   0.500000 0.380788 0.500000 0.950293
O37   O     O_R   0.965120 0.999890 0.374970 -0.540833
O38   O     O_R   0.034880 0.999890 0.625030 -0.540833
O39   O     O_R   0.465120 0.499890 0.374970 -0.540833
O40   O     O_R   0.534880 0.499890 0.625030 -0.540833
O41   O     O_R   0.034900 0.999930 0.444740 -0.567514
O42   O     O_R   0.965100 0.999930 0.555260 -0.567512
O43   O     O_R   0.534900 0.499930 0.444740 -0.567512
O44   O     O_R   0.465100 0.499930 0.555260 -0.567512
C93   C     C_R   0.000184 0.000032 0.381087 0.936063
C94   C     C_R   0.999816 0.000032 0.618913 0.936061
C95   C     C_R   0.500184 0.500032 0.381087 0.936062
C96   C     C_R   0.499816 0.500032 0.618913 0.936061
Cu9   Cu    Cu3+1 0.958680 0.999890 0.458710 1.188630
Cu10  Cu    Cu3+1 0.041320 0.999890 0.541290 1.188628
Cu11  Cu    Cu3+1 0.458680 0.499890 0.458710 1.188630
Cu12  Cu    Cu3+1 0.541320 0.499890 0.541290 1.188629
O45   O     O_R   0.965090 0.090120 0.465150 -0.571178
O46   O     O_R   0.034910 0.090120 0.534850 -0.571179
O47   O     O_R   0.465090 0.590120 0.465150 -0.571178
O48   O     O_R   0.534910 0.590120 0.534850 -0.571179
C97   C     C_R   0.000000 0.119068 0.500000 0.912881
C98   C     C_R   0.500000 0.619068 0.500000 0.912881
C99   C     C_R   0.529236 0.783005 0.492616 0.248126
C100  C     C_R   0.470764 0.783005 0.507384 0.248126
C101  C     C_R   0.029236 0.283005 0.492616 0.248127
C102  C     C_R   0.970764 0.283005 0.507384 0.248126
C103  C     C_R   0.029075 0.218593 0.491683 -0.116830
C104  C     C_R   0.970925 0.218593 0.508317 -0.116829
C105  C     C_R   0.529075 0.718593 0.491683 -0.116830
C106  C     C_R   0.470925 0.718593 0.508317 -0.116830
C107  C     C_R   0.000000 0.186321 0.500000 -0.207233
C108  C     C_R   0.500000 0.686321 0.500000 -0.207232
C109  C     C_R   0.500000 0.814713 0.500000 -0.238099
C110  C     C_R   0.000000 0.314713 0.500000 -0.238099
C111  C     C_R   0.470995 0.217487 0.434637 0.220856
C112  C     C_R   0.529004 0.217487 0.565363 0.220856
C113  C     C_R   0.970995 0.717487 0.434637 0.220855
C114  C     C_R   0.029005 0.717487 0.565363 0.220855
C115  C     C_R   0.971120 0.781749 0.434468 0.238284
C116  C     C_R   0.028880 0.781749 0.565532 0.238283
C117  C     C_R   0.471121 0.281749 0.434468 0.238284
C118  C     C_R   0.528879 0.281749 0.565532 0.238283
C119  C     C_R   1.000000 0.813825 0.500000 -0.309217
C120  C     C_R   0.500000 0.313825 0.500000 -0.309217
C121  C     C_2   0.296138 0.920994 0.393766 0.921966
O49   O     O_2   0.333851 0.912511 0.431654 -0.485162
O50   O     O_R   0.274284 0.913720 0.427223 -0.719458
H25   H     H_    0.293032 0.903339 0.481816 0.369069
C122  C     C_2   0.703862 0.920994 0.606234 0.921965
O51   O     O_2   0.666149 0.912511 0.568346 -0.485162
O52   O     O_R   0.725716 0.913720 0.572777 -0.719457
H26   H     H_    0.706968 0.903339 0.518184 0.369069
C123  C     C_2   0.796138 0.420993 0.393765 0.921965
O53   O     O_2   0.833851 0.412510 0.431653 -0.485160
O54   O     O_R   0.774284 0.413719 0.427222 -0.719458
H27   H     H_    0.793032 0.403338 0.481815 0.369069
C124  C     C_2   0.203862 0.420993 0.606235 0.921965
O55   O     O_2   0.166149 0.412510 0.568347 -0.485161
O56   O     O_R   0.225716 0.413719 0.572778 -0.719458
H28   H     H_    0.206968 0.403338 0.518185 0.369069
N1    N     N_R   0.286098 0.883450 0.281834 0.117859
O57   O     O_R   0.268278 0.830492 0.273668 -0.265088
O58   O     O_R   0.320895 0.883237 0.285332 -0.302651
N2    N     N_R   0.713901 0.883450 0.718166 0.117859
O59   O     O_R   0.731723 0.830492 0.726332 -0.265089
O60   O     O_R   0.679105 0.883237 0.714668 -0.302651
N3    N     N_R   0.786098 0.383450 0.281833 0.117859
O61   O     O_R   0.768277 0.330492 0.273667 -0.265089
O62   O     O_R   0.820895 0.383237 0.285331 -0.302651
N4    N     N_R   0.213901 0.383450 0.718167 0.117859
O63   O     O_R   0.231722 0.330492 0.726333 -0.265089
O64   O     O_R   0.179105 0.383237 0.714669 -0.302651
N5    N     N_R   0.289415 0.060787 0.196578 0.143278
O65   O     O_R   0.265329 0.107331 0.160499 -0.294621
O66   O     O_R   0.327191 0.060894 0.212041 -0.267036
N6    N     N_R   0.710585 0.060787 0.803422 0.143278
O67   O     O_R   0.734671 0.107331 0.839501 -0.294621
O68   O     O_R   0.672809 0.060894 0.787959 -0.267035
N7    N     N_R   0.789415 0.560787 0.196579 0.143278
O69   O     O_R   0.765329 0.607332 0.160500 -0.294621
O70   O     O_R   0.827191 0.560894 0.212042 -0.267035
N8    N     N_R   0.210585 0.560787 0.803421 0.143277
O71   O     O_R   0.234671 0.607332 0.839500 -0.294620
O72   O     O_R   0.172809 0.560894 0.787958 -0.267035
N9    N     N_R   0.945107 0.080417 0.256828 0.157669
O73   O     O_R   0.908466 0.090900 0.197188 -0.289878
O74   O     O_R   0.958020 0.114856 0.314606 -0.311506
N10   N     N_R   0.054894 0.080416 0.743172 0.157668
O75   O     O_R   0.091534 0.090899 0.802812 -0.289878
O76   O     O_R   0.041981 0.114856 0.685395 -0.311505
N11   N     N_R   0.445106 0.580416 0.256828 0.157668
O77   O     O_R   0.408465 0.590898 0.197188 -0.289878
O78   O     O_R   0.458019 0.614856 0.314605 -0.311505
N12   N     N_R   0.554894 0.580416 0.743172 0.157668
O79   O     O_R   0.591534 0.590899 0.802813 -0.289878
O80   O     O_R   0.541981 0.614856 0.685395 -0.311505
N13   N     N_R   0.057485 0.922636 0.372114 0.170631
O81   O     O_R   0.097424 0.926319 0.401713 -0.261652
O82   O     O_R   0.043314 0.881551 0.396208 -0.300265
N14   N     N_R   0.942514 0.922638 0.627885 0.170633
O83   O     O_R   0.902575 0.926322 0.598284 -0.261653
O84   O     O_R   0.956685 0.881552 0.603790 -0.300264
N15   N     N_R   0.557486 0.422638 0.372115 0.170633
O85   O     O_R   0.543315 0.381552 0.396210 -0.300264
O86   O     O_R   0.597425 0.426323 0.401716 -0.261654
N16   N     N_R   0.442514 0.422638 0.627885 0.170633
O87   O     O_R   0.456684 0.381552 0.603790 -0.300264
O88   O     O_R   0.402575 0.426323 0.598284 -0.261654
N17   N     N_R   0.059106 0.923650 0.243529 0.162780
O89   O     O_R   0.061470 0.865207 0.257883 -0.232248
O90   O     O_R   0.084306 0.947565 0.228087 -0.335852
N18   N     N_R   0.940893 0.923651 0.756470 0.162780
O91   O     O_R   0.938526 0.865209 0.742109 -0.232245
O92   O     O_R   0.915696 0.947566 0.771919 -0.335856
N19   N     N_R   0.559107 0.423651 0.243530 0.162781
O93   O     O_R   0.561475 0.365209 0.257891 -0.232246
O94   O     O_R   0.584304 0.447566 0.228081 -0.335856
N20   N     N_R   0.440893 0.423651 0.756470 0.162781
O95   O     O_R   0.438525 0.365209 0.742109 -0.232246
O96   O     O_R   0.415696 0.447566 0.771919 -0.335856
N21   N     N_R   0.559257 0.816449 0.486341 0.157316
O97   O     O_R   0.560458 0.810023 0.428053 -0.275473
O98   O     O_R   0.585371 0.853528 0.538906 -0.290875
N22   N     N_R   0.440743 0.816449 0.513659 0.157315
O99   O     O_R   0.439542 0.810023 0.571947 -0.275473
O100  O     O_R   0.414629 0.853528 0.461094 -0.290875
N23   N     N_R   0.059257 0.316449 0.486341 0.157315
O101  O     O_R   0.060458 0.310023 0.428054 -0.275473
O102  O     O_R   0.085371 0.353528 0.538906 -0.290875
N24   N     N_R   0.940743 0.316449 0.513659 0.157315
O103  O     O_R   0.939542 0.310023 0.571946 -0.275473
O104  O     O_R   0.914629 0.353528 0.461093 -0.290875
C125  C     C_2   0.059329 0.185718 0.481469 0.973600
O105  O     O_2   0.096492 0.197956 0.521107 -0.485046
O106  O     O_R   0.045228 0.141194 0.426178 -0.736421
H29   H     H_    0.068705 0.122056 0.424704 0.346061
C126  C     C_2   0.940671 0.185718 0.518531 0.973601
O107  O     O_2   0.903509 0.197956 0.478893 -0.485047
O108  O     O_R   0.954772 0.141194 0.573823 -0.736422
H30   H     H_    0.931296 0.122056 0.575296 0.346061
C127  C     C_2   0.559329 0.685717 0.481468 0.973600
O109  O     O_2   0.596491 0.697956 0.521106 -0.485047
O110  O     O_R   0.545228 0.641194 0.426177 -0.736422
H31   H     H_    0.568704 0.622056 0.424703 0.346060
C128  C     C_2   0.440671 0.685717 0.518532 0.973601
O111  O     O_2   0.403509 0.697956 0.478894 -0.485047
O112  O     O_R   0.454772 0.641194 0.573823 -0.736422
H32   H     H_    0.431296 0.622056 0.575296 0.346060
N25   N     N_R   0.441248 0.184688 0.368300 0.177092
O113  O     O_R   0.438203 0.195864 0.306675 -0.224055
O114  O     O_R   0.416123 0.145132 0.368744 -0.299506
N26   N     N_R   0.558752 0.184688 0.631700 0.177092
O115  O     O_R   0.561797 0.195864 0.693325 -0.224055
O116  O     O_R   0.583877 0.145132 0.631256 -0.299506
N27   N     N_R   0.941248 0.684688 0.368300 0.177093
O117  O     O_R   0.938203 0.695864 0.306675 -0.224054
O118  O     O_R   0.916123 0.645132 0.368745 -0.299506
N28   N     N_R   0.058752 0.684688 0.631700 0.177093
O119  O     O_R   0.061797 0.695864 0.693325 -0.224055
O120  O     O_R   0.083877 0.645132 0.631255 -0.299506
C129  C     C_2   0.201840 0.921429 0.298311 1.006398
O121  O     O_2   0.185630 0.870610 0.285176 -0.496094
O122  O     O_R   0.198667 0.961102 0.345304 -0.637553
H33   H     H_    0.182356 0.942689 0.364639 0.387404
C130  C     C_2   0.798160 0.921429 0.701689 1.006398
O123  O     O_2   0.814370 0.870609 0.714825 -0.496094
O124  O     O_R   0.801333 0.961102 0.654696 -0.637554
H34   H     H_    0.817644 0.942689 0.635362 0.387404
C131  C     C_2   0.701839 0.421428 0.298310 1.006398
O125  O     O_2   0.685630 0.370609 0.285174 -0.496095
O126  O     O_R   0.698667 0.461101 0.345303 -0.637553
H35   H     H_    0.682356 0.442687 0.364638 0.387404
C132  C     C_2   0.298160 0.421428 0.701689 1.006396
O127  O     O_2   0.314370 0.370609 0.714826 -0.496094
O128  O     O_R   0.301333 0.461101 0.654697 -0.637553
H36   H     H_    0.317644 0.442687 0.635362 0.387404
N29   N     N_R   0.941748 0.814176 0.367569 0.176747
O129  O     O_R   0.901976 0.803898 0.334047 -0.239052
O130  O     O_R   0.954774 0.851786 0.338085 -0.301653
N30   N     N_R   0.058251 0.814177 0.632431 0.176746
O131  O     O_R   0.098024 0.803898 0.665954 -0.239052
O132  O     O_R   0.045225 0.851786 0.661915 -0.301655
N31   N     N_R   0.441749 0.314177 0.367568 0.176746
O133  O     O_R   0.401976 0.303899 0.334046 -0.239051
O134  O     O_R   0.454775 0.351786 0.338085 -0.301656
N32   N     N_R   0.558251 0.314177 0.632432 0.176747
O135  O     O_R   0.598024 0.303899 0.665954 -0.239051
O136  O     O_R   0.545225 0.351786 0.661914 -0.301656
C133  C     C_2   0.200500 0.090140 0.291991 0.993810
O137  O     O_2   0.168585 0.066626 0.280136 -0.525170
O138  O     O_R   0.213647 0.146483 0.329028 -0.693358
H37   H     H_    0.194799 0.161987 0.344485 0.362825
C134  C     C_2   0.799499 0.090140 0.708009 0.993810
O139  O     O_2   0.831414 0.066626 0.719864 -0.525170
O140  O     O_R   0.786353 0.146483 0.670972 -0.693358
H38   H     H_    0.805201 0.161986 0.655515 0.362826
C135  C     C_2   0.700500 0.590139 0.291992 0.993810
O141  O     O_2   0.668585 0.566625 0.280137 -0.525170
O142  O     O_R   0.713647 0.646482 0.329029 -0.693358
H39   H     H_    0.694799 0.661985 0.344487 0.362825
C136  C     C_2   0.299499 0.590139 0.708008 0.993809
O143  O     O_2   0.331415 0.566625 0.719863 -0.525169
O144  O     O_R   0.286353 0.646482 0.670971 -0.693358
H40   H     H_    0.305201 0.661985 0.655513 0.362826
C137  C     C_2   0.288536 0.051560 0.403575 0.842689
O145  O     O_2   0.325756 0.052672 0.452875 -0.533989
O146  O     O_R   0.259972 0.043983 0.423277 -0.675226
H41   H     H_    0.273838 0.040250 0.478707 0.373630
C138  C     C_2   0.711464 0.051560 0.596425 0.842688
O147  O     O_2   0.674244 0.052671 0.547125 -0.533989
O148  O     O_R   0.740028 0.043983 0.576724 -0.675225
H42   H     H_    0.726163 0.040250 0.521293 0.373630
C139  C     C_2   0.788536 0.551559 0.403575 0.842687
O149  O     O_2   0.825756 0.552670 0.452876 -0.533988
O150  O     O_R   0.759972 0.543982 0.423277 -0.675225
H43   H     H_    0.773837 0.540249 0.478707 0.373630
C140  C     C_2   0.211464 0.551559 0.596425 0.842688
O151  O     O_2   0.174244 0.552670 0.547124 -0.533988
O152  O     O_R   0.240028 0.543982 0.576723 -0.675225
H44   H     H_    0.226162 0.540249 0.521293 0.373630
C141  C     C_2   0.294339 0.119787 0.320981 0.972605
O153  O     O_2   0.332237 0.125218 0.354917 -0.504225
O154  O     O_R   0.269550 0.171414 0.284636 -0.689676
H45   H     H_    0.286495 0.208777 0.289107 0.383424
C142  C     C_2   0.705661 0.119786 0.679019 0.972605
O155  O     O_2   0.667763 0.125217 0.645083 -0.504225
O156  O     O_R   0.730450 0.171414 0.715364 -0.689676
H46   H     H_    0.713505 0.208777 0.710893 0.383424
C143  C     C_2   0.794339 0.619786 0.320983 0.972604
O157  O     O_2   0.832237 0.625217 0.354918 -0.504225
O158  O     O_R   0.769550 0.671414 0.284638 -0.689676
H47   H     H_    0.786495 0.708777 0.289109 0.383424
C144  C     C_2   0.205661 0.619786 0.679018 0.972605
O159  O     O_2   0.167763 0.625217 0.645082 -0.504225
O160  O     O_R   0.230450 0.671414 0.715362 -0.689676
H48   H     H_    0.213505 0.708777 0.710891 0.383424

loop_
_geom_bond_atom_site_label_1
_geom_bond_atom_site_label_2
_geom_bond_distance
_ccdc_geom_bond_type
O44   Cu11  1.972146 S    
C59   H23   1.084336 S    
C135  O141  1.221680 D    
C31   C35   1.621767 S    
C131  O126  1.394281 S    
C14   H2    1.110669 S    
Cu5   Cu6   2.688141 S    
C132  O127  1.224070 D    
C104  C107  1.418165 A    
C9    C129  1.522634 S    
N22   O99   1.301155 A    
C39   N7    1.475484 S    
C36   C48   1.488135 S    
O26   Cu5   1.943096 S    
C29   N1    1.488254 S    
C100  C109  1.406025 A    
C23   C87   1.433192 S    
C60   H24   1.084337 S    
C24   C88   1.433192 S    
C113  C115  1.399094 A    
O29   C89   1.293620 A    
C12   C28   1.569421 S    
N12   O80   1.300852 A    
C16   C136  1.526423 S    
Cu6   O30   1.975266 S    
C30   C122  1.546685 S    
N7    O69   1.301997 A    
C81   C89   1.452745 S    
N18   O91   1.301149 A    
C15   C135  1.526425 S    
C13   C133  1.526425 S    
C1    C77   1.451361 S    
N23   O102  1.300925 A    
O4    C4    1.295125 A    
C57   C61   1.390636 A    
C121  O50   1.395716 S    
N9    O73   1.301402 A    
C98   C108  1.464185 S    
C99   C105  1.402430 A    
C134  O140  1.398624 S    
N10   O76   1.300851 A    
N29   O129  1.301178 A    
C123  O54   1.395715 S    
O41   C93   1.283728 A    
O22   Cu6   1.946891 S    
C14   C26   1.577866 S    
C21   C45   1.206658 T    
O122  H33   1.013937 S    
O25   Cu6   1.943102 S    
N11   O77   1.301403 A    
N30   O131  1.301180 A    
C6    C54   1.433199 S    
C34   C46   1.488135 S    
O43   C95   1.283728 A    
O16   Cu4   1.944862 S    
C127  O109  1.223068 D    
O13   C5    1.298158 A    
O7    Cu4   1.972897 S    
C60   C80   1.394127 A    
O15   C7    1.298158 A    
O54   H27   1.014014 S    
O6    C2    1.295275 A    
C42   H6    1.114192 S    
Cu11  Cu12  2.650748 S    
C100  N22   1.437713 S    
O9    C5    1.298547 A    
N4    O64   1.302154 A    
C23   C47   1.206658 T    
O17   Cu5   1.975510 S    
C82   C90   1.452742 S    
O35   C92   1.283130 A    
N17   O90   1.301100 A    
C15   C27   1.577865 S    
C141  O153  1.223641 D    
O8    Cu4   1.972897 S    
C25   C49   1.481869 S    
C16   H4    1.110669 S    
O21   Cu5   1.946897 S    
O154  H45   1.013956 S    
N15   O86   1.301186 A    
C121  O49   1.223733 D    
C12   C132  1.522631 S    
C17   C137  1.541947 S    
O3    Cu2   1.971819 S    
C2    C78   1.451363 S    
C115  C119  1.411958 A    
C73   N17   1.437176 S    
O150  H43   1.013924 S    
C33   C37   1.584558 S    
C111  C117  1.399094 A    
C75   C79   1.406970 A    
C144  O159  1.223640 D    
C35   C39   1.584557 S    
C58   C62   1.390638 A    
C36   C40   1.584557 S    
O41   Cu10  1.972147 S    
C10   H18   1.114606 S    
C137  O145  1.224884 D    
O17   C83   1.293563 A    
O19   Cu7   1.975510 S    
O3    C3    1.295124 A    
O128  H36   1.013935 S    
C37   C41   1.559898 S    
C129  O121  1.224069 D    
C39   H15   1.109958 S    
O142  H39   1.013859 S    
C18   C138  1.541945 S    
C49   C53   1.205496 T    
C114  C116  1.399094 A    
C19   C139  1.541944 S    
C51   C55   1.205497 T    
C17   C33   1.616326 S    
C142  O156  1.400793 S    
C43   H7    1.114193 S    
C133  O137  1.221678 D    
C20   C36   1.616327 S    
C37   N5    1.475483 S    
Cu7   Cu8   2.688141 S    
O39   Cu11  1.969730 S    
C20   C144  1.549455 S    
C118  N32   1.437045 S    
C9    C25   1.569419 S    
C10   C30   1.606947 S    
N1    O57   1.303096 A    
C40   C44   1.559898 S    
C72   N16   1.436960 S    
C26   C50   1.481869 S    
C101  C103  1.402430 A    
C81   C111  1.408572 A    
N26   O115  1.301159 A    
N13   O81   1.301184 A    
C74   C78   1.406970 A    
C31   N3    1.488253 S    
C130  O124  1.394280 S    
C57   C77   1.394130 A    
O5    Cu3   1.972897 S    
O27   C87   1.297633 A    
N26   O116  1.300921 A    
C128  O112  1.397577 S    
C15   H3    1.110669 S    
N5    O65   1.301999 A    
C66   C70   1.416195 A    
C16   C28   1.577865 S    
N32   O136  1.300960 A    
O37   C93   1.284065 A    
C82   C114  1.408570 A    
O23   C87   1.295974 A    
C126  O108  1.397579 S    
C83   C109  1.453772 S    
C24   C48   1.206658 T    
O19   C84   1.293565 A    
O28   Cu7   1.943096 S    
C65   C93   1.458690 S    
C74   N18   1.437181 S    
N25   O114  1.300920 A    
O27   Cu8   1.943102 S    
C60   C64   1.390638 A    
C22   C46   1.206658 T    
C38   C42   1.559898 S    
O33   C91   1.283130 A    
O13   Cu3   1.944858 S    
C124  O55   1.223735 D    
C72   C76   1.403169 A    
Cu7   O31   1.975266 S    
O5    C1    1.295276 A    
C125  O105  1.223072 D    
C20   C140  1.541946 S    
N5    O66   1.301315 A    
N8    O72   1.301319 A    
O8    C4    1.295275 A    
C122  O51   1.223733 D    
N7    O70   1.301319 A    
C27   C43   1.557276 S    
O15   Cu4   1.944858 S    
C61   N9    1.439057 S    
O24   Cu8   1.946891 S    
N16   O88   1.301186 A    
C69   C73   1.403167 A    
N3    O62   1.302154 A    
O42   C94   1.283731 A    
O23   Cu7   1.946897 S    
O112  H32   1.013812 S    
N31   O134  1.300961 A    
C100  C106  1.402430 A    
C11   C131  1.522633 S    
C102  N24   1.437714 S    
O18   C83   1.293567 A    
C68   C72   1.416196 A    
C143  O158  1.400794 S    
C99   N21   1.437714 S    
O140  H38   1.013857 S    
C61   C65   1.414545 A    
C112  N26   1.437503 S    
C64   N12   1.439054 S    
O14   C6    1.298158 A    
C63   C67   1.414545 A    
C102  C110  1.406023 A    
C52   C56   1.205496 T    
C11   C27   1.569421 S    
N14   O83   1.301186 A    
C28   C52   1.481869 S    
C42   H10   1.110775 S    
O1    Cu1   1.971819 S    
N21   O98   1.300923 A    
C71   C75   1.403169 A    
C11   C31   1.606947 S    
O10   C6    1.298548 A    
N22   O100  1.300924 A    
O18   Cu6   1.975510 S    
O45   C97   1.284941 A    
C67   C95   1.458690 S    
C140  O152  1.396830 S    
O40   C96   1.284065 A    
Cu12  O48   1.975159 S    
C105  C127  1.487731 S    
N18   O92   1.301096 A    
N20   O95   1.301149 A    
C138  O148  1.396829 S    
C34   C38   1.584558 S    
C21   C85   1.433192 S    
N19   O93   1.301149 A    
C101  C110  1.406021 A    
N2    O59   1.303098 A    
C106  C128  1.487731 S    
C134  O139  1.221681 D    
O152  H44   1.013924 S    
C22   C86   1.433192 S    
C123  O53   1.223736 D    
C136  O144  1.398626 S    
O34   Cu10  1.975077 S    
C118  C120  1.411957 A    
N30   O132  1.300961 A    
C139  O150  1.396831 S    
C62   C66   1.414546 A    
C40   N8    1.475482 S    
C13   C25   1.577866 S    
O148  H42   1.013926 S    
C58   C78   1.394128 A    
N24   O103  1.301153 A    
C126  O107  1.223069 D    
C18   C34   1.616327 S    
O138  H37   1.013858 S    
O48   C98   1.284938 A    
O30   C89   1.293620 A    
O144  H40   1.013858 S    
O39   C95   1.284065 A    
Cu10  O46   1.975159 S    
C103  C125  1.487730 S    
O47   C98   1.284941 A    
C127  O110  1.397578 S    
C10   C26   1.569421 S    
N27   O117  1.301157 A    
C135  O142  1.398625 S    
N17   O89   1.301153 A    
O36   C92   1.283130 A    
C69   N13   1.436961 S    
C32   C124  1.546686 S    
N29   O130  1.300961 A    
C132  O128  1.394283 S    
O12   Cu2   1.944851 S    
O50   H25   1.014013 S    
C44   H8    1.114193 S    
Cu8   O32   1.975266 S    
O1    C1    1.295125 A    
O26   C86   1.297635 A    
O56   H28   1.014014 S    
C29   C33   1.621766 S    
C117  N31   1.437044 S    
Cu9   Cu10  2.650748 S    
C13   C17   1.600327 S    
C91   C119  1.457854 S    
C64   C68   1.414546 A    
C15   C19   1.600327 S    
O126  H35   1.013937 S    
C31   C123  1.546686 S    
N12   O79   1.301403 A    
O22   C86   1.295975 A    
O37   Cu9   1.969730 S    
C41   H5    1.114191 S    
N23   O101  1.301155 A    
O38   C94   1.284065 A    
C19   C35   1.616328 S    
N8    O71   1.301999 A    
C32   N4    1.488253 S    
C66   C94   1.458690 S    
N9    O74   1.300851 A    
Cu1   Cu3   2.692681 S    
C40   H16   1.109958 S    
C102  C104  1.402430 A    
O106  H29   1.013812 S    
C14   C134  1.526424 S    
N10   O75   1.301403 A    
C142  O155  1.223641 D    
O25   C85   1.297633 A    
O42   Cu9   1.972146 S    
C106  C108  1.418164 A    
Cu2   Cu4   2.692681 S    
C3    C79   1.451363 S    
O28   C88   1.297635 A    
C92   C120  1.457854 S    
O4    Cu2   1.971817 S    
O160  H48   1.013956 S    
C59   C63   1.390638 A    
O21   C85   1.295974 A    
C63   N11   1.439054 S    
C13   H1    1.110669 S    
O124  H34   1.013936 S    
O24   C88   1.295975 A    
C58   H22   1.084335 S    
C9    H17   1.114607 S    
C97   C107  1.464185 S    
C68   C96   1.458690 S    
C11   H19   1.114606 S    
C99   C109  1.406021 A    
N6    O68   1.301319 A    
O40   Cu12  1.969731 S    
O2    Cu1   1.971817 S    
O10   Cu1   1.944851 S    
C130  O123  1.224069 D    
O46   C97   1.284938 A    
C75   N19   1.437182 S    
C18   C142  1.549455 S    
C32   C36   1.621767 S    
O44   C96   1.283731 A    
C125  O106  1.397578 S    
C128  O111  1.223069 D    
C50   C54   1.205496 T    
C141  O154  1.400792 S    
C62   N10   1.439055 S    
C70   N14   1.436961 S    
C12   C32   1.606947 S    
Cu5   O29   1.975266 S    
N31   O133  1.301179 A    
C131  O125  1.224069 D    
O20   C84   1.293565 A    
O146  H41   1.013926 S    
C29   C121  1.546686 S    
O108  H30   1.013811 S    
O158  H47   1.013954 S    
C116  N30   1.437045 S    
N25   O113  1.301159 A    
N6    O67   1.301997 A    
O7    C3    1.295275 A    
C144  O160  1.400792 S    
C25   C41   1.557276 S    
N19   O94   1.301095 A    
C27   C51   1.481869 S    
C137  O146  1.396826 S    
C19   C143  1.549455 S    
N11   O78   1.300851 A    
C10   C130  1.522633 S    
C114  N28   1.437505 S    
O31   C90   1.293620 A    
C73   C77   1.406969 A    
C111  N25   1.437504 S    
C30   N2    1.488253 S    
C8    C56   1.433199 S    
N3    O61   1.303098 A    
C129  O122  1.394279 S    
N28   O120  1.300917 A    
C17   C141  1.549456 S    
C28   C44   1.557276 S    
C65   C69   1.416196 A    
O33   Cu9   1.975077 S    
O11   C7    1.298547 A    
O12   C8    1.298548 A    
O110  H31   1.013812 S    
C84   C110  1.453772 S    
O9    Cu1   1.944851 S    
C37   H13   1.109956 S    
C39   C43   1.559898 S    
N27   O118  1.300921 A    
C38   N6    1.475483 S    
O20   Cu8   1.975510 S    
O16   C8    1.298158 A    
C16   C20   1.600327 S    
N14   O84   1.300896 A    
O11   Cu2   1.944851 S    
Cu11  O47   1.975159 S    
C81   C112  1.408569 A    
C115  N29   1.437045 S    
N21   O97   1.301153 A    
N4    O63   1.303098 A    
N13   O82   1.300897 A    
C105  C108  1.418162 A    
O52   H26   1.014014 S    
N28   O119  1.301161 A    
C76   N20   1.437181 S    
O6    Cu3   1.972897 S    
C4    C80   1.451363 S    
Cu9   O45   1.975159 S    
C26   C42   1.557276 S    
C140  O151  1.224885 D    
C70   C74   1.403167 A    
C71   N15   1.436962 S    
O35   Cu11  1.975077 S    
C104  C126  1.487729 S    
C82   C113  1.408572 A    
O36   Cu12  1.975077 S    
C12   H20   1.114607 S    
O32   C90   1.293620 A    
C44   H12   1.110775 S    
C117  C120  1.411959 A    
N20   O96   1.301093 A    
C112  C118  1.399094 A    
O2    C2    1.295125 A    
C59   C79   1.394127 A    
C138  O147  1.224885 D    
C30   C34   1.621767 S    
C14   C18   1.600327 S    
C103  C107  1.418162 A    
O34   C91   1.283130 A    
O14   Cu3   1.944862 S    
N2    O60   1.302154 A    
C41   H9    1.110777 S    
O38   Cu10  1.969731 S    
C124  O56   1.395715 S    
C136  O143  1.221681 D    
C113  N27   1.437504 S    
C43   H11   1.110776 S    
C33   C45   1.488135 S    
N15   O85   1.300895 A    
C101  N23   1.437711 S    
N1    O58   1.302155 A    
C139  O149  1.224885 D    
N32   O135  1.301180 A    
C143  O157  1.223641 D    
C9    C29   1.606947 S    
C116  C119  1.411957 A    
C38   H14   1.109958 S    
C122  O52   1.395719 S    
N24   O104  1.300925 A    
N16   O87   1.300896 A    
C76   C80   1.406969 A    
C133  O138  1.398624 S    
C5    C53   1.433199 S    
C67   C71   1.416196 A    
C7    C55   1.433199 S    
C57   H21   1.084334 S    
O156  H46   1.013954 S    
C35   C47   1.488135 S    
O43   Cu12  1.972147 S    
