data_mof_unit_53917.cif
_audit_creation_date              2013-03-05T15:50:42-0500
_audit_creation_method            fapswitch 2.2
_symmetry_space_group_name_H-M    P1
_symmetry_Int_Tables_number       1
_space_group_crystal_system       triclinic
_cell_length_a                    15.024811
_cell_length_b                    10.838914
_cell_length_c                    9.633027
_cell_angle_alpha                 90.589769
_cell_angle_beta                  90.865305
_cell_angle_gamma                 93.605658
_cell_volume                      1565.38058401

loop_
_atom_site_label
_atom_site_type_symbol
_atom_site_description
_atom_site_fract_x
_atom_site_fract_y
_atom_site_fract_z
_atom_type_partial_charge
O1    O     O_R   0.499990 0.319640 0.618810 -0.593433
O2    O     O_R   0.500000 0.319660 0.381240 -0.567458
C1    C     C_R   0.504833 0.262971 0.500158 0.808052
O3    O     O_R   0.370250 0.499960 0.618800 -0.592431
O4    O     O_R   0.370260 0.499980 0.381230 -0.577176
C2    C     C_R   0.329201 0.499640 0.499063 0.793833
Cu1   Cu    Cu3+1 0.499990 0.499990 0.640660 0.947297
Cu2   Cu    Cu3+1 0.500010 0.500010 0.359340 1.044794
O5    O     O_R   0.500000 0.680340 0.618760 -0.632017
O6    O     O_R   0.500010 0.680360 0.381190 -0.482568
O7    O     O_R   0.629740 0.500020 0.618770 -0.613473
O8    O     O_R   0.629750 0.500040 0.381200 -0.502764
C3    C     C_R   0.491206 0.736550 0.501800 0.870478
C4    C     C_R   0.671043 0.501891 0.500336 0.947060
C5    C     C_R   0.819534 0.609262 0.545821 0.125774
C6    C     C_R   0.768021 0.503694 0.499047 -0.199700
C7    C     C_R   0.808707 0.401854 0.441453 0.384606
C8    C     C_R   0.902025 0.404570 0.433426 0.011433
C9    C     C_R   0.953991 0.504708 0.494256 -0.050601
C10   C     C_R   0.912847 0.606710 0.552483 0.065434
C11   C     C_R   0.944424 0.308810 0.366586 -0.150403
C12   C     C_R   0.037105 0.309954 0.363687 -0.223071
C13   C     C_R   0.089061 0.406259 0.428221 0.119023
C14   C     C_R   0.047596 0.504056 0.494069 0.104548
C15   C     C_R   0.099880 0.601392 0.559338 0.112350
C16   C     C_R   0.058786 0.700516 0.619510 -0.216274
C17   C     C_R   0.966309 0.704148 0.614444 -0.138627
C18   C     C_R   0.181943 0.406723 0.427939 -0.246421
C19   C     C_R   0.233042 0.501320 0.496733 -0.042188
C20   C     C_R   0.192546 0.598035 0.562725 -0.225242
H1    H     H_    0.906205 0.232615 0.316051 0.194207
H2    H     H_    0.068161 0.234874 0.311975 0.154120
H3    H     H_    0.214622 0.332482 0.377099 0.137080
H4    H     H_    0.233421 0.671567 0.614004 0.141927
H5    H     H_    0.098263 0.775927 0.669571 0.153120
H6    H     H_    0.937381 0.782581 0.662341 0.189480
H7    H     H_    0.452616 0.110491 0.293441 0.204949
C21   C     C_R   0.571677 0.124797 0.742374 -0.179113
H8    H     H_    0.604486 0.215904 0.736752 0.177044
C22   C     C_R   0.574029 0.067054 0.870728 0.302678
C23   C     C_R   0.532472 0.950189 0.885171 -0.159976
H9    H     H_    0.528621 0.907613 0.985916 0.183446
C24   C     C_R   0.495595 0.887132 0.769483 -0.180601
H10   H     H_    0.458266 0.801292 0.790281 0.186889
C25   C     C_R   0.501538 0.938826 0.634752 0.074989
C26   C     C_R   0.527910 0.065420 0.625717 0.033341
C27   C     C_R   0.506895 0.128537 0.502294 -0.156319
C28   C     C_R   0.472281 0.062560 0.386078 -0.200356
C29   C     C_R   0.459854 0.935076 0.387868 0.220914
C30   C     C_R   0.480407 0.870687 0.509451 -0.189661
H11   H     H_    0.386422 0.377862 0.124597 0.125942
C31   C     C_R   0.641517 0.643906 0.139476 0.523635
C32   C     C_R   0.718457 0.671974 0.062177 -0.265190
H12   H     H_    0.779522 0.709153 0.112104 0.173791
C33   C     C_R   0.711703 0.677821 0.920774 -0.239254
H13   H     H_    0.766519 0.720020 0.863301 0.219088
C34   C     C_R   0.631981 0.640041 0.856048 -0.122752
H14   H     H_    0.624975 0.666893 0.751213 0.247083
C35   C     C_R   0.565517 0.569518 0.926250 0.125881
C36   C     C_R   0.567444 0.570223 0.075772 0.141938
N1    N     N_R   0.500860 0.501210 0.147910 -0.181023
C37   C     C_R   0.437587 0.433083 0.071603 -0.004260
H15   H     H_    0.386803 0.377244 0.867496 0.138072
C38   C     C_R   0.437804 0.432841 0.924068 -0.016060
N2    N     N_R   0.500890 0.501290 0.852040 -0.196760
Br1   Br    Br    0.763224 0.762346 0.576875 -0.638480
Br2   Br    Br    0.627716 0.152009 0.028759 -0.526734
Br3   Br    Br    0.405042 0.857126 0.224714 -0.554680
O9    O     O_3   0.639096 0.697387 0.269823 -0.539953
C39   C     C_3   0.657247 0.827399 0.264948 -0.200449
H16   H     H_    0.618947 0.870201 0.180548 0.171281
H17   H     H_    0.729707 0.851929 0.255453 0.172993
H18   H     H_    0.637631 0.869020 0.364295 0.198896
O10   O     O_3   0.756438 0.303943 0.383990 -0.556219
C40   C     C_3   0.745410 0.210919 0.484602 -0.279349
H19   H     H_    0.809757 0.170625 0.510813 0.170520
H20   H     H_    0.699549 0.135298 0.441618 0.207006
H21   H     H_    0.715481 0.246831 0.580416 0.136043

loop_
_geom_bond_atom_site_label_1
_geom_bond_atom_site_label_2
_geom_bond_distance
_ccdc_geom_bond_type
C33   H13   1.079650 S    
C29   Br3   1.925683 S    
C8    C11   1.406934 A    
C23   H9    1.079677 S    
C9    C10   1.415186 A    
C24   H10   1.077944 S    
Cu1   Cu2   2.709970 S    
C32   H12   1.082437 S    
Cu1   O7    1.963983 S    
C11   H1    1.082777 S    
C16   C17   1.392612 A    
C12   H2    1.083765 S    
C18   C19   1.396971 A    
O4    C2    1.299990 A    
O7    C4    1.306680 A    
C34   C35   1.404948 A    
C5    C6    1.406699 A    
C8    C9    1.413346 A    
O5    C3    1.295304 A    
C37   C38   1.421230 A    
C31   O9    1.379494 S    
C31   C36   1.452763 A    
C6    C7    1.408001 A    
C22   Br2   1.912231 S    
C13   C14   1.412543 A    
C39   H16   1.111117 S    
Cu2   N1    2.037115 S    
C35   C36   1.440135 A    
C11   C12   1.392502 A    
C23   C24   1.390724 A    
O9    C39   1.419798 S    
H11   C37   1.081713 S    
O3    Cu1   1.957477 S    
C32   C33   1.366808 A    
C5    C10   1.404528 A    
O10   C40   1.409741 S    
C20   H4    1.085159 S    
C14   C15   1.411612 A    
O3    C2    1.299598 A    
C15   C16   1.397483 A    
C25   C26   1.408000 A    
C5    Br1   1.931950 S    
H15   C38   1.081596 S    
C36   N1    1.407423 A    
O1    C1    1.297171 A    
C40   H19   1.112294 S    
C19   C20   1.396932 A    
Cu1   N2    2.035967 S    
C40   H20   1.109691 S    
C27   C28   1.397970 A    
Cu2   O8    1.957475 S    
C39   H18   1.105718 S    
C7    C8    1.403860 A    
C13   C18   1.395271 A    
H7    C28   1.083713 S    
C24   C25   1.420755 A    
C22   C23   1.385814 A    
O8    C4    1.295705 A    
C18   H3    1.085031 S    
C33   C34   1.379007 A    
C7    O10   1.385418 S    
C4    C6    1.456211 S    
C31   C32   1.403505 A    
C15   C20   1.394947 A    
Cu1   O5    1.968297 S    
C26   C27   1.419107 A    
C28   C29   1.382975 A    
O1    Cu1   1.963942 S    
O2    Cu2   1.968299 S    
O6    C3    1.318525 A    
O4    Cu2   1.963982 S    
C10   C17   1.408097 A    
C17   H6    1.081197 S    
C38   N2    1.368326 A    
O2    C1    1.308688 A    
C35   N2    1.370624 A    
C21   C22   1.392532 A    
C34   H14   1.059407 S    
C21   H8    1.077856 S    
C25   C30   1.429598 A    
C1    C27   1.459749 S    
C9    C14   1.406888 A    
N1    C37   1.367029 A    
C40   H21   1.110307 S    
C21   C26   1.420928 A    
C3    C30   1.474253 S    
C16   H5    1.083843 S    
C2    C19   1.445869 S    
Cu2   O6    1.963942 S    
C29   C30   1.409675 A    
C12   C13   1.398192 A    
C39   H17   1.109690 S    
