data_mof_unit_8014.cif
_audit_creation_date              2012-12-11T21:06:27-0500
_audit_creation_method            fapswitch 2.2
_symmetry_space_group_name_H-M    P1
_symmetry_Int_Tables_number       1
_space_group_crystal_system       triclinic
_cell_length_a                    36.469196
_cell_length_b                    39.444115
_cell_length_c                    8.395867
_cell_angle_alpha                 90.00005
_cell_angle_beta                  93.784598
_cell_angle_gamma                 90.000367
_cell_volume                      12051.076203

loop_
_atom_site_label
_atom_site_type_symbol
_atom_type_description
_atom_site_fract_x
_atom_site_fract_y
_atom_site_fract_z
_atom_type_partial_charge
Ba1   Ba    Ba6+2 0.000060 0.523150 0.844950 1.708547
Ba2   Ba    Ba6+2 0.000060 0.476850 0.344950 1.708531
Ba3   Ba    Ba6+2 0.500060 0.023150 0.844950 1.708392
Ba4   Ba    Ba6+2 0.500060 0.976850 0.344950 1.708481
C1    C     C_3   0.987171 0.691239 0.644218 -0.313904
C2    C     C_2   0.908955 0.634836 0.293276 -0.066699
C3    C     C_R   0.631480 0.814044 0.695949 0.591038
C4    C     C_2   0.091459 0.634629 0.396153 -0.082964
C5    C     C_2   0.091455 0.365370 0.896148 -0.083048
C6    C     C_2   0.591440 0.134643 0.396072 -0.082794
C7    C     C_2   0.591457 0.865371 0.896154 -0.083045
C8    C     C_3   0.057999 0.612683 0.415947 -0.105927
C9    C     C_3   0.057995 0.387315 0.915940 -0.106184
C10   C     C_3   0.557995 0.112681 0.415911 -0.105176
C11   C     C_3   0.557996 0.887315 0.915942 -0.106184
C12   C     C_1   0.081134 0.575260 0.210662 0.036440
C13   C     C_2   0.408954 0.865165 0.793272 -0.066616
C14   C     C_1   0.081131 0.424738 0.710657 0.036392
C15   C     C_1   0.581143 0.075257 0.210675 0.036429
C16   C     C_1   0.581131 0.924738 0.710654 0.036399
C17   C     C_2   0.107063 0.597283 0.176543 -0.088489
C18   C     C_2   0.107057 0.402713 0.676525 -0.088541
C19   C     C_2   0.607084 0.097272 0.176612 -0.088540
C20   C     C_2   0.607058 0.902713 0.676526 -0.088542
C21   C     C_2   0.113523 0.628595 0.275675 0.226853
C22   C     C_2   0.113518 0.371401 0.775660 0.226825
C23   C     C_2   0.613524 0.128596 0.275678 0.226840
C24   C     C_2   0.408961 0.134839 0.293290 -0.066808
C25   C     C_2   0.613520 0.871402 0.775665 0.226814
C26   C     C_R   0.739756 0.283774 0.053557 0.019203
C27   C     C_R   0.739759 0.716208 0.553759 0.019210
C28   C     C_R   0.239763 0.783790 0.053809 0.019207
C29   C     C_R   0.239758 0.216204 0.553798 0.019209
C30   C     C_R   0.777396 0.274133 0.059329 0.051042
C31   C     C_R   0.777393 0.725865 0.559287 0.051030
C32   C     C_R   0.277396 0.774132 0.059308 0.051030
C33   C     C_R   0.277390 0.225864 0.559282 0.051029
C34   C     C_R   0.787982 0.240329 0.100255 0.020818
C35   C     C_3   0.942383 0.387174 0.773745 -0.113615
C36   C     C_R   0.787973 0.759684 0.599965 0.020819
C37   C     C_R   0.287975 0.740312 0.099958 0.020821
C38   C     C_R   0.287969 0.259686 0.599917 0.020820
C39   C     C_3   0.895931 0.522660 0.142577 0.379316
C40   C     C_3   0.895929 0.477341 0.642578 0.379308
C41   C     C_3   0.395931 0.022659 0.142580 0.379282
C42   C     C_3   0.395928 0.977342 0.642582 0.379323
C43   C     C_R   0.730865 0.317819 0.013022 -0.096398
C44   C     C_R   0.730869 0.682161 0.513240 -0.096388
C45   C     C_R   0.230876 0.817845 0.013428 -0.096394
C46   C     C_3   0.942386 0.612828 0.273742 -0.113941
C47   C     C_R   0.230871 0.182151 0.513373 -0.096385
C48   C     C_R   0.852175 0.256143 0.069501 -0.061695
C49   C     C_R   0.852168 0.743871 0.569260 -0.061687
C50   C     C_R   0.352167 0.756116 0.069096 -0.061684
C51   C     C_R   0.352162 0.243878 0.569114 -0.061686
C52   C     C_R   0.269533 0.681862 0.176253 -0.098561
C53   C     C_R   0.269524 0.318145 0.676046 -0.098559
C54   C     C_R   0.769555 0.181912 0.177121 -0.098556
C55   C     C_R   0.769526 0.818148 0.676009 -0.098560
C56   C     C_R   0.242664 0.658355 0.210573 -0.058360
C57   C     C_3   0.442382 0.887176 0.773734 -0.113598
C58   C     C_R   0.242655 0.341652 0.710359 -0.058356
C59   C     C_R   0.742687 0.158404 0.211452 -0.058358
C60   C     C_R   0.742656 0.841656 0.710313 -0.058355
C61   C     C_R   0.825859 0.232195 0.104369 -0.099286
C62   C     C_R   0.825851 0.767821 0.604068 -0.099287
C63   C     C_R   0.325850 0.732167 0.103926 -0.099283
C64   C     C_R   0.325845 0.267828 0.603930 -0.099295
C65   C     C_3   0.862443 0.545766 0.130234 0.537956
C66   C     C_3   0.862440 0.454235 0.630224 0.537969
C67   C     C_3   0.362442 0.045765 0.130242 0.537921
C68   C     C_3   0.442394 0.112831 0.273763 -0.114180
C69   C     C_3   0.362439 0.954236 0.630227 0.537959
C70   C     C_3   0.104067 0.477023 0.047012 0.295042
C71   C     C_3   0.104069 0.522976 0.547014 0.295032
C72   C     C_3   0.604063 0.977021 0.047012 0.295040
C73   C     C_3   0.604071 0.022975 0.547009 0.294963
C74   C     C_3   0.137495 0.453887 0.059680 -0.335052
C75   C     C_3   0.137497 0.546113 0.559691 -0.335038
C76   C     C_3   0.637490 0.953884 0.059665 -0.335070
C77   C     C_3   0.637498 0.046113 0.559703 -0.334956
C78   C     C_3   0.003533 0.658515 0.585226 0.323541
C79   C     C_1   0.919118 0.424505 0.978903 0.014821
C80   C     C_3   0.003591 0.341441 0.085133 0.323067
C81   C     C_3   0.503228 0.158317 0.585636 0.325352
C82   C     C_3   0.503586 0.841444 0.085131 0.323092
C83   C     C_R   0.822233 0.356023 0.947573 0.609400
C84   C     C_R   0.822236 0.643969 0.447662 0.609400
C85   C     C_R   0.322240 0.856033 0.947755 0.609396
C86   C     C_R   0.322237 0.143964 0.447716 0.609444
C87   C     C_1   0.919121 0.575497 0.478906 0.014789
C88   C     C_1   0.419120 0.924504 0.978908 0.014821
C89   C     C_3   0.987175 0.308751 0.144266 -0.313723
C90   C     C_1   0.419122 0.075497 0.478904 0.014637
C91   C     C_2   0.893272 0.402406 0.013095 -0.098080
C92   C     C_2   0.893278 0.597597 0.513107 -0.098104
C93   C     C_2   0.393280 0.902401 0.013119 -0.098048
C94   C     C_2   0.393278 0.097596 0.513100 -0.098285
C95   C     C_2   0.886865 0.371120 0.913756 0.224626
C96   C     C_2   0.886867 0.628880 0.413752 0.224618
C97   C     C_2   0.386869 0.871118 0.913759 0.224536
C98   C     C_2   0.386868 0.128880 0.413749 0.224505
C99   C     C_R   0.804791 0.298587 0.023739 -0.079941
C100  C     C_3   0.487155 0.191219 0.644265 -0.314321
C101  C     C_R   0.804789 0.701411 0.523706 -0.079951
C102  C     C_R   0.304792 0.798585 0.023723 -0.079954
C103  C     C_R   0.304787 0.201411 0.523699 -0.079960
C104  C     C_R   0.794853 0.332211 0.983337 -0.036367
C105  C     C_R   0.794855 0.667780 0.483426 -0.036367
C106  C     C_R   0.294860 0.832222 0.983525 -0.036361
C107  C     C_R   0.294855 0.167775 0.483484 -0.036387
C108  C     C_R   0.757736 0.341336 0.978857 -0.045545
C109  C     C_R   0.757739 0.658647 0.479032 -0.045536
C110  C     C_R   0.257747 0.841360 0.979235 -0.045531
C111  C     C_3   0.487168 0.808755 0.144264 -0.313799
C112  C     C_R   0.257742 0.158638 0.479169 -0.045533
C113  C     C_R   0.842163 0.289426 0.028684 -0.027457
C114  C     C_R   0.842159 0.710581 0.528541 -0.027441
C115  C     C_R   0.342159 0.789411 0.028472 -0.027446
C116  C     C_R   0.342154 0.210585 0.528468 -0.027400
C117  C     C_3   0.996698 0.658746 0.104710 0.321207
C118  C     C_3   0.996800 0.341325 0.604593 0.321837
C119  C     C_3   0.496713 0.158742 0.104645 0.321026
C120  C     C_3   0.496803 0.841327 0.604583 0.321831
C121  C     C_2   0.941726 0.420099 0.863489 -0.275511
C122  C     C_R   0.868907 0.313724 0.992971 0.591861
C123  C     C_2   0.941730 0.579903 0.363488 -0.275444
C124  C     C_2   0.441725 0.920101 0.863476 -0.275524
C125  C     C_2   0.441732 0.079904 0.363491 -0.275665
C126  C     C_2   0.058468 0.579795 0.325816 -0.267619
C127  C     C_2   0.058467 0.420204 0.825818 -0.267621
C128  C     C_2   0.558470 0.079794 0.325794 -0.267923
C129  C     C_2   0.558465 0.920202 0.825810 -0.267628
C130  C     C_R   0.212414 0.759342 0.088753 0.020664
C131  C     C_R   0.212410 0.240649 0.588792 0.020664
C132  C     C_R   0.712406 0.259320 0.088408 0.020660
C133  C     C_R   0.868904 0.686284 0.492849 0.591825
C134  C     C_R   0.712412 0.740651 0.588793 0.020665
C135  C     C_R   0.260634 0.715884 0.135264 0.020188
C136  C     C_R   0.260627 0.284116 0.635176 0.020190
C137  C     C_R   0.760644 0.215906 0.135657 0.020188
C138  C     C_R   0.760630 0.784117 0.635183 0.020187
C139  C     C_R   0.222997 0.725532 0.129598 0.050141
C140  C     C_R   0.222992 0.274463 0.629574 0.050136
C141  C     C_R   0.722998 0.225532 0.129621 0.050154
C142  C     C_R   0.722994 0.774464 0.629578 0.050137
C143  C     C_R   0.174525 0.767453 0.084165 -0.098187
C144  C     C_R   0.368905 0.813709 0.992778 0.591827
C145  C     C_R   0.174524 0.232531 0.584329 -0.098189
C146  C     C_R   0.674507 0.267403 0.083350 -0.098184
C147  C     C_R   0.674527 0.732530 0.584377 -0.098189
C148  C     C_R   0.148206 0.743502 0.118938 -0.062195
C149  C     C_R   0.148205 0.256481 0.619114 -0.062194
C150  C     C_R   0.648188 0.243450 0.118103 -0.062184
C151  C     C_R   0.648209 0.756480 0.619170 -0.062193
C152  C     C_R   0.158224 0.710236 0.160068 -0.029346
C153  C     C_R   0.158221 0.289753 0.660142 -0.029325
C154  C     C_R   0.658216 0.210210 0.159665 -0.029372
C155  C     C_R   0.368900 0.186287 0.492779 0.591794
C156  C     C_R   0.658224 0.789753 0.660169 -0.029325
C157  C     C_R   0.195600 0.701082 0.165218 -0.079617
C158  C     C_R   0.195595 0.298913 0.665197 -0.079622
C159  C     C_R   0.695602 0.201081 0.165237 -0.079611
C160  C     C_R   0.695598 0.798914 0.665201 -0.079622
C161  C     C_R   0.205541 0.667470 0.205860 -0.034364
C162  C     C_R   0.205534 0.332531 0.705747 -0.034368
C163  C     C_R   0.705553 0.167493 0.206296 -0.034374
C164  C     C_R   0.705536 0.832533 0.705729 -0.034369
C165  C     C_3   0.013254 0.691340 0.045270 -0.311955
C166  C     C_2   0.908956 0.365161 0.793293 -0.066621
C167  C     C_3   0.013270 0.308676 0.545274 -0.312057
C168  C     C_3   0.513229 0.191360 0.045210 -0.311995
C169  C     C_3   0.513272 0.808677 0.545270 -0.312061
C170  C     C_R   0.178159 0.643667 0.241722 0.592098
C171  C     C_R   0.178153 0.356334 0.741614 0.592105
C172  C     C_R   0.678171 0.143689 0.242140 0.592122
C173  C     C_R   0.678155 0.856337 0.741597 0.592107
C174  C     C_R   0.131480 0.685946 0.195848 0.591072
C175  C     C_R   0.131477 0.314043 0.695923 0.591040
C176  C     C_R   0.631472 0.185919 0.195450 0.591161
F1    F     F_    0.849828 0.549360 0.972097 -0.660837
F2    F     F_    0.849829 0.450640 0.472083 -0.660836
F3    F     F_    0.349827 0.049360 0.972106 -0.660828
F4    F     F_    0.349829 0.950639 0.472085 -0.660837
H1    H     H_    0.980644 0.640982 0.548315 0.016928
H2    H     H_    0.869776 0.428880 0.679542 -0.057535
H3    H     H_    0.336435 0.292635 0.633697 0.068676
H4    H     H_    0.963807 0.437848 0.845842 0.074538
H5    H     H_    0.963812 0.562155 0.345847 0.074551
H6    H     H_    0.463804 0.937851 0.845822 0.074544
H7    H     H_    0.463811 0.062153 0.345839 0.074642
H8    H     H_    0.036227 0.562199 0.343074 0.072169
H9    H     H_    0.036228 0.437802 0.843086 0.072189
H10   H     H_    0.536232 0.062194 0.343066 0.072191
H11   H     H_    0.536222 0.937797 0.843061 0.072199
H12   H     H_    0.019493 0.641241 0.143181 0.016176
H13   H     H_    0.369779 0.071120 0.179558 -0.057416
H14   H     H_    0.019642 0.358850 0.642365 0.016629
H15   H     H_    0.519535 0.141237 0.142945 0.016576
H16   H     H_    0.519645 0.858854 0.642338 0.016647
H17   H     H_    0.980942 0.665775 0.208622 -0.040350
H18   H     H_    0.981153 0.334372 0.708989 -0.041197
H19   H     H_    0.480977 0.165749 0.208700 -0.040032
H20   H     H_    0.481159 0.834377 0.708991 -0.041167
H21   H     H_    0.032949 0.685648 0.953777 0.165728
H22   H     H_    0.032946 0.314301 0.453594 0.165458
H23   H     H_    0.532884 0.185698 0.953493 0.165842
H24   H     H_    0.369773 0.928882 0.679555 -0.057581
H25   H     H_    0.532946 0.814301 0.453583 0.165445
H26   H     H_    0.991241 0.708401 0.994837 0.096563
H27   H     H_    0.991206 0.291632 0.495097 0.096718
H28   H     H_    0.491190 0.208431 0.995054 0.096387
H29   H     H_    0.491207 0.791634 0.495103 0.096735
H30   H     H_    0.905354 0.519879 0.269637 -0.127902
H31   H     H_    0.905348 0.480122 0.769641 -0.127902
H32   H     H_    0.405353 0.019878 0.269640 -0.127819
H33   H     H_    0.405346 0.980124 0.769646 -0.127868
H34   H     H_    0.917893 0.534488 0.075839 0.038401
H35   H     H_    0.094793 0.479953 0.919904 0.004893
H36   H     H_    0.917892 0.465512 0.575850 0.038383
H37   H     H_    0.417893 0.034488 0.075843 0.038449
H38   H     H_    0.417892 0.965512 0.575859 0.038377
H39   H     H_    0.094796 0.520047 0.419905 0.004883
H40   H     H_    0.594784 0.979950 0.919909 0.004897
H41   H     H_    0.594802 0.020044 0.419896 0.004895
H42   H     H_    0.082023 0.465198 0.113230 0.075616
H43   H     H_    0.082024 0.534801 0.613227 0.075598
H44   H     H_    0.582021 0.965197 0.113247 0.075640
H45   H     H_    0.980722 0.358970 0.047776 0.016647
H46   H     H_    0.582023 0.034800 0.613207 0.075620
H47   H     H_    0.159587 0.464541 0.989701 0.136652
H48   H     H_    0.159589 0.535459 0.489716 0.136657
H49   H     H_    0.659580 0.964537 0.989664 0.136651
H50   H     H_    0.659593 0.035459 0.489736 0.136646
H51   H     H_    0.130081 0.428377 0.012515 0.078624
H52   H     H_    0.130083 0.571623 0.512527 0.078609
H53   H     H_    0.630075 0.928374 0.012516 0.078619
H54   H     H_    0.630085 0.071622 0.512538 0.078690
H55   H     H_    0.147806 0.451324 0.186576 0.133847
H56   H     H_    0.480183 0.140731 0.550848 0.018466
H57   H     H_    0.147807 0.548675 0.686589 0.133848
H58   H     H_    0.647807 0.951324 0.186556 0.133848
H59   H     H_    0.647805 0.048675 0.686604 0.133855
H60   H     H_    0.019053 0.665350 0.480326 -0.041446
H61   H     H_    0.019182 0.334550 0.980486 -0.040847
H62   H     H_    0.518421 0.164917 0.479248 -0.043794
H63   H     H_    0.519176 0.834552 0.980479 -0.040835
H64   H     H_    0.972264 0.704480 0.542869 0.122160
H65   H     H_    0.972273 0.295498 0.042934 0.122144
H66   H     H_    0.472173 0.204404 0.542939 0.122560
H67   H     H_    0.480718 0.858974 0.047781 0.016619
H68   H     H_    0.472265 0.795502 0.042932 0.122191
H69   H     H_    0.967523 0.685721 0.736120 0.165485
H70   H     H_    0.967510 0.314318 0.236060 0.165682
H71   H     H_    0.467616 0.185929 0.736959 0.164731
H72   H     H_    0.467504 0.814322 0.236059 0.165619
H73   H     H_    0.028143 0.704627 0.146535 0.121896
H74   H     H_    0.028167 0.295401 0.646555 0.121980
H75   H     H_    0.528155 0.204626 0.146443 0.122106
H76   H     H_    0.528169 0.795403 0.646551 0.121988
H77   H     H_    0.876679 0.406732 0.113909 0.136434
H78   H     H_    0.840273 0.534869 0.199001 0.062189
H79   H     H_    0.876690 0.593273 0.613940 0.136467
H80   H     H_    0.376694 0.906722 0.113963 0.136492
H81   H     H_    0.376689 0.093272 0.613930 0.136537
H82   H     H_    0.749159 0.366965 0.948492 0.132218
H83   H     H_    0.749163 0.633016 0.448693 0.132219
H84   H     H_    0.249173 0.866997 0.948998 0.132225
H85   H     H_    0.249168 0.133002 0.448900 0.132220
H86   H     H_    0.095267 0.657340 0.468422 0.091169
H87   H     H_    0.095265 0.342660 0.968427 0.091194
H88   H     H_    0.595226 0.157369 0.468249 0.091183
H89   H     H_    0.840269 0.465132 0.698980 0.062187
H90   H     H_    0.595269 0.842662 0.968437 0.091205
H91   H     H_    0.119658 0.751305 0.113500 0.117927
H92   H     H_    0.119659 0.248672 0.613771 0.117928
H93   H     H_    0.619631 0.251231 0.112300 0.117910
H94   H     H_    0.619663 0.748668 0.613861 0.117931
H95   H     H_    0.163923 0.792226 0.053824 0.070539
H96   H     H_    0.163923 0.207750 0.554104 0.070540
H97   H     H_    0.663896 0.292153 0.052601 0.070531
H98   H     H_    0.663928 0.707746 0.554204 0.070543
H99   H     H_    0.703225 0.327454 0.006469 0.072668
H100  H     H_    0.340273 0.034867 0.199009 0.062188
H101  H     H_    0.703228 0.672525 0.506642 0.072657
H102  H     H_    0.203239 0.827489 0.006976 0.072663
H103  H     H_    0.203232 0.172510 0.506868 0.072659
H104  H     H_    0.905191 0.342471 0.720842 0.090463
H105  H     H_    0.905183 0.657522 0.220801 0.090460
H106  H     H_    0.405184 0.842479 0.720791 0.090545
H107  H     H_    0.405192 0.157525 0.220817 0.090556
H108  H     H_    0.880715 0.248323 0.074607 0.117313
H109  H     H_    0.880709 0.751694 0.574345 0.117317
H110  H     H_    0.380705 0.748288 0.074080 0.117321
H111  H     H_    0.340267 0.965135 0.698974 0.062191
H112  H     H_    0.380701 0.251706 0.574131 0.117318
H113  H     H_    0.297184 0.672250 0.183283 0.069544
H114  H     H_    0.297173 0.327764 0.682965 0.069541
H115  H     H_    0.797217 0.172325 0.184572 0.069539
H116  H     H_    0.797174 0.827770 0.682878 0.069542
H117  H     H_    0.009295 0.708263 0.693986 0.097042
H118  H     H_    0.009268 0.291715 0.194226 0.096901
H119  H     H_    0.509450 0.208202 0.692945 0.097378
H120  H     H_    0.509261 0.791716 0.194222 0.096929
H121  H     H_    0.251247 0.632744 0.241278 0.123541
H122  H     H_    0.869780 0.571121 0.179547 -0.057536
H123  H     H_    0.251237 0.367268 0.740975 0.123541
H124  H     H_    0.751280 0.132815 0.242526 0.123535
H125  H     H_    0.751238 0.867274 0.740896 0.123540
H126  H     H_    0.123658 0.592896 0.075794 0.101296
H127  H     H_    0.123649 0.407098 0.575763 0.101348
H128  H     H_    0.623703 0.092870 0.075956 0.101162
H129  H     H_    0.623648 0.907098 0.575761 0.101357
H130  H     H_    0.836450 0.207392 0.134185 0.068677
H131  H     H_    0.836442 0.792623 0.633922 0.068675
H132  H     H_    0.336439 0.707357 0.133644 0.068676
N1    N     N_R   0.858824 0.346589 0.951706 -0.426552
N2    N     N_R   0.858825 0.653410 0.451694 -0.426550
N3    N     N_R   0.358827 0.846587 0.951702 -0.426551
N4    N     N_R   0.358824 0.153410 0.451685 -0.426520
N5    N     N_R   0.141566 0.653097 0.237426 -0.424964
N6    N     N_R   0.141561 0.346898 0.737411 -0.424952
N7    N     N_R   0.641567 0.153096 0.237432 -0.424971
N8    N     N_R   0.641563 0.846899 0.737416 -0.424951
O1    O     O_2   0.072110 0.546320 0.923350 -0.456916
O2    O     O_3   0.973500 0.356147 0.483255 -0.564663
O3    O     O_3   0.473500 0.143854 0.983185 -0.564838
O4    O     O_3   0.473500 0.856147 0.483250 -0.564681
O5    O     O_3   0.958050 0.483830 0.034350 -0.502607
O6    O     O_3   0.958050 0.516170 0.534350 -0.502602
O7    O     O_3   0.458050 0.983830 0.034350 -0.502603
O8    O     O_3   0.458050 0.016170 0.534350 -0.502575
O9    O     O_2   0.813430 0.385040 0.911100 -0.577049
O10   O     O_2   0.813434 0.614945 0.411280 -0.577041
O11   O     O_2   0.313440 0.885060 0.911439 -0.577046
O12   O     O_2   0.072110 0.453680 0.423350 -0.456932
O13   O     O_2   0.313437 0.114938 0.411387 -0.577029
O14   O     O_2   0.099077 0.694006 0.188771 -0.623012
O15   O     O_2   0.099076 0.305978 0.688926 -0.623077
O16   O     O_2   0.599062 0.193956 0.188024 -0.622962
O17   O     O_2   0.599079 0.805976 0.688969 -0.623076
O18   O     O_2   0.901306 0.305655 0.999859 -0.623241
O19   O     O_2   0.901302 0.694359 0.499655 -0.623272
O20   O     O_2   0.401301 0.805629 0.999515 -0.623242
O21   O     O_2   0.401296 0.194367 0.499538 -0.623402
O22   O     O_2   0.186963 0.614662 0.278432 -0.595708
O23   O     O_2   0.572110 0.046320 0.923350 -0.456881
O24   O     O_2   0.186956 0.385344 0.778248 -0.595705
O25   O     O_2   0.686982 0.114704 0.279195 -0.595691
O26   O     O_2   0.686958 0.885348 0.778212 -0.595705
O27   O     O_3   0.042000 0.516250 0.155330 -0.499187
O28   O     O_3   0.042000 0.483750 0.655330 -0.499182
O29   O     O_3   0.542000 0.016250 0.155330 -0.499168
O30   O     O_3   0.542000 0.983750 0.655330 -0.499165
O31   O     O_3   0.012540 0.574900 0.645500 -0.469976
O32   O     O_3   0.012540 0.425100 0.145500 -0.469895
O33   O     O_3   0.512540 0.074900 0.645500 -0.470364
O34   O     O_2   0.572110 0.953680 0.423350 -0.456936
O35   O     O_3   0.512540 0.925100 0.145500 -0.469895
O36   O     O_2   0.079094 0.598060 0.741633 -0.482300
O37   O     O_2   0.079093 0.401938 0.241624 -0.482326
O38   O     O_2   0.579105 0.098052 0.741564 -0.482208
O39   O     O_2   0.579092 0.901937 0.241630 -0.482327
O40   O     O_3   0.113977 0.508662 0.111493 -0.627583
O41   O     O_3   0.113977 0.491337 0.611496 -0.627564
O42   O     O_3   0.613975 0.008660 0.111482 -0.627611
O43   O     O_3   0.613978 0.991336 0.611499 -0.627560
O44   O     O_3   0.026949 0.643778 0.706383 -0.561238
O45   O     O_3   0.886062 0.509101 0.579083 -0.601857
O46   O     O_3   0.026945 0.356222 0.206406 -0.561233
O47   O     O_3   0.526978 0.143785 0.706311 -0.561562
O48   O     O_3   0.526943 0.856222 0.206403 -0.561230
O49   O     O_2   0.928110 0.546600 0.766510 -0.429891
O50   O     O_2   0.928110 0.453400 0.266510 -0.429872
O51   O     O_2   0.428110 0.046600 0.766510 -0.429914
O52   O     O_2   0.428110 0.953400 0.266510 -0.429874
O53   O     O_3   0.987780 0.574950 0.044470 -0.471238
O54   O     O_3   0.987780 0.425050 0.544470 -0.471365
O55   O     O_3   0.487780 0.074950 0.044470 -0.471257
O56   O     O_3   0.886062 0.490899 0.079089 -0.601866
O57   O     O_3   0.487780 0.925050 0.544470 -0.471361
O58   O     O_2   0.921269 0.598216 0.948288 -0.448571
O59   O     O_2   0.921265 0.401785 0.448294 -0.448535
O60   O     O_2   0.421265 0.098211 0.948333 -0.448579
O61   O     O_2   0.421266 0.901786 0.448284 -0.448552
O62   O     O_3   0.386061 0.009101 0.579081 -0.601835
O63   O     O_3   0.386062 0.990899 0.079089 -0.601856
O64   O     O_3   0.973509 0.643852 0.983216 -0.564587
P1    P     P_3+3 0.075650 0.535480 0.098240 0.991359
P2    P     P_3+3 0.955038 0.393001 0.562192 0.977894
P3    P     P_3+3 0.455042 0.107003 0.062193 0.977773
P4    P     P_3+3 0.455038 0.893001 0.562184 0.977879
P5    P     P_3+3 0.045349 0.393117 0.127598 0.966823
P6    P     P_3+3 0.045352 0.606881 0.627599 0.966826
P7    P     P_3+3 0.545349 0.893116 0.127599 0.966815
P8    P     P_3+3 0.545357 0.106875 0.627564 0.966656
P9    P     P_3+3 0.075650 0.464520 0.598240 0.991345
P10   P     P_3+3 0.575650 0.035480 0.098240 0.991364
P11   P     P_3+3 0.575650 0.964520 0.598240 0.991358
P12   P     P_3+3 0.924520 0.535770 0.591580 1.040386
P13   P     P_3+3 0.924520 0.464230 0.091580 1.040399
P14   P     P_3+3 0.424520 0.035770 0.591580 1.040339
P15   P     P_3+3 0.424520 0.964230 0.091580 1.040406
P16   P     P_3+3 0.955041 0.607002 0.062184 0.977929

loop_
_geom_bond_atom_site_label_1
_geom_bond_atom_site_label_2
_ccdc_geom_bond_type
C128  H10   S    
C35   C121  S    
O30   P11   S    
C72   H44   S    
C138  C142  A    
C37   C63   A    
C10   C128  S    
C62   H131  S    
C72   H40   S    
C85   O11   D    
C8    C126  S    
C121  H4    S    
C67   H100  S    
C10   P8    S    
C75   H52   S    
C41   O63   S    
C151  H94   S    
O3    P3    S    
C8    P6    S    
O4    P4    S    
C94   H81   S    
C58   H123  S    
C77   H54   S    
C153  C175  A    
C145  H96   S    
C33   C38   A    
C154  C176  A    
C13   C57   S    
C87   C92   D    
C152  C174  A    
C148  C152  A    
C64   H3    S    
C42   O62   S    
C149  C153  A    
C40   C66   S    
C147  C151  A    
C113  C122  A    
C137  C141  A    
Ba1   O5    S    
C42   H33   S    
C99   C113  A    
C126  H8    S    
C5    C22   D    
C165  H73   S    
C100  H66   S    
C78   H1    S    
C32   C102  A    
C67   F3    S    
C160  C164  A    
C72   O42   S    
O58   P16   D    
C89   H70   S    
C122  O18   D    
O7    P15   S    
C74   H47   S    
C94   C98   S    
C38   C136  A    
C57   P4    S    
C15   C19   D    
C109  H83   S    
C110  H84   S    
O61   P4    D    
C44   H101  S    
C120  O4    S    
C167  H22   S    
C87   C123  D    
C84   C105  A    
O57   P4    S    
Ba2   O27   S    
C69   H24   S    
C26   C132  A    
C27   C44   A    
C17   H126  S    
C101  C114  A    
C112  H85   S    
C156  C160  A    
C103  C116  A    
C82   O48   S    
C82   H67   S    
Ba4   O7    S    
C167  H74   S    
C59   H124  S    
C47   C112  A    
C175  N6    Am   
Ba2   O6    S    
C40   O45   S    
C150  C154  A    
C50   C63   A    
C134  C147  A    
C15   P10   S    
O56   P13   S    
C56   C161  A    
C42   H38   S    
C119  H19   S    
C71   H43   S    
C31   C36   A    
C117  H17   S    
C118  O2    S    
C165  H21   S    
C1    C78   S    
C54   C137  A    
C77   H59   S    
C176  N7    Am   
C12   P1    S    
C85   C106  A    
O36   P6    D    
C124  H6    S    
C80   C89   S    
C75   H57   S    
C85   N3    Am   
C71   O41   S    
Ba2   O32   S    
C55   H116  S    
C175  O15   D    
C118  H18   S    
C91   H77   S    
C21   N5    S    
C63   H132  S    
O52   P15   D    
C46   C123  S    
C117  O64   S    
Ba4   P15   S    
C1    H117  S    
C153  C158  A    
C139  C157  A    
C157  C161  A    
C48   C61   A    
C65   F1    S    
C78   O44   S    
C6    C23   D    
C12   C17   D    
C41   C67   S    
C40   H36   S    
C145  C149  A    
C144  N3    Am   
Ba3   O8    S    
Ba3   P10   S    
C17   C21   S    
C28   C32   A    
C119  H15   S    
C172  N7    Am   
O46   P5    S    
C1    H69   S    
C95   N1    S    
C5    C9    S    
C56   H121  S    
C135  C139  A    
O31   P6    S    
C18   H127  S    
C65   H122  S    
C171  O24   D    
C106  C110  A    
C117  H12   S    
C119  C168  S    
O23   P10   D    
C48   C113  A    
C59   C163  A    
C130  C139  A    
C39   C65   S    
C50   C115  A    
C84   N2    Am   
C3    O17   D    
C7    C11   S    
C86   C107  A    
Ba1   O28   S    
C60   H125  S    
O33   P8    S    
C88   C93   D    
C45   H102  S    
Ba2   O12   S    
C26   C30   A    
C70   O40   S    
O64   P16   S    
O44   P6    S    
C89   H118  S    
C55   C138  A    
Ba3   P14   S    
C6    C10   S    
Ba2   P9    S    
C49   C114  A    
C141  C159  A    
C161  C170  A    
C142  C160  A    
C39   O56   S    
C2    C46   S    
C82   C111  S    
C146  H97   S    
C2    C96   D    
C76   H53   S    
C31   C101  A    
O35   P7    S    
C34   C61   A    
C4    C8    S    
Ba1   O31   S    
Ba4   P11   S    
C19   H128  S    
C118  H14   S    
C168  H75   S    
C174  O14   D    
C43   H99   S    
C154  C159  A    
C50   H110  S    
C58   C162  A    
C152  C157  A    
C82   H63   S    
C18   C22   S    
C34   C137  A    
C39   H34   S    
O34   P11   D    
C1    H64   S    
Ba3   Ba4   S    
Ba4   O35   S    
C15   C128  D    
C101  C105  A    
O1    P1    D    
C14   C18   D    
C103  C107  A    
C150  H93   S    
C169  H25   S    
C72   C76   S    
C122  N1    Am   
C52   H113  S    
C30   C99   A    
O45   P12   S    
C16   P11   S    
C127  H9    S    
C81   H56   S    
C41   H37   S    
O40   P1    S    
C70   H42   S    
C88   P15   S    
C28   C130  A    
C71   C75   S    
C134  C142  A    
C165  H26   S    
C92   C96   S    
Ba3   O55   S    
O29   P10   S    
C66   H2    S    
C118  C167  S    
C66   H89   S    
C6    H88   S    
C39   H30   S    
C42   C69   S    
C9    P5    S    
C73   H41   S    
C74   H55   S    
C170  O22   D    
C102  C115  A    
O62   P14   S    
C117  C165  S    
C51   C64   A    
C14   C127  D    
C68   C125  S    
C95   C166  D    
C133  O19   D    
C130  C143  A    
C162  C171  A    
C123  H5    S    
C100  H71   S    
C144  O20   D    
C47   H103  S    
C33   C103  A    
C174  N5    Am   
C13   H106  S    
C90   C94   D    
C91   C95   S    
C164  C173  A    
C40   H31   S    
O27   P1    S    
C87   P12   S    
C20   C25   S    
O54   P2    S    
C80   O46   S    
C158  C162  A    
C66   F2    S    
C111  H72   S    
C107  C112  A    
C173  N8    Am   
C12   C126  D    
C45   C110  A    
C5    H87   S    
O8    P14   S    
C36   C62   A    
C105  C109  A    
C4    C21   D    
Ba3   O30   S    
C32   C37   A    
C24   C68   S    
C79   C121  D    
C51   C116  A    
C168  H23   S    
Ba4   O8    S    
O60   P3    D    
C52   C135  A    
Ba4   O52   S    
C3    C156  A    
C29   C33   A    
C52   C56   A    
O5    P13   S    
C155  O21   D    
C7    H90   S    
C171  N6    Am   
C143  H95   S    
C73   C77   S    
C129  H11   S    
C9    C127  S    
C27   C134  A    
C80   H45   S    
C81   C100  S    
Ba4   O57   S    
Ba1   O6    S    
C100  H119  S    
C27   C31   A    
C147  H98   S    
C172  O25   D    
C3    N8    Am   
C79   P13   S    
C76   H49   S    
C166  H104  S    
C136  C140  A    
C24   H107  S    
C20   H129  S    
C148  H91   S    
Ba4   O34   S    
C65   H78   S    
C29   C47   A    
Ba3   O7    S    
C120  H16   S    
Ba3   O33   S    
C115  C144  A    
C60   C164  A    
C86   N4    Am   
Ba1   P1    S    
C119  O3    S    
C76   H58   S    
C57   C124  S    
C11   P7    S    
O39   P7    D    
C75   H48   S    
C37   C135  A    
O32   P5    S    
O37   P5    D    
C22   N6    S    
C104  C108  A    
C53   C136  A    
C70   C74   S    
O55   P3    S    
O2    P2    S    
C77   H50   S    
C96   N2    S    
C84   O10   D    
C44   C109  A    
C97   N3    S    
C98   N4    S    
C36   C138  A    
C25   N8    S    
C169  H29   S    
O59   P2    D    
C54   H115  S    
C53   C58   A    
Ba1   O49   S    
O51   P14   D    
C55   C60   A    
Ba2   O5    S    
Ba3   O51   S    
C120  H20   S    
C35   C166  S    
C43   C108  A    
C125  H7    S    
C41   H32   S    
O42   P10   S    
Ba1   Ba2   S    
C46   P16   S    
C13   C97   D    
C93   H80   S    
O28   P9    S    
C14   P9    S    
C83   C104  A    
C16   C20   D    
C74   H51   S    
C70   H35   S    
C116  C155  A    
C4    H86   S    
O63   P15   S    
C99   C104  A    
C19   C23   S    
C29   C131  A    
C114  C133  A    
C132  C141  A    
C2    H105  S    
C83   N1    Am   
O48   P7    S    
C71   H39   S    
Ba1   P12   S    
C38   C64   A    
C48   H108  S    
C88   C124  D    
C49   H109  S    
C89   H65   S    
C67   H13   S    
C28   C45   A    
Ba1   O53   S    
C90   C125  D    
C23   N7    S    
C73   H46   S    
C26   C43   A    
O49   P12   D    
C169  H76   S    
C53   H114  S    
C176  O16   D    
C69   F4    S    
C61   H130  S    
C83   O9    D    
C120  C169  S    
C131  C145  A    
C80   H61   S    
C35   P2    S    
C90   P14   S    
C86   O13   D    
C159  C163  A    
C173  O26   D    
C167  H27   S    
O38   P8    D    
C79   C91   D    
Ba2   O50   S    
O53   P16   S    
C78   H60   S    
Ba2   P13   S    
C49   C62   A    
C111  H120  S    
C51   H112  S    
C131  C140  A    
C92   H79   S    
C81   H62   S    
C16   C129  D    
C133  N2    Am   
C108  H82   S    
C111  H68   S    
C170  N5    Am   
Ba3   O23   S    
C102  C106  A    
C54   C59   A    
C73   O43   S    
O6    P12   S    
C140  C158  A    
C151  C156  A    
C30   C34   A    
O50   P13   D    
C168  H28   S    
C132  C146  A    
C11   C129  S    
O43   P11   S    
C69   H111  S    
C143  C148  A    
Ba4   O29   S    
C149  H92   S    
Ba2   O54   S    
C93   C97   S    
C24   C98   D    
C81   O47   S    
O47   P8    S    
C7    C25   D    
O12   P9    D    
C146  C150  A    
C68   P3    S    
O41   P9    S    
C155  N4    Am   
Ba1   O1    S    
C163  C172  A    
