data_mof_unit_20389.cif
_audit_creation_date              2012-12-11T16:08:47-0500
_audit_creation_method            fapswitch 2.2
_symmetry_space_group_name_H-M    P1
_symmetry_Int_Tables_number       1
_space_group_crystal_system       triclinic
_cell_length_a                    12.906924
_cell_length_b                    13.308268
_cell_length_c                    27.693594
_cell_angle_alpha                 94.691053
_cell_angle_beta                  90.563216
_cell_angle_gamma                 119.302665
_cell_volume                      4127.53042412

loop_
_atom_site_label
_atom_site_type_symbol
_atom_type_description
_atom_site_fract_x
_atom_site_fract_y
_atom_site_fract_z
_atom_type_partial_charge
C1    C     C_R   0.628016 0.895234 0.427310 0.556334
C2    C     C_R   0.567957 0.272494 0.221597 0.016370
C3    C     C_R   0.559666 0.260334 0.271558 -0.136238
C4    C     C_R   0.661787 0.313293 0.303042 0.024272
C5    C     C_R   0.681438 0.338218 0.203297 0.017479
C6    C     C_1   0.694025 0.364426 0.153417 -0.013599
C7    C     C_1   0.650087 0.294418 0.353630 -0.042432
C8    C     C_1   0.703867 0.393530 0.112869 0.020716
C9    C     C_R   0.167694 0.743615 0.353133 -0.115465
C10   C     C_R   0.147630 0.732270 0.303321 -0.016545
C11   C     C_R   0.134409 0.720866 0.202084 -0.026710
C12   C     C_R   0.601206 0.222330 0.440600 0.554321
C13   C     C_R   0.130575 0.627295 0.225005 0.001620
C14   C     C_R   0.137157 0.634971 0.275702 -0.097827
C15   C     C_R   0.133291 0.721689 0.151792 -0.127223
C16   C     C_R   0.115228 0.803207 0.129536 0.004222
C17   C     C_R   0.185650 0.934640 0.359131 -0.132214
C18   C     C_R   0.157827 0.921216 0.309299 0.014433
C19   C     C_R   0.145843 0.822422 0.280951 0.057480
C20   C     C_R   0.149461 0.007757 0.286877 -0.132641
C21   C     C_R   0.133278 0.998270 0.236523 -0.096020
C22   C     C_R   0.130769 0.904941 0.207998 0.027526
C23   C     C_R   0.266832 0.875227 0.426288 0.541468
C24   C     C_R   0.136626 0.815801 0.230314 0.046454
C25   C     C_R   0.117876 0.896890 0.157593 -0.092879
C26   C     C_R   0.198510 0.848862 0.380270 -0.001801
C27   C     C_R   0.739781 0.946846 0.354444 -0.149809
C28   C     C_R   0.739496 0.937102 0.304436 0.007728
C29   C     C_R   0.737670 0.921963 0.203611 0.014824
C30   C     C_R   0.819065 0.024679 0.230911 -0.121507
C31   C     C_R   0.820904 0.031738 0.281108 -0.120372
C32   C     C_R   0.745492 0.911475 0.153817 -0.121406
C33   C     C_R   0.678336 0.803853 0.127182 -0.017060
C34   C     C_R   0.628177 0.898290 0.564562 0.560340
C35   C     C_R   0.569384 0.751857 0.352604 0.048244
C36   C     C_R   0.571336 0.739412 0.301371 -0.015100
C37   C     C_R   0.654091 0.834154 0.277496 0.038601
C38   C     C_R   0.491385 0.635955 0.273316 -0.136404
C39   C     C_R   0.489260 0.626340 0.222584 -0.006467
C40   C     C_R   0.573776 0.720943 0.198874 0.022039
C41   C     C_R   0.653876 0.825891 0.226636 0.048190
C42   C     C_R   0.589027 0.710907 0.148976 -0.103628
C43   C     C_R   0.650227 0.859570 0.378586 -0.018044
C44   C     C_R   0.762553 0.325760 0.648337 0.055807
C45   C     C_R   0.605703 0.229715 0.578044 0.554465
C46   C     C_R   0.786435 0.373175 0.697446 -0.026914
C47   C     C_R   0.809786 0.434600 0.798721 -0.016749
C48   C     C_R   0.891268 0.405713 0.776270 0.038769
C49   C     C_R   0.880556 0.378976 0.725954 -0.091765
C50   C     C_R   0.816255 0.462168 0.848994 -0.124298
C51   C     C_R   0.725278 0.472849 0.871872 -0.044739
C52   C     C_R   0.594775 0.361072 0.643212 -0.111337
C53   C     C_R   0.620530 0.413062 0.690860 0.028031
C54   C     C_R   0.710137 0.409352 0.719317 0.016056
C55   C     C_R   0.551269 0.458520 0.712285 0.002467
C56   C     C_R   0.271549 0.879250 0.563286 0.552834
C57   C     C_R   0.556656 0.478064 0.762607 -0.117789
C58   C     C_R   0.635287 0.461222 0.792045 0.023675
C59   C     C_R   0.719841 0.436973 0.770000 0.022772
C60   C     C_R   0.631336 0.469233 0.843004 -0.003104
C61   C     C_R   0.658321 0.309565 0.622957 -0.033192
C62   C     C_1   0.217421 0.859807 0.609076 0.055431
C63   C     C_R   0.141427 0.729425 0.720433 0.061306
C64   C     C_R   0.131988 0.725842 0.770929 -0.131249
C65   C     C_R   0.141760 0.912845 0.779014 -0.106422
C66   C     C_R   0.152546 0.918382 0.729007 -0.138601
C67   C     C_1   0.632554 0.268702 0.394678 0.002497
C68   C     C_R   0.153421 0.827962 0.699518 0.014224
C69   C     C_R   0.133196 0.817395 0.800162 0.000126
C70   C     C_1   0.117787 0.808934 0.851425 -0.043749
C71   C     C_1   0.183266 0.845021 0.649618 0.023595
C72   C     C_1   0.096579 0.794654 0.893427 0.001594
C73   C     C_1   0.648219 0.859623 0.608660 0.064975
C74   C     C_R   0.762369 0.796353 0.712927 -0.113914
C75   C     C_R   0.776832 0.781857 0.761444 -0.104692
C76   C     C_R   0.589499 0.774774 0.777797 -0.138978
C77   C     C_R   0.573012 0.788636 0.729136 0.029481
C78   C     C_R   0.773727 0.377834 0.284694 -0.100651
C79   C     C_R   0.662235 0.801846 0.696577 0.071866
C80   C     C_R   0.691467 0.773246 0.794049 0.024291
C81   C     C_1   0.709606 0.766128 0.844627 -0.053061
C82   C     C_1   0.657472 0.830896 0.647895 0.054077
C83   C     C_1   0.725863 0.761092 0.887026 -0.031728
C84   C     C_R   0.063649 0.771606 0.079741 0.553213
C85   C     C_R   0.717137 0.441139 0.067274 0.566556
C86   C     C_R   0.719629 0.782515 0.080669 0.558022
C87   C     C_R   0.055590 0.765656 0.940969 0.534900
C88   C     C_R   0.732583 0.491054 0.925636 0.523239
C89   C     C_R   0.783328 0.390525 0.235069 -0.119662
C90   C     C_R   0.748889 0.754536 0.937007 0.528218
Cr1   Cr    Cr6+3 0.416430 0.829200 0.492370 1.108496
Cr2   Cr    Cr6+3 0.674630 0.087020 0.504170 1.082922
Cr3   Cr    Cr6+3 0.408920 0.083740 0.503490 1.045391
Cr4   Cr    Cr6+3 0.914010 0.832750 0.013970 1.051624
Cr5   Cr    Cr6+3 0.922310 0.578600 0.003000 1.053137
Cr6   Cr    Cr6+3 0.656280 0.574630 0.003870 1.057156
H1    H     H_    0.853391 0.418392 0.308668 0.121151
H2    H     H_    0.125332 0.065191 0.219805 0.157810
H3    H     H_    0.156611 0.083113 0.308192 0.113807
H4    H     H_    0.206146 0.014884 0.380425 0.129956
H5    H     H_    0.813291 0.983981 0.136723 0.143178
H6    H     H_    0.803976 0.028368 0.374190 0.144779
H7    H     H_    0.883766 0.098324 0.213473 0.132679
H8    H     H_    0.885743 0.111520 0.301721 0.118746
H9    H     H_    0.540698 0.628125 0.127685 0.192100
H10   H     H_    0.428369 0.561357 0.290540 0.150154
H11   H     H_    0.870259 0.442965 0.221511 0.123920
H12   H     H_    0.890972 0.472759 0.871068 0.188275
H13   H     H_    0.942786 0.355699 0.709770 0.201703
H14   H     H_    0.500230 0.509332 0.778633 0.137699
H15   H     H_    0.517548 0.350633 0.622976 0.195481
H16   H     H_    0.122624 0.651136 0.787585 0.166082
H17   H     H_    0.141004 0.983372 0.801214 0.148347
H18   H     H_    0.163015 0.994695 0.713428 0.130310
H19   H     H_    0.831006 0.806394 0.688407 0.122182
H20   H     H_    0.855709 0.779840 0.773740 0.125364
H21   H     H_    0.523358 0.766641 0.803390 0.113715
H22   H     H_    0.473623 0.207865 0.286005 0.117365
H23   H     H_    0.137936 0.654431 0.129115 0.138331
H24   H     H_    0.172719 0.675016 0.369796 0.161161
H25   H     H_    0.136215 0.565513 0.293990 0.170243
H26   H     H_    0.104318 0.960263 0.140435 0.150806
O1    O     O_R   0.296680 0.802170 0.437540 -0.502974
O2    O     O_R   0.662610 0.183990 0.557860 -0.458079
O3    O     O_R   0.500730 0.201280 0.562180 -0.514934
O4    O     O_R   0.312500 0.978850 0.548170 -0.507603
O5    O     O_3   0.499990 0.999990 0.500010 -0.269032
O6    O     O_R   0.820790 0.857990 0.068830 -0.509170
O7    O     O_R   0.016700 0.827330 0.062850 -0.495112
O8    O     O_R   0.041970 0.673520 0.060040 -0.513001
O9    O     O_R   0.817980 0.483660 0.048840 -0.491732
O10   O     O_R   0.637200 0.461990 0.052510 -0.482051
O11   O     O_R   0.664790 0.681920 0.057970 -0.494955
O12   O     O_R   0.525380 0.838530 0.443500 -0.465827
O13   O     O_R   0.815840 0.852920 0.961840 -0.470174
O14   O     O_R   0.012100 0.822630 0.963670 -0.504833
O15   O     O_R   0.037010 0.668460 0.953040 -0.508314
O16   O     O_R   0.813390 0.478970 0.949660 -0.475915
O17   O     O_R   0.632250 0.456930 0.945520 -0.495496
O18   O     O_R   0.660200 0.677230 0.958780 -0.523228
O19   O     O_3   0.830870 0.661990 0.006950 -0.304507
O20   O     O_R   0.702130 0.995190 0.446810 -0.528175
O21   O     O_R   0.661770 0.181390 0.458760 -0.492247
O22   O     O_R   0.499820 0.198480 0.455280 -0.499899
O23   O     O_R   0.311660 0.976250 0.449080 -0.506718
O24   O     O_R   0.297580 0.804960 0.544440 -0.471547
O25   O     O_R   0.526220 0.841130 0.542590 -0.467141
O26   O     O_R   0.703030 0.997990 0.553710 -0.500845
C91   C     C_2   0.395692 0.515718 0.196760 0.262954
H27   H     H_    0.359842 0.436928 0.214742 0.138429
O27   O     O_2   0.352034 0.512036 0.156913 -0.483360
C92   C     C_2   0.482009 0.655219 0.378894 0.580969
O28   O     O_2   0.516962 0.620288 0.411389 -0.507533
O29   O     O_R   0.360095 0.607270 0.367619 -0.714271
H28   H     H_    0.309669 0.543292 0.388476 0.334960
C93   C     C_2   0.841453 0.286608 0.625090 0.589558
O30   O     O_2   0.898332 0.334576 0.590937 -0.502672
O31   O     O_R   0.849088 0.194050 0.641883 -0.697109
H29   H     H_    0.905309 0.175141 0.623013 0.344312
C94   C     C_2   0.981576 0.390819 0.803857 0.558423
O32   O     O_2   0.956407 0.342039 0.841016 -0.498250
O33   O     O_R   0.093503 0.426208 0.785549 -0.667485
H30   H     H_    0.146600 0.409839 0.806961 0.358767
C95   C     C_2   0.525624 0.467364 0.864911 0.247442
H31   H     H_    0.535505 0.532017 0.893482 0.144012
O34   O     O_2   0.425335 0.391275 0.851066 -0.488048
C96   C     C_2   0.471928 0.487148 0.684301 0.223811
H32   H     H_    0.397465 0.488934 0.701445 0.148955
O35   O     O_2   0.492590 0.515921 0.643205 -0.489518
C97   C     C_2   0.140638 0.630691 0.690740 0.592873
O36   O     O_2   0.175671 0.571355 0.709014 -0.488570
O37   O     O_R   0.098958 0.604391 0.642047 -0.671867
H33   H     H_    0.104340 0.536100 0.625864 0.372657
C98   C     C_2   0.457323 0.216110 0.189384 0.591397
O38   O     O_2   0.456366 0.169735 0.149349 -0.449223
O39   O     O_R   0.353177 0.214525 0.203913 -0.685544
H34   H     H_    0.363506 0.260433 0.236326 0.278256
C99   C     C_2   0.462783 0.790984 0.714957 0.254444
H35   H     H_    0.404075 0.791224 0.742724 0.114830
O40   O     O_2   0.434586 0.790788 0.672746 -0.481215
C100  C     C_2   0.113789 0.518373 0.197765 0.239988
H36   H     H_    0.088054 0.498049 0.159441 0.125618
O41   O     O_2   0.125412 0.446669 0.218540 -0.509720

loop_
_geom_bond_atom_site_label_1
_geom_bond_atom_site_label_2
_ccdc_geom_bond_type
C66   C68   A    
C90   O13   A    
Cr2   O26   S    
C11   C24   A    
C35   C36   A    
C42   H9    S    
C55   C96   S    
C25   H26   S    
Cr6   O17   S    
Cr1   O25   S    
C99   H35   S    
C85   O9    A    
C95   O34   D    
C96   O35   D    
C100  H36   S    
C52   C53   A    
C23   O23   A    
C46   C49   A    
Cr1   O5    S    
C37   C41   A    
C33   C42   A    
C93   O30   D    
C8    C85   S    
C29   C32   A    
C52   C61   A    
Cr2   O2    S    
C85   O10   A    
C5    C6    S    
C65   C69   A    
C64   H16   S    
C94   O32   D    
C97   O36   D    
C58   C60   A    
C15   C16   A    
C84   O7    A    
C16   C84   S    
C75   H20   S    
C18   C19   A    
C23   C26   S    
C84   O8    A    
Cr2   O21   S    
C98   O38   D    
C1    O20   A    
Cr6   O19   S    
Cr3   O4    S    
C11   C15   A    
C93   O31   S    
C1    C43   S    
C47   C48   A    
C45   O3    A    
C22   C25   A    
C30   H7    S    
Cr5   O8    S    
Cr4   O14   S    
C15   H23   S    
Cr3   O23   S    
C56   O4    A    
C35   C43   A    
C75   C80   A    
C18   C20   A    
Cr6   O10   S    
C40   C42   A    
C45   O2    A    
C14   H25   S    
Cr1   O1    S    
C21   C22   A    
Cr5   O9    S    
C89   H11   S    
C34   O26   A    
C87   O15   A    
C4    C7    S    
C81   C83   T    
C44   C46   A    
C9    C26   A    
C50   C51   A    
C47   C50   A    
C98   O39   S    
C54   C59   A    
C53   C55   A    
C78   C89   A    
C38   C39   A    
C12   C67   S    
Cr5   O15   S    
Cr4   O7    S    
C74   C75   A    
C86   O6    A    
C44   C93   S    
C76   C77   A    
C10   C14   A    
C100  O41   D    
C96   H32   S    
C63   C97   S    
C6    C8    T    
C52   H15   S    
C58   C59   A    
C53   C54   A    
C47   C59   A    
C12   O22   A    
C94   O33   S    
C38   H10   S    
C33   C86   S    
Cr3   O5    S    
C88   O17   A    
C4    C78   A    
C29   C30   A    
C3    H22   S    
C48   C94   S    
C34   O25   A    
C86   O11   A    
C99   O40   D    
C57   H14   S    
C10   C19   A    
C46   C54   A    
C78   H1    S    
C17   C18   A    
C77   C79   A    
C64   C69   A    
C20   C21   A    
C88   O16   A    
O29   H28   S    
Cr3   O22   S    
C40   C41   A    
C92   O29   S    
Cr5   O19   S    
C13   C100  S    
C74   C79   A    
C55   C57   A    
O31   H29   S    
C22   C24   A    
C2    C5    A    
C35   C92   S    
C17   C26   A    
C3    C4    A    
Cr2   O5    S    
C73   C82   T    
C39   C40   A    
C72   C87   S    
Cr2   O20   S    
O37   H33   S    
C49   H13   S    
O33   H30   S    
C9    C10   A    
C16   C25   A    
C83   C90   S    
C63   C68   A    
C95   H31   S    
Cr5   O16   S    
C66   H18   S    
C29   C41   A    
Cr4   O19   S    
C65   H17   S    
C87   O14   A    
C50   H12   S    
C28   C31   A    
C76   C80   A    
C80   C81   S    
O39   H34   S    
C51   C88   S    
Cr6   O18   S    
C79   C82   S    
C23   O1    A    
Cr6   O11   S    
C51   C60   A    
Cr4   O6    S    
C44   C61   A    
C39   C91   S    
C27   H6    S    
C76   H21   S    
C12   O21   A    
C77   C99   S    
Cr4   O13   S    
C32   C33   A    
C91   O27   D    
C19   C24   A    
C91   H27   S    
C31   H8    S    
C36   C38   A    
C21   H2    S    
C11   C13   A    
C57   C58   A    
C30   C31   A    
C20   H3    S    
C97   O37   S    
C28   C37   A    
C68   C71   S    
C48   C49   A    
C74   H19   S    
C45   C61   S    
C60   C95   S    
Cr1   O12   S    
C62   C71   T    
C2    C3    A    
C56   C62   S    
C56   O24   A    
C69   C70   S    
C17   H4    S    
Cr3   O3    S    
C2    C98   S    
C34   C73   S    
C7    C67   T    
C63   C64   A    
C27   C43   A    
C92   O28   D    
C36   C37   A    
C65   C66   A    
C27   C28   A    
C9    H24   S    
C32   H5    S    
C70   C72   T    
C90   O18   A    
C13   C14   A    
Cr1   O24   S    
C5    C89   A    
C1    O12   A    
