data_mof_unit_44719.cif
_audit_creation_date              2012-12-10T18:29:40-0500
_audit_creation_method            fapswitch 2.2
_symmetry_space_group_name_H-M    P1
_symmetry_Int_Tables_number       1
_space_group_crystal_system       triclinic
_cell_length_a                    11.517114
_cell_length_b                    15.091369
_cell_length_c                    15.270249
_cell_angle_alpha                 81.657919
_cell_angle_beta                  91.876817
_cell_angle_gamma                 103.924662
_cell_volume                      2548.84769701

loop_
_atom_site_label
_atom_site_type_symbol
_atom_type_description
_atom_site_fract_x
_atom_site_fract_y
_atom_site_fract_z
_atom_type_partial_charge
C1    C     C_R   0.480887 0.442249 0.662262 0.877580
C2    C     C_R   0.521961 0.557885 0.337717 0.873233
C3    C     C_R   0.441204 0.344998 0.937769 -0.092151
C4    C     C_R   0.688678 0.606591 0.087253 -0.091305
C5    C     C_R   0.597974 0.479407 0.968745 -0.173419
C6    C     C_R   0.556296 0.461615 0.056663 -0.182063
C7    C     C_R   0.484978 0.372780 0.088612 0.400563
C8    C     C_R   0.704116 0.550355 0.947489 0.432775
C9    C     C_R   0.423383 0.316494 0.028828 0.381778
C10   C     C_R   0.748822 0.613361 0.006973 0.377602
C11   C     C_R   0.711671 0.846919 0.612165 -0.396673
C12   C     C_R   0.350380 0.171432 0.340511 -0.326331
C13   C     C_R   0.668409 0.755231 0.599436 0.586489
C14   C     C_R   0.360989 0.252329 0.376815 0.600758
C15   C     C_R   0.500721 0.793137 0.517098 0.526713
C16   C     C_R   0.487969 0.203900 0.490697 0.456225
C17   C     C_R   0.554348 0.889939 0.515958 -0.161444
C18   C     C_R   0.482440 0.120859 0.455045 -0.177305
C19   C     C_R   0.657355 0.914626 0.569421 -0.043962
C20   C     C_R   0.410316 0.105225 0.379227 -0.079570
C21   C     C_R   0.510992 0.963431 0.466537 0.055249
C22   C     C_R   0.544580 0.053080 0.491603 0.048259
C23   C     C_R   0.717795 0.500938 0.500494 0.900163
C24   C     C_R   0.282139 0.498689 0.500372 0.855913
C25   C     C_R   0.647174 0.074577 0.544256 -0.297517
C26   C     C_R   0.454599 0.956027 0.383952 -0.361787
C27   C     C_R   0.704907 0.006891 0.581164 0.502555
C28   C     C_R   0.401232 0.024820 0.341217 0.588954
C29   C     C_1   0.839020 0.502452 0.501212 -0.175191
C30   C     C_1   0.160890 0.496943 0.500238 -0.197350
C31   C     C_1   0.940982 0.501071 0.501177 -0.016176
C32   C     C_1   0.058931 0.498222 0.500636 -0.019646
C33   C     C_R   0.466186 0.406983 0.756194 -0.210175
C34   C     C_R   0.565424 0.590048 0.246867 -0.193745
C35   C     C_R   0.367569 0.295909 0.877098 -0.247763
C36   C     C_R   0.727682 0.671125 0.146349 -0.265823
C37   C     C_R   0.376230 0.328670 0.786918 0.445608
C38   C     C_R   0.666829 0.663343 0.226485 0.457100
C39   C     C_R   0.540454 0.455545 0.815851 -0.236111
C40   C     C_R   0.522753 0.530649 0.185361 -0.216647
C41   C     C_R   0.530662 0.425685 0.907058 0.059279
C42   C     C_R   0.589334 0.532095 0.110278 0.060994
H1    H     H_    0.690360 0.144890 0.551654 0.211097
H2    H     H_    0.458097 0.899885 0.349337 0.161345
H3    H     H_    0.439228 0.479796 0.199505 0.223244
H4    H     H_    0.600303 0.519891 0.789680 0.247039
H5    H     H_    0.298791 0.234561 0.899367 0.193786
H6    H     H_    0.808191 0.725333 0.132562 0.182156
H7    H     H_    0.787599 0.865217 0.655058 0.207689
H8    H     H_    0.298117 0.162264 0.280941 0.229080
N1    N     N_R   0.566020 0.731700 0.552730 -0.160292
N2    N     N_R   0.433980 0.268300 0.447270 -0.181491
O1    O     O_R   0.466720 0.383110 0.605620 -0.552436
O2    O     O_R   0.533280 0.616890 0.394380 -0.593378
O3    O     O_R   0.509090 0.531900 0.639510 -0.582241
O4    O     O_R   0.490910 0.468100 0.360490 -0.557442
O5    O     O_R   0.644370 0.425610 0.483050 -0.591908
O6    O     O_R   0.355630 0.574390 0.516950 -0.570135
O7    O     O_R   0.686740 0.574390 0.516930 -0.563499
O8    O     O_R   0.313260 0.425610 0.483070 -0.592434
Zn1   Zn    Zn3+2 0.471710 0.400660 0.477370 1.023324
Zn2   Zn    Zn3+2 0.528290 0.599340 0.522630 1.023105
O9    O     O_3   0.346463 0.232825 0.059474 -0.576921
C43   C     C_3   0.236831 0.249021 0.083791 0.119465
H9    H     H_    0.204490 0.298201 0.032597 0.106118
H10   H     H_    0.246403 0.276710 0.147962 0.191716
C44   C     C_3   0.142340 0.158485 0.094226 -0.862879
H11   H     H_    0.173247 0.106586 0.142193 0.282051
H12   H     H_    0.057538 0.168971 0.118623 0.200580
H13   H     H_    0.125767 0.132357 0.029487 0.252061
O10   O     O_3   0.857490 0.676111 0.989621 -0.588508
C45   C     C_3   0.837773 0.759769 0.944754 0.116875
H14   H     H_    0.763061 0.780860 0.974346 0.112268
H15   H     H_    0.817531 0.753491 0.873842 0.176692
C46   C     C_3   0.950932 0.835299 0.950927 -0.847314
H16   H     H_    0.024708 0.821921 0.913734 0.264078
H17   H     H_    0.935010 0.903304 0.923181 0.208341
H18   H     H_    0.977755 0.837456 0.021278 0.254390
O11   O     O_3   0.715709 0.718691 0.289563 -0.596451
C47   C     C_3   0.704261 0.809480 0.261045 0.086997
H19   H     H_    0.609300 0.810541 0.245575 0.130147
H20   H     H_    0.760685 0.841555 0.201683 0.131916
C48   C     C_3   0.745903 0.867553 0.334668 -0.801929
H21   H     H_    0.842543 0.872961 0.347693 0.249600
H22   H     H_    0.731004 0.937804 0.315507 0.209877
H23   H     H_    0.695157 0.834929 0.396037 0.245618
O12   O     O_3   0.296560 0.283486 0.729081 -0.626692
C49   C     C_3   0.195174 0.321185 0.721225 0.083576
H24   H     H_    0.220652 0.397243 0.700252 0.127644
H25   H     H_    0.145636 0.305958 0.785200 0.135232
C50   C     C_3   0.112109 0.278057 0.651316 -0.805880
H26   H     H_    0.084232 0.202267 0.670196 0.256246
H27   H     H_    0.031370 0.306534 0.644868 0.210516
H28   H     H_    0.158645 0.293048 0.586463 0.261710
O13   O     O_3   0.477565 0.338487 0.177901 -0.587978
C51   C     C_3   0.584761 0.312350 0.203640 -0.208935
H29   H     H_    0.663774 0.372101 0.194050 0.145945
H30   H     H_    0.597394 0.256419 0.167424 0.160867
H31   H     H_    0.579744 0.285331 0.275221 0.179693
O14   O     O_3   0.769967 0.556818 0.871692 -0.599854
C52   C     C_3   0.837052 0.489201 0.884527 -0.284172
H32   H     H_    0.778016 0.418361 0.892840 0.154979
H33   H     H_    0.898421 0.498425 0.942129 0.173098
H34   H     H_    0.892909 0.496759 0.824836 0.182752
O15   O     O_3   0.812304 0.031210 0.625381 -0.617476
C53   C     C_3   0.792432 0.059346 0.706787 0.081813
H35   H     H_    0.701302 0.026390 0.734852 0.131402
H36   H     H_    0.806036 0.135567 0.697705 0.159760
C54   C     C_3   0.882094 0.031991 0.774127 -0.857738
H37   H     H_    0.974818 0.063908 0.750579 0.263624
H38   H     H_    0.869122 0.054792 0.838295 0.208412
H39   H     H_    0.868558 0.955892 0.783783 0.247134
O16   O     O_3   0.349861 0.019082 0.257995 -0.616538
C55   C     C_3   0.242864 0.948851 0.261604 0.087425
H40   H     H_    0.259145 0.880741 0.285947 0.130736
H41   H     H_    0.209787 0.945195 0.192799 0.180469
C56   C     C_3   0.143500 0.966986 0.315888 -0.946571
H42   H     H_    0.125223 0.035026 0.290986 0.255122
H43   H     H_    0.060340 0.912808 0.310222 0.233484
H44   H     H_    0.168308 0.964582 0.386907 0.249209
O17   O     O_3   0.544636 0.221230 0.569588 -0.604202
C57   C     C_3   0.468820 0.170846 0.639812 0.119437
H45   H     H_    0.446077 0.095408 0.636529 0.122488
H46   H     H_    0.384187 0.193997 0.638233 0.206832
C58   C     C_3   0.531961 0.185945 0.727357 -0.779154
H47   H     H_    0.566434 0.260639 0.730316 0.265134
H48   H     H_    0.468996 0.154907 0.783167 0.221342
H49   H     H_    0.608546 0.153111 0.734274 0.207882
O18   O     O_3   0.377105 0.759135 0.525419 -0.604351
C59   C     C_3   0.307522 0.760544 0.447092 0.142671
H50   H     H_    0.284209 0.827551 0.430624 0.129015
H51   H     H_    0.219019 0.712994 0.464154 0.171654
C60   C     C_3   0.354049 0.727070 0.367401 -0.876805
H52   H     H_    0.451754 0.752782 0.358249 0.252400
H53   H     H_    0.329374 0.651194 0.372894 0.255211
H54   H     H_    0.310205 0.750399 0.305847 0.187581
O19   O     O_3   0.307957 0.320642 0.336576 -0.552380
C61   C     C_3   0.182767 0.290333 0.347027 -0.336821
H55   H     H_    0.142452 0.349497 0.324589 0.191907
H56   H     H_    0.156899 0.265759 0.417667 0.163558
H57   H     H_    0.144656 0.235652 0.305478 0.142123
O20   O     O_3   0.717888 0.685038 0.641681 -0.568149
C62   C     C_3   0.844125 0.709020 0.637084 -0.254659
H58   H     H_    0.882387 0.749324 0.690957 0.156268
H59   H     H_    0.878002 0.746757 0.571157 0.148790
H60   H     H_    0.876187 0.644599 0.647636 0.196182

loop_
_geom_bond_atom_site_label_1
_geom_bond_atom_site_label_2
_ccdc_geom_bond_type
O6    Zn2   S    
C62   H60   S    
O12   C49   S    
C4    C36   A    
C52   H32   S    
O13   C51   S    
C21   C26   A    
C35   H5    S    
C25   H1    S    
C55   H40   S    
C26   H2    S    
C39   C41   A    
C23   O7    A    
C11   C19   A    
C33   C39   A    
C53   H36   S    
C3    C9    A    
C23   C29   S    
C35   C37   A    
O16   C55   S    
N2    Zn1   S    
C47   C48   S    
C5    C6    A    
C47   H19   S    
C53   H35   S    
C27   O15   S    
C62   H58   S    
C51   H31   S    
C62   H59   S    
C1    O1    A    
C54   H38   S    
C13   N1    A    
O1    Zn1   S    
C14   N2    A    
C48   H21   S    
C22   C25   A    
C51   H30   S    
C60   H54   S    
C49   C50   S    
C15   N1    A    
C19   C27   A    
C10   O10   S    
C2    C34   S    
C40   C42   A    
C52   H33   S    
C9    O9    S    
C21   C22   A    
N1    Zn2   S    
C45   C46   S    
C40   H3    S    
O20   C62   S    
C1    C33   S    
C44   H11   S    
C43   C44   S    
C45   H15   S    
C2    O2    A    
C54   H39   S    
C50   H26   S    
C34   C38   A    
O2    Zn2   S    
C33   C37   A    
O9    C43   S    
O8    Zn1   S    
C44   H12   S    
C43   H10   S    
C59   H51   S    
C46   H16   S    
C11   H7    S    
C50   H27   S    
C55   H41   S    
C31   C32   S    
C15   O18   S    
C14   O19   S    
C3    C35   A    
C24   O8    A    
C51   H29   S    
C12   C20   A    
C16   C18   A    
C13   O20   S    
C49   H24   S    
C46   H17   S    
O17   C57   S    
C61   H56   S    
C39   H4    S    
C23   O5    A    
C47   H20   S    
C48   H22   S    
C49   H25   S    
C52   H34   S    
C6    C42   A    
C58   H47   S    
C34   C40   A    
C56   H44   S    
C59   C60   S    
C4    C10   A    
C7    O13   S    
C60   H53   S    
O18   C59   S    
O15   C53   S    
C15   C17   A    
C16   O17   S    
C5    C41   A    
C3    C41   A    
O7    Zn2   S    
C18   C22   A    
C37   O12   S    
C8    C10   A    
C16   N2    A    
C12   C14   A    
C45   H14   S    
C61   H57   S    
C5    C8    A    
C12   H8    S    
O5    Zn1   S    
C6    C7    A    
C25   C27   A    
C20   C28   A    
O19   C61   S    
C26   C28   A    
C44   H13   S    
C43   H9    S    
C57   C58   S    
C56   H43   S    
C59   H50   S    
C1    O3    A    
O10   C45   S    
C29   C31   T    
C2    O4    A    
C56   H42   S    
C50   H28   S    
C30   C32   T    
C11   C13   A    
C60   H52   S    
C4    C42   A    
C58   H49   S    
C36   C38   A    
O14   C52   S    
C17   C19   A    
C36   H6    S    
C18   C20   A    
C8    O14   S    
C46   H18   S    
C24   C30   S    
C55   C56   S    
C61   H55   S    
C28   O16   S    
O11   C47   S    
C7    C9    A    
C48   H23   S    
O3    Zn2   S    
C24   O6    A    
C38   O11   S    
C58   H48   S    
O4    Zn1   S    
C57   H45   S    
C54   H37   S    
C57   H46   S    
C53   C54   S    
C17   C21   A    
