data_mof_unit_65260.cif
_audit_creation_date              2013-03-05T15:57:52-0500
_audit_creation_method            fapswitch 2.2
_symmetry_space_group_name_H-M    P1
_symmetry_Int_Tables_number       1
_space_group_crystal_system       orthorhombic
_cell_length_a                    21.673188
_cell_length_b                    21.673174
_cell_length_c                    29.139678
_cell_angle_alpha                 90.0
_cell_angle_beta                  90.0
_cell_angle_gamma                 90.0
_cell_volume                      13687.6869615

loop_
_atom_site_label
_atom_site_type_symbol
_atom_site_description
_atom_site_fract_x
_atom_site_fract_y
_atom_site_fract_z
_atom_type_partial_charge
O1    O     O_R   0.408380 0.948270 0.000000 -0.617691
O2    O     O_R   0.051730 0.408380 0.000000 -0.617695
O3    O     O_R   0.591620 0.051730 0.000000 -0.617690
O4    O     O_R   0.948270 0.591620 0.000000 -0.617695
O5    O     O_R   0.591620 0.948270 0.000000 -0.617690
O6    O     O_R   0.948270 0.408380 0.000000 -0.617695
O7    O     O_R   0.408380 0.051730 0.000000 -0.617691
O8    O     O_R   0.051730 0.591620 0.000000 -0.617695
O9    O     O_R   0.908380 0.448270 0.500000 -0.617690
O10   O     O_R   0.551730 0.908380 0.500000 -0.617695
O11   O     O_R   0.091620 0.551730 0.500000 -0.617692
O12   O     O_R   0.448270 0.091620 0.500000 -0.617695
O13   O     O_R   0.091620 0.448270 0.500000 -0.617691
O14   O     O_R   0.448270 0.908380 0.500000 -0.617695
O15   O     O_R   0.908380 0.551730 0.500000 -0.617690
O16   O     O_R   0.551730 0.091620 0.500000 -0.617695
C1    C     C_R   0.380022 0.000000 1.000000 0.887001
C2    C     C_R   1.000000 0.380022 1.000000 0.887005
C3    C     C_R   0.619978 1.000000 0.000000 0.886999
C4    C     C_R   1.000000 0.619978 0.000000 0.887005
C5    C     C_R   0.880022 0.500000 0.500000 0.887000
C6    C     C_R   0.500000 0.880022 0.500000 0.887005
C7    C     C_R   0.119978 0.500000 0.500000 0.887001
C8    C     C_R   0.500000 0.119978 0.500000 0.887005
O17   O     O_R   0.499990 0.948270 0.063150 -0.599929
O18   O     O_R   0.051730 0.499990 0.063150 -0.599929
O19   O     O_R   0.500010 0.051730 0.063150 -0.599930
O20   O     O_R   0.948270 0.500010 0.063150 -0.599929
O21   O     O_R   0.500010 0.948270 0.936850 -0.599929
O22   O     O_R   0.948270 0.499990 0.936850 -0.599928
O23   O     O_R   0.499990 0.051730 0.936850 -0.599929
O24   O     O_R   0.051730 0.500010 0.936850 -0.599929
O25   O     O_R   0.999990 0.448270 0.563150 -0.599929
O26   O     O_R   0.551730 0.999990 0.563150 -0.599929
O27   O     O_R   0.000010 0.551730 0.563150 -0.599929
O28   O     O_R   0.448270 0.000010 0.563150 -0.599929
O29   O     O_R   0.000010 0.448270 0.436850 -0.599928
O30   O     O_R   0.448270 0.999990 0.436850 -0.599928
O31   O     O_R   0.999990 0.551730 0.436850 -0.599929
O32   O     O_R   0.551730 0.000010 0.436850 -0.599929
C9    C     C_R   0.500000 0.000000 0.085755 0.879663
C10   C     C_R   0.000000 0.500000 0.085755 0.879671
C11   C     C_R   0.500000 1.000000 0.914245 0.879662
C12   C     C_R   1.000000 0.500000 0.914245 0.879669
C13   C     C_R   0.000000 0.500000 0.585755 0.879663
C14   C     C_R   0.500000 1.000000 0.585755 0.879671
C15   C     C_R   0.000000 0.500000 0.414245 0.879661
C16   C     C_R   0.500000 1.000000 0.414245 0.879669
Zn1   Zn    Zn3+2 0.500000 0.930930 0.000000 0.961447
Zn2   Zn    Zn3+2 0.069070 0.500000 0.000000 0.961443
Zn3   Zn    Zn3+2 0.500000 0.069070 0.000000 0.961447
Zn4   Zn    Zn3+2 0.930930 0.500000 0.000000 0.961443
Zn5   Zn    Zn3+2 1.000000 0.430930 0.500000 0.961447
Zn6   Zn    Zn3+2 0.569070 1.000000 0.500000 0.961443
Zn7   Zn    Zn3+2 1.000000 0.569070 0.500000 0.961447
Zn8   Zn    Zn3+2 0.430930 1.000000 0.500000 0.961443
Zn9   Zn    Zn3+2 0.000000 1.000000 0.952410 0.943828
Zn10  Zn    Zn3+2 0.000000 0.000000 0.047590 0.943828
Zn11  Zn    Zn3+2 0.500000 0.500000 0.452410 0.943828
Zn12  Zn    Zn3+2 0.500000 0.500000 0.547590 0.943828
C17   C     C_1   0.500000 0.000000 0.136574 -0.202748
C18   C     C_1   0.000000 0.500000 0.136574 -0.202746
C19   C     C_1   0.500000 1.000000 0.863426 -0.202748
C20   C     C_1   1.000000 0.500000 0.863426 -0.202747
C21   C     C_1   0.000000 0.500000 0.636574 -0.202748
C22   C     C_1   0.500000 1.000000 0.636574 -0.202746
C23   C     C_1   0.000000 0.500000 0.363426 -0.202748
C24   C     C_1   0.500000 1.000000 0.363426 -0.202747
C25   C     C_1   0.500000 1.000000 0.178881 0.000901
C26   C     C_1   0.000000 0.500000 0.178881 0.000902
C27   C     C_1   0.500000 1.000000 0.821119 0.000901
C28   C     C_1   1.000000 0.500000 0.821119 0.000903
C29   C     C_1   1.000000 0.500000 0.678881 0.000901
C30   C     C_1   0.500000 1.000000 0.678881 0.000902
C31   C     C_1   0.000000 0.500000 0.321119 0.000901
C32   C     C_1   0.500000 1.000000 0.321119 0.000903
C33   C     C_1   0.500000 0.000000 0.228847 0.004991
C34   C     C_1   0.000000 0.500000 0.228847 0.004991
C35   C     C_1   0.500000 1.000000 0.771153 0.004991
C36   C     C_1   1.000000 0.500000 0.771153 0.004991
C37   C     C_1   1.000000 0.500000 0.728847 0.004991
C38   C     C_1   0.500000 1.000000 0.728847 0.004991
C39   C     C_1   0.000000 0.500000 0.271153 0.004991
C40   C     C_1   0.500000 0.000000 0.271153 0.004991
C41   C     C_R   0.283158 0.043515 0.973663 -0.177990
C42   C     C_R   0.956472 0.283157 0.973674 -0.177988
C43   C     C_R   0.716841 0.956490 0.973658 -0.177992
C44   C     C_R   0.043528 0.716843 0.973674 -0.177986
C45   C     C_R   0.716841 0.043510 0.026342 -0.177991
C46   C     C_R   0.043527 0.283157 0.026326 -0.177987
C47   C     C_R   0.283158 0.956485 0.026337 -0.177990
C48   C     C_R   0.956472 0.716843 0.026325 -0.177987
C49   C     C_R   0.783159 0.543510 0.473658 -0.177991
C50   C     C_R   0.456472 0.783157 0.473674 -0.177986
C51   C     C_R   0.216842 0.456485 0.473663 -0.177991
C52   C     C_R   0.543528 0.216843 0.473674 -0.177987
C53   C     C_R   0.216842 0.543515 0.526337 -0.177990
C54   C     C_R   0.543528 0.783157 0.526325 -0.177987
C55   C     C_R   0.783159 0.456490 0.526342 -0.177992
C56   C     C_R   0.456473 0.216843 0.526326 -0.177986
H1    H     H_    0.308812 0.076530 0.953203 0.155479
H2    H     H_    0.923447 0.308810 0.953223 0.155492
H3    H     H_    0.691187 0.923479 0.953195 0.155474
H4    H     H_    0.076552 0.691190 0.953223 0.155492
H5    H     H_    0.691187 0.076520 0.046805 0.155474
H6    H     H_    0.076552 0.308810 0.046777 0.155492
H7    H     H_    0.308812 0.923470 0.046797 0.155480
H8    H     H_    0.923447 0.691190 0.046776 0.155492
H9    H     H_    0.808813 0.576521 0.453195 0.155475
H10   H     H_    0.423447 0.808810 0.453223 0.155492
H11   H     H_    0.191188 0.423470 0.453203 0.155480
H12   H     H_    0.576553 0.191190 0.453223 0.155492
H13   H     H_    0.191188 0.576530 0.546797 0.155480
H14   H     H_    0.576553 0.808810 0.546776 0.155492
H15   H     H_    0.808813 0.423479 0.546805 0.155475
H16   H     H_    0.423448 0.191190 0.546777 0.155492
C57   C     C_R   0.219333 0.043549 0.972728 0.145621
C58   C     C_R   0.956438 0.219331 0.972740 0.145616
C59   C     C_R   0.780667 0.956456 0.972723 0.145624
C60   C     C_R   0.043561 0.780669 0.972739 0.145612
C61   C     C_R   0.780667 0.043544 0.027276 0.145624
C62   C     C_R   0.043561 0.219331 0.027261 0.145613
C63   C     C_R   0.219332 0.956451 0.027272 0.145621
C64   C     C_R   0.956438 0.780669 0.027259 0.145615
C65   C     C_R   0.719333 0.543544 0.472724 0.145623
C66   C     C_R   0.456438 0.719331 0.472739 0.145613
C67   C     C_R   0.280667 0.456451 0.472728 0.145621
C68   C     C_R   0.543562 0.280669 0.472740 0.145615
C69   C     C_R   0.280667 0.543548 0.527272 0.145620
C70   C     C_R   0.543562 0.719331 0.527259 0.145615
C71   C     C_R   0.719333 0.456456 0.527276 0.145623
C72   C     C_R   0.456439 0.280669 0.527261 0.145613
C73   C     C_R   0.187511 0.000000 0.000000 -0.065468
C74   C     C_R   1.000000 0.187510 0.000000 -0.065448
C75   C     C_R   0.812489 0.000000 1.000000 -0.065478
C76   C     C_R   1.000000 0.812490 1.000000 -0.065447
C77   C     C_R   0.687511 0.500000 0.500000 -0.065476
C78   C     C_R   0.500000 0.687510 0.500000 -0.065447
C79   C     C_R   0.312489 0.500000 0.500000 -0.065466
C80   C     C_R   0.500000 0.312490 0.500000 -0.065447
O33   O     O_R   0.000010 0.908280 0.964370 -0.623380
O34   O     O_R   0.091720 0.000010 0.964370 -0.623378
O35   O     O_R   0.999990 0.091720 0.964370 -0.623379
O36   O     O_R   0.908280 0.999990 0.964370 -0.623379
O37   O     O_R   0.999990 0.908280 0.035630 -0.623380
O38   O     O_R   0.908280 0.000010 0.035630 -0.623379
O39   O     O_R   0.000010 0.091720 0.035630 -0.623380
O40   O     O_R   0.091720 0.999990 0.035630 -0.623379
O41   O     O_R   0.500010 0.408280 0.464370 -0.623380
O42   O     O_R   0.591720 0.500010 0.464370 -0.623379
O43   O     O_R   0.499990 0.591720 0.464370 -0.623380
O44   O     O_R   0.408280 0.499990 0.464370 -0.623378
O45   O     O_R   0.499990 0.408280 0.535630 -0.623380
O46   O     O_R   0.408280 0.500010 0.535630 -0.623379
O47   O     O_R   0.500010 0.591720 0.535630 -0.623380
O48   O     O_R   0.591720 0.499990 0.535630 -0.623379
C81   C     C_R   0.314335 0.000000 1.000000 -0.110103
C82   C     C_R   1.000000 0.314334 1.000000 -0.110119
C83   C     C_R   0.685665 0.000000 1.000000 -0.110096
C84   C     C_R   1.000000 0.685666 0.000000 -0.110119
C85   C     C_R   0.814335 0.500000 0.500000 -0.110096
C86   C     C_R   0.500000 0.814334 0.500000 -0.110120
C87   C     C_R   0.185665 0.500000 0.500000 -0.110103
C88   C     C_R   0.500000 0.185666 0.500000 -0.110119
C89   C     C_R   0.000000 0.878498 1.000000 0.922990
C90   C     C_R   0.121503 0.000000 0.000000 0.922976
C91   C     C_R   0.000000 0.121502 0.000000 0.922988
C92   C     C_R   0.878497 1.000000 0.000000 0.922976
C93   C     C_R   0.500000 0.378498 0.500000 0.922990
C94   C     C_R   0.621503 0.500000 0.500000 0.922976
C95   C     C_R   0.500000 0.621502 0.500000 0.922990
C96   C     C_R   0.378497 0.500000 0.500000 0.922976
C97   C     C_3   0.186541 0.090533 0.943169 -0.877581
H17   H     H_    0.219246 0.124047 0.927663 0.233700
H18   H     H_    0.162050 0.066924 0.914710 0.256627
H19   H     H_    0.152878 0.117010 0.963976 0.229857
C98   C     C_3   0.909437 0.186538 0.943196 -0.877602
H20   H     H_    0.875917 0.219242 0.927699 0.233708
H21   H     H_    0.933031 0.162045 0.914731 0.256626
H22   H     H_    0.882972 0.152876 0.964012 0.229850
C99   C     C_3   0.813458 0.909476 0.943160 -0.877577
H23   H     H_    0.780752 0.875968 0.927650 0.233698
H24   H     H_    0.837951 0.933089 0.914705 0.256628
H25   H     H_    0.847118 0.882994 0.963965 0.229861
C100  C     C_3   0.090560 0.813462 0.943193 -0.877602
H26   H     H_    0.124080 0.780757 0.927696 0.233708
H27   H     H_    0.066964 0.837953 0.914729 0.256626
H28   H     H_    0.117026 0.847124 0.964007 0.229850
C101  C     C_3   0.813458 0.090524 0.056840 -0.877578
H29   H     H_    0.780752 0.124032 0.072350 0.233698
H30   H     H_    0.837951 0.066911 0.085295 0.256628
H31   H     H_    0.847118 0.117006 0.036034 0.229861
C102  C     C_3   0.090559 0.186538 0.056808 -0.877602
H32   H     H_    0.124079 0.219243 0.072305 0.233708
H33   H     H_    0.066963 0.162047 0.085272 0.256626
H34   H     H_    0.117025 0.152876 0.035994 0.229851
C103  C     C_3   0.186541 0.909467 0.056831 -0.877582
H35   H     H_    0.219246 0.875954 0.072337 0.233701
H36   H     H_    0.162050 0.933076 0.085290 0.256626
H37   H     H_    0.152878 0.882990 0.036025 0.229857
C104  C     C_3   0.909437 0.813462 0.056803 -0.877603
H38   H     H_    0.875916 0.780758 0.072300 0.233708
H39   H     H_    0.933030 0.837955 0.085268 0.256626
H40   H     H_    0.882971 0.847123 0.035988 0.229850
C105  C     C_3   0.686542 0.590525 0.443161 -0.877580
H41   H     H_    0.719248 0.624033 0.427651 0.233699
H42   H     H_    0.662049 0.566911 0.414705 0.256628
H43   H     H_    0.652882 0.617006 0.463966 0.229861
C106  C     C_3   0.409440 0.686538 0.443193 -0.877602
H44   H     H_    0.375920 0.719243 0.427696 0.233708
H45   H     H_    0.433035 0.662046 0.414729 0.256626
H46   H     H_    0.382974 0.652876 0.464008 0.229850
C107  C     C_3   0.313459 0.409467 0.443169 -0.877583
H47   H     H_    0.280754 0.375954 0.427663 0.233701
H48   H     H_    0.337950 0.433076 0.414710 0.256627
H49   H     H_    0.347122 0.382990 0.463975 0.229858
C108  C     C_3   0.590562 0.313462 0.443196 -0.877602
H50   H     H_    0.624083 0.280758 0.427699 0.233708
H51   H     H_    0.566969 0.337955 0.414731 0.256626
H52   H     H_    0.617028 0.347123 0.464012 0.229849
C109  C     C_3   0.313459 0.590533 0.556831 -0.877585
H53   H     H_    0.280754 0.624046 0.572337 0.233701
H54   H     H_    0.337949 0.566924 0.585290 0.256627
H55   H     H_    0.347122 0.617009 0.536025 0.229858
C110  C     C_3   0.590563 0.686538 0.556804 -0.877603
H56   H     H_    0.624084 0.719242 0.572301 0.233708
H57   H     H_    0.566969 0.662044 0.585268 0.256627
H58   H     H_    0.617029 0.652877 0.535988 0.229849
C111  C     C_3   0.686542 0.409475 0.556839 -0.877579
H59   H     H_    0.719248 0.375967 0.572349 0.233699
H60   H     H_    0.662049 0.433088 0.585295 0.256628
H61   H     H_    0.652882 0.382993 0.536034 0.229861
C112  C     C_3   0.409441 0.313462 0.556807 -0.877602
H62   H     H_    0.375920 0.280757 0.572305 0.233708
H63   H     H_    0.433037 0.337953 0.585272 0.256626
H64   H     H_    0.382975 0.347124 0.535993 0.229851

loop_
_geom_bond_atom_site_label_1
_geom_bond_atom_site_label_2
_geom_bond_distance
_ccdc_geom_bond_type
C103  H37   1.108677 S    
O14   Zn8   2.020948 S    
C80   C93   1.430586 S    
C26   C34   1.455990 S    
O25   C13   1.300339 A    
C104  H38   1.110918 S    
O23   C11   1.300339 A    
C25   C33   1.455990 S    
C56   H16   1.084699 S    
C9    C17   1.480841 S    
C57   C73   1.413523 A    
C60   C100  1.511276 S    
C32   C40   1.455990 S    
C27   C35   1.455990 S    
Zn10  O37   2.018183 S    
C11   C19   1.480841 S    
O21   Zn1   1.878154 S    
C97   H17   1.110923 S    
C12   C20   1.480843 S    
C108  H52   1.108678 S    
C102  H32   1.110914 S    
C52   H12   1.084699 S    
O13   C7    1.278564 A    
C111  H59   1.110922 S    
C67   C79   1.413519 A    
Zn9   O34   2.018182 S    
C63   C73   1.413522 A    
O47   C95   1.222542 A    
O41   C93   1.222542 A    
O23   Zn3   1.878154 S    
O11   C7    1.278562 A    
C14   C22   1.480843 S    
C109  H55   1.108672 S    
O18   Zn2   1.878154 S    
C61   C101  1.511278 S    
O44   C96   1.222547 A    
Zn10  O40   2.018182 S    
C100  H27   1.109616 S    
O2    C2    1.278568 A    
C76   C89   1.430586 S    
C57   C97   1.511277 S    
C22   C30   1.232812 T    
C7    C87   1.423660 S    
C106  H46   1.108673 S    
O40   C90   1.222544 A    
C18   C26   1.232812 T    
C101  H30   1.109616 S    
C59   C99   1.511276 S    
O20   C10   1.300338 A    
C103  H36   1.109617 S    
Zn12  O45   2.018183 S    
C62   C74   1.413512 A    
O38   C92   1.222545 A    
O2    Zn2   2.020948 S    
C44   H4    1.084699 S    
C55   C85   1.391041 A    
C34   C39   1.232798 T    
C48   H8    1.084698 S    
O43   C95   1.222539 A    
C70   C110  1.511276 S    
O7    C1    1.278563 A    
C46   C62   1.383576 A    
C75   C92   1.430604 S    
O28   C14   1.300338 A    
O26   C14   1.300337 A    
C44   C60   1.383576 A    
C1    C81   1.423658 S    
C112  H62   1.110915 S    
C10   C18   1.480843 S    
O30   C16   1.300340 A    
C58   C74   1.413513 A    
C42   H2    1.084699 S    
O29   Zn5   1.878154 S    
C71   C111  1.511274 S    
C50   C66   1.383576 A    
Zn11  O41   2.018183 S    
C98   H21   1.109616 S    
O16   C8    1.278566 A    
C109  H54   1.109615 S    
C47   C63   1.383575 A    
O21   C11   1.300341 A    
C104  H39   1.109616 S    
O5    Zn1   2.020947 S    
C8    C88   1.423670 S    
C41   C81   1.391044 A    
C30   C38   1.455990 S    
O45   C93   1.222539 A    
C15   C23   1.480841 S    
C54   C86   1.391048 A    
O19   Zn3   1.878154 S    
C45   C83   1.391043 A    
Zn12  O46   2.018184 S    
C97   H18   1.109617 S    
O7    Zn3   2.020949 S    
O25   Zn5   1.878154 S    
O6    C2    1.278566 A    
O31   Zn7   1.878154 S    
C5    C85   1.423655 S    
Zn9   O35   2.018180 S    
O27   Zn7   1.878154 S    
C107  H47   1.110921 S    
C47   H7    1.084699 S    
C46   H6    1.084698 S    
C69   C109  1.511275 S    
C21   C29   1.232812 T    
O17   C9    1.300339 A    
Zn9   O33   2.018183 S    
O3    Zn3   2.020947 S    
Zn10  O39   2.018180 S    
C67   C107  1.511276 S    
C100  H28   1.108674 S    
O37   C89   1.222542 A    
C33   C40   1.232798 T    
C53   C87   1.391041 A    
C108  H50   1.110916 S    
C99   H23   1.110921 S    
C55   C71   1.383577 A    
C50   H10   1.084697 S    
O10   C6    1.278566 A    
C52   C88   1.391050 A    
C60   C76   1.413512 A    
O15   Zn7   2.020949 S    
C46   C82   1.391048 A    
C101  H31   1.108679 S    
Zn12  O48   2.018182 S    
O13   Zn5   2.020947 S    
C43   C59   1.383575 A    
C109  H53   1.110919 S    
C2    C82   1.423670 S    
C51   C87   1.391044 A    
O34   C90   1.222547 A    
C52   C68   1.383578 A    
C42   C82   1.391050 A    
O19   C9    1.300337 A    
C106  H44   1.110918 S    
C69   C79   1.413519 A    
C64   C76   1.413509 A    
C49   C85   1.391040 A    
C98   H22   1.108678 S    
O35   C91   1.222543 A    
O3    C3    1.278561 A    
C54   C70   1.383578 A    
C102  H33   1.109617 S    
C110  H56   1.110918 S    
O24   C12   1.300338 A    
C64   C104  1.511276 S    
O46   C96   1.222544 A    
C79   C96   1.430597 S    
C56   C88   1.391049 A    
O8    C4    1.278568 A    
C24   C32   1.232812 T    
C16   C24   1.480843 S    
C44   C84   1.391048 A    
C41   C57   1.383575 A    
C112  H63   1.109615 S    
O24   Zn2   1.878154 S    
C77   C94   1.430604 S    
O12   Zn8   2.020946 S    
O39   C91   1.222540 A    
C29   C37   1.455990 S    
C43   H3    1.084698 S    
C105  H41   1.110920 S    
C49   C65   1.383577 A    
C19   C27   1.232812 T    
O26   Zn6   1.878154 S    
O32   Zn6   1.878154 S    
C42   C58   1.383576 A    
C13   C21   1.480841 S    
C104  H40   1.108675 S    
O15   C5    1.278561 A    
C72   C80   1.413511 A    
C62   C102  1.511277 S    
C53   H13   1.084697 S    
C110  H58   1.108675 S    
C70   C78   1.413509 A    
O8    Zn2   2.020946 S    
C31   C39   1.455990 S    
C41   H1    1.084700 S    
O18   C10   1.300337 A    
O31   C15   1.300339 A    
C72   C112  1.511277 S    
C105  H43   1.108676 S    
C17   C25   1.232812 T    
C101  H29   1.110922 S    
O32   C16   1.300338 A    
O22   Zn4   1.878154 S    
C66   C78   1.413512 A    
C99   H25   1.108679 S    
Zn9   O36   2.018184 S    
C78   C95   1.430586 S    
O1    C1    1.278565 A    
C63   C103  1.511276 S    
Zn11  O42   2.018182 S    
C36   C37   1.232798 T    
C65   C105  1.511274 S    
C66   C106  1.511274 S    
C35   C38   1.232798 T    
C97   H19   1.108677 S    
C56   C72   1.383576 A    
C107  H49   1.108675 S    
O5    C3    1.278563 A    
Zn11  O43   2.018180 S    
C108  H51   1.109615 S    
O30   Zn8   1.878154 S    
O12   C8    1.278568 A    
O33   C89   1.222539 A    
Zn11  O44   2.018184 S    
Zn10  O38   2.018184 S    
C48   C84   1.391048 A    
O11   Zn7   2.020947 S    
C65   C77   1.413522 A    
O14   C6    1.278568 A    
O16   Zn6   2.020946 S    
C48   C64   1.383578 A    
C68   C80   1.413509 A    
C107  H48   1.109615 S    
C3    C83   1.423653 S    
C28   C36   1.455990 S    
Zn12  O47   2.018180 S    
C51   H11   1.084697 S    
C73   C90   1.430597 S    
C102  H34   1.108674 S    
C55   H15   1.084697 S    
O20   Zn4   1.878154 S    
O9    C5    1.278563 A    
C100  H26   1.110917 S    
O42   C94   1.222548 A    
C59   C75   1.413524 A    
C45   C61   1.383575 A    
C6    C86   1.423672 S    
O48   C94   1.222545 A    
O28   Zn8   1.878154 S    
C110  H57   1.109615 S    
C43   C83   1.391043 A    
O29   C15   1.300341 A    
C23   C31   1.232812 T    
O22   C12   1.300340 A    
O4    Zn4   2.020946 S    
C20   C28   1.232812 T    
C103  H35   1.110919 S    
O10   Zn6   2.020948 S    
C112  H64   1.108673 S    
O17   Zn1   1.878154 S    
C47   C81   1.391045 A    
C54   H14   1.084698 S    
C53   C69   1.383575 A    
C111  H61   1.108677 S    
O4    C4    1.278566 A    
C58   C98   1.511278 S    
C51   C67   1.383575 A    
C99   H24   1.109616 S    
O9    Zn5   2.020949 S    
C61   C75   1.413525 A    
C111  H60   1.109615 S    
C98   H20   1.110915 S    
C4    C84   1.423672 S    
C45   H5    1.084700 S    
C106  H45   1.109616 S    
C74   C91   1.430583 S    
O36   C92   1.222548 A    
O6    Zn4   2.020948 S    
C105  H42   1.109614 S    
O1    Zn1   2.020949 S    
C68   C108  1.511275 S    
C50   C86   1.391049 A    
C49   H9    1.084698 S    
C71   C77   1.413524 A    
O27   C13   1.300337 A    
