data_mof_unit_49536.cif
_audit_creation_date              2012-12-11T17:43:59-0500
_audit_creation_method            fapswitch 2.2
_symmetry_space_group_name_H-M    P1
_symmetry_Int_Tables_number       1
_space_group_crystal_system       triclinic
_cell_length_a                    20.255916
_cell_length_b                    22.829176
_cell_length_c                    6.9332
_cell_angle_alpha                 90.000087
_cell_angle_beta                  86.591924
_cell_angle_gamma                 90.000048
_cell_volume                      3200.42094689

loop_
_atom_site_label
_atom_site_type_symbol
_atom_type_description
_atom_site_fract_x
_atom_site_fract_y
_atom_site_fract_z
_atom_type_partial_charge
O1    O     O_R   0.751270 0.447300 0.600030 -0.542904
O2    O     O_R   0.248730 0.947300 0.399970 -0.542904
O3    O     O_R   0.613530 0.440160 0.952150 -0.541828
O4    O     O_R   0.386470 0.940160 0.047850 -0.541829
O5    O     O_R   0.613050 0.552700 0.122560 -0.545852
O6    O     O_R   0.386950 0.052700 0.877440 -0.545872
C1    C     C_R   0.592015 0.425165 0.787041 0.738451
C2    C     C_R   0.407986 0.925166 0.212959 0.738427
O7    O     O_R   0.750780 0.440350 0.929820 -0.546200
O8    O     O_R   0.249220 0.940350 0.070180 -0.546196
O9    O     O_R   0.751280 0.552900 0.100070 -0.545505
O10   O     O_R   0.248720 0.052900 0.899930 -0.545502
C3    C     C_R   0.774748 0.427044 0.757343 0.709667
C4    C     C_R   0.225252 0.927044 0.242657 0.709675
O11   O     O_R   0.613040 0.447100 0.622520 -0.532236
O12   O     O_R   0.386960 0.947100 0.377480 -0.532241
O13   O     O_3   0.682160 0.536920 0.777780 -0.370776
O14   O     O_3   0.317840 0.036920 0.222220 -0.370774
V1    V     V_3+5 0.682160 0.493150 0.052630 1.402687
V2    V     V_3+5 0.317840 0.993150 0.947370 1.402671
O15   O     O_R   0.750790 0.559840 0.429870 -0.546336
O16   O     O_R   0.249210 0.059840 0.570130 -0.546332
C5    C     C_R   0.773675 0.574289 0.257308 0.706770
C6    C     C_R   0.226325 0.074289 0.742692 0.706785
O17   O     O_R   0.613540 0.559650 0.452200 -0.521442
O18   O     O_R   0.386460 0.059650 0.547800 -0.521437
C7    C     C_R   0.591556 0.574116 0.287928 0.751741
C8    C     C_R   0.408445 0.074115 0.712072 0.751626
V3    V     V_3+5 0.682160 0.506850 0.552630 1.435305
V4    V     V_3+5 0.317840 0.006850 0.447370 1.435297
O19   O     O_3   0.682150 0.463080 0.277610 -0.375072
O20   O     O_3   0.317850 0.963080 0.722390 -0.375064
C9    C     C_R   0.573969 0.855216 0.126742 -0.186429
C10   C     C_R   0.426037 0.355210 0.873299 -0.186489
H1    H     H_    0.535396 0.942145 0.120391 0.124826
H2    H     H_    0.464610 0.442139 0.879658 0.124828
H3    H     H_    0.660014 0.769887 0.064209 0.117081
H4    H     H_    0.339993 0.269881 0.935825 0.117083
H5    H     H_    0.622702 0.869617 0.073551 0.113519
H6    H     H_    0.377306 0.369609 0.926507 0.113519
C11   C     C_R   0.460057 0.879869 0.211946 -0.083412
C12   C     C_R   0.539945 0.379866 0.788056 -0.083328
C13   C     C_R   0.476555 0.595971 0.396038 0.405352
C14   C     C_R   0.523452 0.095965 0.603982 0.405313
C15   C     C_R   0.429044 0.636500 0.459914 -0.195128
C16   C     C_R   0.570961 0.136495 0.540101 -0.195009
C17   C     C_R   0.437078 0.695634 0.417661 -0.223731
C18   C     C_R   0.562926 0.195630 0.582346 -0.223775
C19   C     C_R   0.490869 0.716434 0.297625 0.077371
C20   C     C_R   0.509135 0.216430 0.702381 0.077364
C21   C     C_R   0.542737 0.675583 0.247282 0.016507
C22   C     C_R   0.457267 0.175578 0.752724 0.016550
C23   C     C_R   0.498009 0.777163 0.241541 0.048708
C24   C     C_R   0.501995 0.277160 0.758465 0.048717
C25   C     C_R   0.561399 0.795959 0.165620 0.137688
C26   C     C_R   0.438607 0.295954 0.834404 0.137703
C27   C     C_R   0.612252 0.755553 0.125709 -0.198094
C28   C     C_R   0.387754 0.255548 0.874315 -0.198104
C29   C     C_R   0.602520 0.696261 0.160001 -0.178937
C30   C     C_R   0.397485 0.196257 0.840011 -0.178937
C31   C     C_R   0.445538 0.820068 0.252854 -0.068583
C32   C     C_R   0.554465 0.320067 0.747137 -0.068585
C33   C     C_R   0.524221 0.896665 0.152886 -0.187273
C34   C     C_R   0.475784 0.396660 0.847148 -0.187291
C35   C     C_R   0.535336 0.615366 0.297813 -0.199601
C36   C     C_R   0.464668 0.115362 0.702193 -0.199645
H7    H     H_    0.402618 0.724289 0.493042 0.156483
H8    H     H_    0.597386 0.224284 0.506961 0.156490
H9    H     H_    0.386749 0.622279 0.550931 0.138632
H10   H     H_    0.613257 0.122274 0.449087 0.138660
H11   H     H_    0.643304 0.666929 0.122947 0.115823
H12   H     H_    0.356701 0.166925 0.877067 0.115837
C37   C     C_R   0.168242 0.885636 0.260647 -0.024191
C38   C     C_R   0.831758 0.385637 0.739353 -0.024187
C39   C     C_R   0.146365 0.856008 0.097833 -0.208273
C40   C     C_R   0.853633 0.356007 0.902165 -0.208278
C41   C     C_R   0.092991 0.816785 0.115721 -0.174247
C42   C     C_R   0.907007 0.316783 0.884277 -0.174246
C43   C     C_R   0.059995 0.806382 0.297804 0.410599
C44   C     C_R   0.940005 0.306382 0.702196 0.410599
C45   C     C_R   0.081545 0.836321 0.458992 -0.197582
C46   C     C_R   0.918458 0.336323 0.541009 -0.197587
C47   C     C_R   0.134734 0.875494 0.441190 -0.213185
C48   C     C_R   0.865268 0.375496 0.558811 -0.213179
C49   C     C_R   0.897628 0.691971 0.389370 0.435580
C50   C     C_R   0.102371 0.191970 0.610628 0.435587
C51   C     C_R   0.846346 0.649954 0.402922 -0.318820
C52   C     C_R   0.153653 0.149953 0.597078 -0.318826
C53   C     C_R   0.934178 0.700487 0.209566 0.331817
C54   C     C_R   0.065820 0.200485 0.790432 0.331827
N1    N     N_2   0.005540 0.766786 0.327167 -0.230035
N2    N     N_2   0.994461 0.266787 0.672833 -0.230032
N3    N     N_2   0.988850 0.740269 0.180074 -0.310979
N4    N     N_2   0.011147 0.240267 0.819923 -0.310980
C55   C     C_R   0.828083 0.618394 0.240090 -0.091718
C56   C     C_R   0.171916 0.118394 0.759909 -0.091717
H13   H     H_    0.820824 0.642038 0.542126 0.139764
H14   H     H_    0.179176 0.142038 0.457874 0.139759
H15   H     H_    0.056983 0.829075 0.600043 0.131724
H16   H     H_    0.943021 0.329080 0.399959 0.131728
H17   H     H_    0.149811 0.897605 0.569581 0.132483
H18   H     H_    0.850193 0.397608 0.430422 0.132483
C57   C     C_R   0.862915 0.628799 0.062263 -0.206816
C58   C     C_R   0.137084 0.128798 0.937735 -0.206823
C59   C     C_R   0.915452 0.668694 0.048438 -0.255325
C60   C     C_R   0.084546 0.168692 0.951559 -0.255326
H19   H     H_    0.850422 0.605290 0.933728 0.148591
H20   H     H_    0.149576 0.105289 0.066270 0.148590
H21   H     H_    0.077915 0.794731 0.987294 0.140309
H22   H     H_    0.922082 0.294728 0.012703 0.140309
H23   H     H_    0.942228 0.674782 0.910047 0.189688
H24   H     H_    0.057770 0.174780 0.089950 0.189686
H25   H     H_    0.170840 0.862700 0.956398 0.129030
H26   H     H_    0.829156 0.362697 0.043598 0.129029
O21   O     O_3   0.914807 0.721666 0.553382 -0.544349
C61   C     C_3   0.861638 0.757266 0.624380 0.092184
H27   H     H_    0.826172 0.730829 0.716828 0.117456
H28   H     H_    0.834952 0.778127 0.505844 0.108696
C62   C     C_3   0.888386 0.806119 0.746982 -0.685855
H29   H     H_    0.922910 0.834079 0.657030 0.224032
H30   H     H_    0.846915 0.833586 0.807505 0.167566
H31   H     H_    0.915108 0.787459 0.867872 0.232766
O22   O     O_3   0.085191 0.221665 0.446616 -0.544347
C63   C     C_3   0.138363 0.257257 0.375590 0.092175
H32   H     H_    0.173818 0.230816 0.283121 0.117464
H33   H     H_    0.165061 0.278113 0.494110 0.108693
C64   C     C_3   0.111615 0.306115 0.253008 -0.685862
H34   H     H_    0.077103 0.334080 0.342981 0.224030
H35   H     H_    0.153088 0.333576 0.192461 0.167564
H36   H     H_    0.084880 0.287460 0.132136 0.232770
C65   C     C_R   0.374866 0.803105 0.277951 0.048627
C66   C     C_R   0.337211 0.818162 0.447726 -0.146828
C67   C     C_R   0.273018 0.796450 0.480130 -0.130003
C68   C     C_R   0.245329 0.761201 0.341155 -0.082425
C69   C     C_R   0.281484 0.748157 0.168529 -0.127775
C70   C     C_R   0.346180 0.768831 0.136955 -0.115404
H37   H     H_    0.358758 0.844081 0.558706 0.126556
H38   H     H_    0.244844 0.806719 0.613406 0.112098
H39   H     H_    0.195608 0.744423 0.366534 0.125475
H40   H     H_    0.259690 0.721352 0.060346 0.112666
H41   H     H_    0.374407 0.757195 0.004897 0.110786
C71   C     C_R   0.625137 0.303106 0.722014 0.048597
C72   C     C_R   0.662784 0.318166 0.552227 -0.146803
C73   C     C_R   0.726978 0.296457 0.519798 -0.130002
C74   C     C_R   0.754674 0.261209 0.658759 -0.082429
C75   C     C_R   0.718528 0.248164 0.831397 -0.127761
C76   C     C_R   0.653832 0.268834 0.862996 -0.115422
H42   H     H_    0.641230 0.344084 0.441257 0.126546
H43   H     H_    0.755145 0.306729 0.386514 0.112091
H44   H     H_    0.804396 0.244433 0.633361 0.125478
H45   H     H_    0.740328 0.221359 0.939568 0.112674
H46   H     H_    0.625611 0.257197 0.995063 0.110789
O23   O     O_3   0.469828 0.538526 0.457294 -0.556738
C77   C     C_3   0.444038 0.505331 0.307524 0.067613
H47   H     H_    0.476809 0.507693 0.172821 0.112259
H48   H     H_    0.393615 0.520996 0.276902 0.119285
C78   C     C_3   0.439080 0.441533 0.369945 -0.679669
H49   H     H_    0.406927 0.437641 0.504739 0.222860
H50   H     H_    0.417308 0.415073 0.255510 0.174013
H51   H     H_    0.489029 0.424143 0.395590 0.228436
O24   O     O_3   0.530187 0.038521 0.542712 -0.556744
C79   C     C_3   0.555878 0.005304 0.692572 0.067659
H52   H     H_    0.522977 0.007586 0.827012 0.112357
H53   H     H_    0.606236 0.021010 0.723695 0.119236
C80   C     C_3   0.560990 0.941532 0.629931 -0.679749
H54   H     H_    0.593290 0.937717 0.495408 0.222802
H55   H     H_    0.582660 0.915052 0.744483 0.174041
H56   H     H_    0.511105 0.924103 0.603744 0.228493

loop_
_geom_bond_atom_site_label_1
_geom_bond_atom_site_label_2
_ccdc_geom_bond_type
C9    C25   A    
C52   C56   A    
C10   C26   A    
C80   H54   S    
C54   N4    S    
C48   H18   S    
N2    N4    D    
C14   C36   A    
C11   C31   A    
O4    C2    A    
V1    O19   S    
C58   C60   A    
C74   C75   A    
O22   C63   S    
C17   C19   A    
C60   H24   S    
O9    V1    S    
C78   H49   S    
C38   C40   A    
C5    C55   S    
C10   H6    S    
C40   C42   A    
C79   H52   S    
O3    C1    A    
C6    C56   S    
C42   C44   A    
C27   C29   A    
C30   H12   S    
C28   C30   A    
C72   C73   A    
C79   C80   S    
O13   V3    S    
C61   H27   S    
C21   C35   A    
C15   C17   A    
O7    C3    A    
C22   C30   A    
O5    C7    A    
C23   C31   A    
O7    V1    S    
O6    C8    A    
O8    V2    S    
C66   C67   A    
C19   C21   A    
C51   C55   A    
C20   C22   A    
O3    V1    S    
C39   H25   S    
C47   H17   S    
C12   C32   A    
C77   H48   S    
C74   H44   S    
C9    C33   A    
C2    O12   A    
C18   C20   A    
C59   H23   S    
C67   H38   S    
C80   H55   S    
H4    C28   S    
V3    O19   S    
C37   C39   A    
C72   H42   S    
C64   H35   S    
C32   C71   S    
C17   H7    S    
C45   C47   A    
C14   C16   A    
O11   V3    S    
C16   C18   A    
C23   C25   A    
O17   V3    S    
C69   H40   S    
C24   C26   A    
C49   C51   A    
C15   H9    S    
C43   N1    S    
C4    C37   S    
C69   C70   A    
C2    C11   S    
C54   C60   A    
C77   C78   S    
C44   C46   A    
C65   C70   A    
C50   C54   A    
C68   H39   S    
C43   C45   A    
C49   C53   A    
C1    O11   A    
C24   C32   A    
C66   H37   S    
O15   V3    S    
C44   N2    S    
C8    C36   S    
C1    C12   S    
C73   H43   S    
C7    C35   S    
N1    N3    D    
C55   C57   A    
C9    H5    S    
C40   H26   S    
C49   O21   S    
C13   C35   A    
O10   V2    S    
C10   C34   A    
C41   C43   A    
C57   C59   A    
C20   C24   A    
C18   H8    S    
C41   H21   S    
C39   C41   A    
C77   H47   S    
C62   H30   S    
C61   H28   S    
C63   C64   S    
O14   V4    S    
O18   V4    S    
C80   H56   S    
C46   C48   A    
C25   C27   A    
O8    C4    A    
C67   C68   A    
O16   C6    A    
O1    C3    A    
C14   O24   S    
C11   C33   A    
O12   V4    S    
C64   H34   S    
C12   C34   A    
C58   H20   S    
C22   C36   A    
C63   H33   S    
C75   C76   A    
V2    O20   S    
C62   H31   S    
C56   C58   A    
O16   V4    S    
C46   H16   S    
C71   C76   A    
C38   C48   A    
C73   C74   A    
C57   H19   S    
C62   H29   S    
C68   C69   A    
O5    V1    S    
C78   H51   S    
C45   H15   S    
O10   C6    A    
O18   C8    A    
C42   H22   S    
C61   C62   S    
O2    V4    S    
O15   C5    A    
C76   H46   S    
C64   H36   S    
C13   C15   A    
C79   H53   S    
O24   C79   S    
V4    O20   S    
O1    V3    S    
O6    V2    S    
C19   C23   A    
C50   C52   A    
O9    C5    A    
O13   V1    S    
C70   H41   S    
C26   C28   A    
O14   V2    S    
C53   N3    S    
C65   C66   A    
O2    C4    A    
H3    C27   S    
C16   H10   S    
C31   C65   S    
C75   H45   S    
O4    V2    S    
C21   C29   A    
C3    C38   S    
C78   H50   S    
C53   C59   A    
C50   O22   S    
C71   C72   A    
H1    C33   S    
O23   C77   S    
H2    C34   S    
C13   O23   S    
C37   C47   A    
C52   H14   S    
O21   C61   S    
C29   H11   S    
C63   H32   S    
C51   H13   S    
O17   C7    A    
