data_mof_unit_50669.cif
_audit_creation_date              2012-12-10T19:09:07-0500
_audit_creation_method            fapswitch 2.2
_symmetry_space_group_name_H-M    P1
_symmetry_Int_Tables_number       1
_space_group_crystal_system       triclinic
_cell_length_a                    17.725264
_cell_length_b                    10.842712
_cell_length_c                    9.521601
_cell_angle_alpha                 89.264622
_cell_angle_beta                  90.512225
_cell_angle_gamma                 90.554461
_cell_volume                      1829.64833456

loop_
_atom_site_label
_atom_site_type_symbol
_atom_type_description
_atom_site_fract_x
_atom_site_fract_y
_atom_site_fract_z
_atom_type_partial_charge
C1    C     C_R   0.503673 0.262273 0.500625 0.802285
C2    C     C_R   0.113922 0.502721 0.501388 0.084423
C3    C     C_R   0.536152 0.059818 0.616228 0.058951
C4    C     C_R   0.355349 0.500834 0.499115 0.816607
C5    C     C_R   0.512824 0.129167 0.498261 -0.153070
C6    C     C_R   0.499432 0.066401 0.371159 -0.180621
C7    C     C_R   0.496486 0.937780 0.369666 -0.218664
C8    C     C_R   0.504411 0.870822 0.495933 -0.098234
C9    C     C_R   0.525933 0.933986 0.615898 0.094082
C10   C     C_3   0.497008 0.928514 0.761927 -0.468618
C11   C     C_3   0.518010 0.064602 0.770272 0.234302
C12   C     C_R   0.885169 0.498844 0.502272 0.147776
C13   C     C_R   0.532744 0.595141 0.072904 0.228423
C14   C     C_R   0.458433 0.416362 0.075659 -0.203733
C15   C     C_R   0.455539 0.418778 0.925064 0.486734
C16   C     C_R   0.499218 0.737705 0.498978 0.798439
C17   C     C_R   0.533702 0.594090 0.925709 0.172485
C18   C     C_3   0.614482 0.633179 0.922219 -0.496290
C19   C     C_3   0.612739 0.638068 0.081505 -0.467921
C20   C     C_R   0.644468 0.500004 0.500397 0.779351
C21   C     C_R   0.846542 0.535718 0.621583 -0.151759
C22   C     C_R   0.767973 0.536317 0.620868 -0.203966
C23   C     C_1   0.965732 0.499654 0.502952 -0.071654
C24   C     C_R   0.727351 0.499617 0.500981 -0.029834
C25   C     C_R   0.766701 0.463039 0.381205 -0.197224
C26   C     C_R   0.845379 0.462577 0.382010 -0.154636
C27   C     C_3   0.608062 0.197210 0.867575 0.103822
C28   C     C_3   0.682776 0.196636 0.948997 -0.324045
C29   C     C_3   0.712963 0.326524 0.972640 -0.956818
C30   C     C_3   0.340430 0.313754 0.901690 0.018252
C31   C     C_3   0.332123 0.183316 0.963646 -0.371552
C32   C     C_3   0.255202 0.164411 0.031672 -0.880961
C33   C     C_3   0.276478 0.590037 0.173448 0.081424
C34   C     C_1   0.033372 0.500917 0.503103 -0.038579
C35   C     C_3   0.217884 0.607812 0.055887 -0.389882
C36   C     C_3   0.237889 0.718482 0.962253 -0.928103
C37   C     C_R   0.154752 0.518163 0.625991 -0.166731
C38   C     C_R   0.233299 0.518251 0.623919 -0.283062
C39   C     C_R   0.272045 0.503566 0.496956 -0.142044
C40   C     C_R   0.230079 0.492145 0.370036 0.448625
C41   C     C_R   0.151277 0.488969 0.374315 -0.230679
Cu1   Cu    Cu3+1 0.500000 0.499980 0.640670 0.959716
Cu2   Cu    Cu3+1 0.500000 0.500020 0.359330 0.942323
H1    H     H_    0.877127 0.564650 0.714746 0.130882
H2    H     H_    0.875111 0.434047 0.289114 0.128711
H3    H     H_    0.263678 0.529844 0.722053 0.173988
H4    H     H_    0.119216 0.475369 0.278237 0.138564
H5    H     H_    0.435047 0.911473 0.765101 0.146813
H6    H     H_    0.566102 0.250220 0.927258 0.153313
H7    H     H_    0.617475 0.240658 0.762559 0.159736
H8    H     H_    0.674439 0.150381 0.052700 0.227825
H9    H     H_    0.725152 0.143713 0.889727 0.226129
H10   H     H_    0.723295 0.373613 0.870352 0.261396
H11   H     H_    0.766977 0.322335 0.032389 0.256220
H12   H     H_    0.483754 0.891817 0.271794 0.161461
H13   H     H_    0.671793 0.379108 0.034378 0.257805
H14   H     H_    0.427893 0.346633 0.134507 0.173398
H15   H     H_    0.300673 0.322100 0.811383 0.172564
H16   H     H_    0.322587 0.384160 0.978512 0.149846
H17   H     H_    0.338494 0.114940 0.878689 0.212445
H18   H     H_    0.376943 0.166003 0.043494 0.209897
H19   H     H_    0.248482 0.229117 0.120121 0.283313
H20   H     H_    0.250400 0.068491 0.073139 0.247008
H21   H     H_    0.209389 0.179950 0.953241 0.251615
H22   H     H_    0.739267 0.567335 0.713172 0.139702
H23   H     H_    0.530664 0.867610 0.832186 0.219611
H24   H     H_    0.125914 0.529333 0.724840 0.143163
H25   H     H_    0.333417 0.588648 0.125734 0.171335
H26   H     H_    0.276365 0.671005 0.244989 0.117649
H27   H     H_    0.214741 0.523775 0.990438 0.217226
H28   H     H_    0.161520 0.622780 0.102287 0.213536
H29   H     H_    0.240352 0.804090 0.025065 0.258315
H30   H     H_    0.194208 0.729419 0.878821 0.261324
H31   H     H_    0.293312 0.704510 0.911499 0.250640
H32   H     H_    0.486920 0.115993 0.274356 0.162967
H33   H     H_    0.470481 0.124481 0.799672 0.143681
H34   H     H_    0.651154 0.559497 0.883143 0.208635
H35   H     H_    0.623374 0.724750 0.871458 0.203557
H36   H     H_    0.650781 0.570638 0.133539 0.210511
H37   H     H_    0.617419 0.733444 0.122385 0.199602
H38   H     H_    0.736753 0.433860 0.287571 0.146974
N1    N     N_R   0.500470 0.500930 0.147930 -0.206921
N2    N     N_R   0.500480 0.500890 0.852020 -0.218584
O1    O     O_R   0.500000 0.319640 0.618810 -0.556178
O2    O     O_3   0.414430 0.331874 0.849768 -0.598584
O3    O     O_3   0.265156 0.474856 0.242643 -0.624044
O4    O     O_R   0.500010 0.319680 0.381230 -0.582317
O5    O     O_R   0.391250 0.499990 0.618840 -0.558287
O6    O     O_R   0.391260 0.500020 0.381250 -0.552145
O7    O     O_R   0.499990 0.680320 0.618770 -0.578439
O8    O     O_R   0.500000 0.680360 0.381190 -0.588794
O9    O     O_R   0.608740 0.499980 0.618750 -0.591957
O10   O     O_R   0.608750 0.500010 0.381160 -0.581037
O11   O     O_3   0.583672 0.074198 0.854998 -0.603412

loop_
_geom_bond_atom_site_label_1
_geom_bond_atom_site_label_2
_ccdc_geom_bond_type
C1    O4    A    
C20   O10   A    
C16   O7    A    
C31   H18   S    
C35   C36   S    
C7    H12   S    
C7    C8    A    
C1    O1    A    
C20   O9    A    
C12   C23   S    
Cu2   O6    S    
C1    C5    S    
C5    C6    A    
C28   C29   S    
C11   H33   S    
C30   C31   S    
C28   H8    S    
C29   H11   S    
C2    C41   A    
C37   H24   S    
C18   C19   S    
C40   O3    S    
C26   H2    S    
Cu2   O10   S    
C20   C24   S    
C35   H27   S    
C8    C9    A    
C9    C10   S    
C27   H7    S    
C33   H26   S    
C15   O2    S    
C2    C34   S    
C35   H28   S    
C8    C16   S    
C21   C22   A    
C25   H38   S    
C10   H23   S    
C13   C19   S    
C6    H32   S    
Cu1   O1    S    
C24   C25   A    
C32   H21   S    
C10   C11   S    
C39   C40   A    
C15   N2    A    
C25   C26   A    
C13   N1    A    
Cu2   O8    S    
C12   C26   A    
Cu1   O7    S    
C31   H17   S    
C33   O3    S    
C22   H22   S    
C37   C38   A    
C3    C9    A    
C21   H1    S    
C31   C32   S    
C4    C39   S    
C18   H35   S    
C23   C34   T    
C30   H16   S    
C17   C18   S    
C41   H4    S    
C30   O2    S    
C19   H36   S    
C36   H31   S    
C11   O11   S    
C40   C41   A    
C10   H5    S    
C22   C24   A    
Cu1   O5    S    
Cu1   Cu2   S    
C14   N1    A    
C4    O6    A    
C14   H14   S    
Cu1   N2    S    
C32   H20   S    
C3    C5    A    
C6    C7    A    
C4    O5    A    
C29   H13   S    
C13   C17   A    
Cu2   O4    S    
C32   H19   S    
C28   H9    S    
C2    C37   A    
C38   C39   A    
C29   H10   S    
C18   H34   S    
C30   H15   S    
C33   C35   S    
Cu1   O9    S    
C19   H37   S    
C38   H3    S    
C3    C11   S    
C36   H30   S    
C12   C21   A    
C36   H29   S    
C16   O8    A    
C27   C28   S    
Cu2   N1    S    
C14   C15   A    
C27   O11   S    
C17   N2    A    
C27   H6    S    
C33   H25   S    
