data_mof_unit_60997.cif
_audit_creation_date              2012-12-10T18:54:05-0500
_audit_creation_method            fapswitch 2.2
_symmetry_space_group_name_H-M    P1
_symmetry_Int_Tables_number       1
_space_group_crystal_system       triclinic
_cell_length_a                    19.41357
_cell_length_b                    19.435828
_cell_length_c                    19.476526
_cell_angle_alpha                 85.028047
_cell_angle_beta                  95.328467
_cell_angle_gamma                 90.105198
_cell_volume                      7289.4273517

loop_
_atom_site_label
_atom_site_type_symbol
_atom_type_description
_atom_site_fract_x
_atom_site_fract_y
_atom_site_fract_z
_atom_type_partial_charge
C1    C     C_R   0.311860 0.492357 0.492096 0.535337
C2    C     C_2   0.482365 0.983194 0.485311 0.365861
C3    C     C_2   0.527847 0.018341 0.524859 -0.098245
C4    C     C_R   0.688038 0.507430 0.507966 0.502689
C5    C     C_R   0.513765 0.236823 0.514296 0.040274
C6    C     C_R   0.763328 0.507887 0.513461 -0.014897
C7    C     C_R   0.799265 0.446699 0.507445 -0.075152
C8    C     C_R   0.871069 0.446271 0.511572 0.389452
C9    C     C_R   0.907670 0.508310 0.518862 0.045701
C10   C     C_R   0.871575 0.568878 0.527583 -0.169870
C11   C     C_R   0.799681 0.568643 0.525304 -0.141851
C12   C     C_R   0.486584 0.907558 0.484303 0.050461
C13   C     C_R   0.124075 0.542852 0.469037 -0.070863
C14   C     C_R   0.195750 0.547801 0.472103 0.390248
C15   C     C_R   0.205288 0.423258 0.497020 -0.177840
C16   C     C_R   0.508630 0.492264 0.688813 0.506463
C17   C     C_R   0.133553 0.418303 0.492159 -0.121565
C18   C     C_R   0.092935 0.478145 0.479621 -0.038093
C19   C     C_2   0.983114 0.512196 0.517401 -0.099927
C20   C     C_2   0.017976 0.472482 0.479464 -0.089524
C21   C     C_R   0.236676 0.487957 0.487131 0.051120
C22   C     C_R   0.484595 0.506094 0.235510 0.041718
C23   C     C_R   0.427011 0.871326 0.462640 -0.076913
C24   C     C_R   0.530642 0.464857 0.205304 -0.179025
C25   C     C_R   0.524375 0.460234 0.134458 -0.131850
C26   C     C_R   0.472384 0.497442 0.092207 -0.019472
C27   C     C_R   0.425428 0.537705 0.121896 -0.069457
C28   C     C_R   0.491077 0.507262 0.311027 0.524096
C29   C     C_R   0.431533 0.542558 0.193210 0.387798
C30   C     C_R   0.464586 0.455356 0.871985 -0.106357
C31   C     C_R   0.461511 0.455762 0.800364 -0.120713
C32   C     C_R   0.568318 0.520973 0.800687 -0.117429
C33   C     C_R   0.571798 0.519799 0.872330 -0.112489
C34   C     C_R   0.428741 0.799607 0.463634 -0.124105
C35   C     C_R   0.519317 0.488317 0.908100 0.039541
C36   C     C_2   0.466789 0.494742 0.016969 -0.127038
C37   C     C_2   0.523405 0.489896 0.983265 -0.126323
C38   C     C_R   0.512885 0.489386 0.764247 0.039444
C39   C     C_R   0.508572 0.311967 0.508736 0.503660
C40   C     C_R   0.491832 0.688182 0.491435 0.505953
C41   C     C_R   0.489958 0.763397 0.487036 0.041164
C42   C     C_R   0.549984 0.799452 0.506726 -0.117588
C43   C     C_R   0.548708 0.870973 0.504384 -0.151430
C44   C     C_R   0.462980 0.124969 0.539874 -0.051474
C45   C     C_R   0.458346 0.196592 0.535690 -0.120084
C46   C     C_R   0.574576 0.204793 0.499074 -0.116371
C47   C     C_R   0.579677 0.133130 0.504698 -0.111274
C48   C     C_R   0.523430 0.093260 0.523693 0.073349
F1    F     F_    0.225022 0.611004 0.462621 -0.608524
F2    F     F_    0.904077 0.384902 0.510773 -0.645910
F3    F     F_    0.385323 0.582281 0.220381 -0.595001
F4    F     F_    0.430025 0.017817 0.445231 -0.629180
H1    H     H_    0.598194 0.772317 0.523257 0.134692
H2    H     H_    0.109763 0.368119 0.500107 0.153758
H3    H     H_    0.571429 0.435469 0.236428 0.155881
H4    H     H_    0.418565 0.430658 0.773260 0.138712
H5    H     H_    0.608994 0.546534 0.773876 0.138496
H6    H     H_    0.574536 0.491809 0.010942 0.125310
H7    H     H_    0.384700 0.566167 0.089687 0.141420
H8    H     H_    0.424566 0.428924 0.899011 0.116220
H9    H     H_    0.415998 0.501005 0.988550 0.127153
H10   H     H_    0.559875 0.426903 0.112952 0.131197
H11   H     H_    0.614712 0.544701 0.899755 0.113331
H12   H     H_    0.626666 0.108764 0.492511 0.117072
H13   H     H_    0.570637 0.993156 0.556993 0.057946
H14   H     H_    0.419547 0.094255 0.555460 0.150482
H15   H     H_    0.381957 0.772398 0.447860 0.162670
H16   H     H_    0.596735 0.896854 0.517879 0.103652
H17   H     H_    0.992287 0.433926 0.449347 0.203210
H18   H     H_    0.618209 0.235120 0.483374 0.138236
H19   H     H_    0.378738 0.898311 0.446149 0.181341
H20   H     H_    0.771686 0.398844 0.500840 0.152129
H21   H     H_    0.236275 0.376605 0.507878 0.140530
H22   H     H_    0.898989 0.616745 0.534603 0.124105
H23   H     H_    0.092841 0.589359 0.458446 0.140135
H24   H     H_    0.772436 0.616155 0.530822 0.141586
H25   H     H_    0.010582 0.551235 0.545830 0.118426
H26   H     H_    0.411141 0.220487 0.547914 0.133135
O1    O     O_3   0.500000 0.500000 0.500000 -0.462479
O2    O     O_R   0.467830 0.341070 0.546160 -0.548359
O3    O     O_R   0.450560 0.655630 0.450550 -0.520811
O4    O     O_R   0.545840 0.347670 0.467560 -0.543424
O5    O     O_R   0.535760 0.655640 0.535740 -0.551009
O6    O     O_R   0.545870 0.536170 0.656040 -0.545726
O7    O     O_R   0.450550 0.545430 0.340370 -0.464429
O8    O     O_R   0.347960 0.451240 0.536460 -0.561990
O9    O     O_R   0.655630 0.467150 0.467130 -0.545213
O10   O     O_R   0.340780 0.536140 0.450970 -0.468192
O11   O     O_R   0.655640 0.545460 0.545430 -0.543494
O12   O     O_R   0.467850 0.451260 0.656340 -0.543991
O13   O     O_R   0.535740 0.467130 0.347260 -0.564165
Zn1   Zn    Zn3+2 0.558310 0.558310 0.558290 0.936398
Zn2   Zn    Zn3+2 0.446830 0.436990 0.558720 0.938035
Zn3   Zn    Zn3+2 0.558290 0.446420 0.446420 0.934690
Zn4   Zn    Zn3+2 0.436570 0.558290 0.436570 1.034838

loop_
_geom_bond_atom_site_label_1
_geom_bond_atom_site_label_2
_ccdc_geom_bond_type
C1    C21   S    
O4    Zn3   S    
C22   C29   A    
C27   C29   A    
C10   H22   S    
C41   C42   A    
C44   H14   S    
C19   C20   D    
C2    C12   S    
C7    C8    A    
C4    O9    A    
C24   H3    S    
C16   O12   A    
O5    Zn1   S    
C12   C23   A    
C26   C27   A    
C30   C35   A    
C14   C21   A    
C36   C37   D    
C35   C37   S    
O1    Zn2   S    
C12   C43   A    
C11   H24   S    
C42   H1    S    
C30   C31   A    
O3    Zn4   S    
C14   F1    S    
O9    Zn3   S    
C3    C48   S    
C16   O6    A    
C19   H25   S    
C9    C19   S    
C13   H23   S    
C43   H16   S    
C30   H8    S    
C45   H26   S    
C32   C38   A    
C31   H4    S    
C9    C10   A    
C37   H6    S    
C1    O10   A    
O10   Zn4   S    
C22   C28   S    
C13   C14   A    
C40   O5    A    
C3    H13   S    
C34   C41   A    
C32   H5    S    
C23   H19   S    
C24   C25   A    
O1    Zn3   S    
C4    C6    S    
C7    H20   S    
C8    C9    A    
C25   C26   A    
C5    C45   A    
O1    Zn4   S    
O8    Zn2   S    
C47   C48   A    
C33   H11   S    
C23   C34   A    
C17   C18   A    
O11   Zn1   S    
O1    Zn1   S    
C2    F4    S    
C13   C18   A    
C26   C36   S    
C40   C41   S    
C15   H21   S    
C5    C39   S    
C22   C24   A    
C20   H17   S    
C42   C43   A    
C36   H9    S    
C8    F2    S    
C6    C11   A    
C44   C45   A    
O12   Zn2   S    
C4    O11   A    
C29   F3    S    
C1    O8    A    
C15   C17   A    
C46   C47   A    
C40   O3    A    
C39   O4    A    
C34   H15   S    
C47   H12   S    
C6    C7    A    
C5    C46   A    
C31   C38   A    
C39   O2    A    
C2    C3    D    
C27   H7    S    
C32   C33   A    
O13   Zn3   S    
O7    Zn4   S    
C33   C35   A    
C28   O13   A    
C18   C20   S    
C25   H10   S    
C46   H18   S    
C10   C11   A    
C15   C21   A    
C28   O7    A    
O6    Zn1   S    
O2    Zn2   S    
C17   H2    S    
C44   C48   A    
C16   C38   S    
