data_mof_unit_44959.cif
_audit_creation_date              2012-12-10T18:01:45-0500
_audit_creation_method            fapswitch 2.2
_symmetry_space_group_name_H-M    P1
_symmetry_Int_Tables_number       1
_space_group_crystal_system       triclinic
_cell_length_a                    10.830388
_cell_length_b                    9.637865
_cell_length_c                    19.371208
_cell_angle_alpha                 90.052414
_cell_angle_beta                  92.701891
_cell_angle_gamma                 89.973668
_cell_volume                      2019.75305676

loop_
_atom_site_label
_atom_site_type_symbol
_atom_type_description
_atom_site_fract_x
_atom_site_fract_y
_atom_site_fract_z
_atom_type_partial_charge
C1    C     C_R   0.262400 0.500020 0.499799 0.803983
C2    C     C_R   0.737589 0.499983 0.500095 0.769552
C3    C     C_R   0.493679 0.498276 0.930136 0.525921
C4    C     C_R   0.495531 0.500337 0.069953 0.527200
C5    C     C_R   0.499672 0.500079 0.367834 0.770981
C6    C     C_R   0.500822 0.500319 0.632338 0.850560
C7    C     C_R   0.063939 0.373975 0.500009 -0.137377
C8    C     C_R   0.936010 0.626042 0.499549 -0.137409
C9    C     C_R   0.936176 0.373954 0.500103 -0.135577
C10   C     C_R   0.063780 0.626063 0.499496 -0.124090
C11   C     C_R   0.871609 0.499985 0.499932 -0.042561
C12   C     C_R   0.128354 0.500029 0.499737 -0.040824
C13   C     C_R   0.406386 0.073163 0.466720 0.423909
C14   C     C_R   0.593418 0.926504 0.533458 0.430898
C15   C     C_R   0.593695 0.073077 0.533178 0.425975
C16   C     C_R   0.406578 0.926542 0.466514 0.433790
C17   C     C_R   0.583226 0.585177 0.257223 0.343590
C18   C     C_R   0.575779 0.407105 0.747687 0.297944
C19   C     C_R   0.426962 0.598404 0.742024 0.334886
C20   C     C_R   0.412654 0.417584 0.253334 0.332312
C21   C     C_R   0.577317 0.590916 0.184645 -0.056570
C22   C     C_R   0.567071 0.399968 0.819634 -0.057292
C23   C     C_R   0.423386 0.597386 0.815065 -0.096978
C24   C     C_R   0.416727 0.411045 0.181024 -0.048480
C25   C     C_R   0.496611 0.500716 0.146233 -0.245355
C26   C     C_R   0.493456 0.497617 0.853829 -0.209437
C27   C     C_R   0.498870 0.500658 0.291831 -0.249362
C28   C     C_R   0.501478 0.501818 0.708589 -0.193066
Cu1   Cu    Cu3+1 0.500000 0.640660 0.500000 0.989166
Cu2   Cu    Cu3+1 0.500000 0.359340 0.500000 0.976612
H1    H     H_    0.111916 0.275352 0.500238 0.202167
H2    H     H_    0.888022 0.724661 0.499286 0.203032
H3    H     H_    0.888327 0.275326 0.500306 0.202584
H4    H     H_    0.111635 0.724691 0.499319 0.203147
N1    N     N_R   0.500000 0.852070 0.500000 -0.331064
N2    N     N_R   0.500000 0.147930 0.500000 -0.336592
N3    N     N_R   0.602981 0.494157 0.036830 -0.177315
N4    N     N_R   0.386150 0.503671 0.963254 -0.179461
N5    N     N_R   0.602082 0.493992 0.968171 -0.183678
N6    N     N_R   0.387104 0.505469 0.031938 -0.191118
O1    O     O_R   0.319640 0.618740 0.500000 -0.566606
O2    O     O_R   0.680360 0.381260 0.500000 -0.582391
O3    O     O_R   0.680360 0.618740 0.500000 -0.581951
O4    O     O_R   0.319640 0.381260 0.500000 -0.583809
O5    O     O_R   0.499980 0.618820 0.400140 -0.586197
O6    O     O_R   0.500020 0.381180 0.599860 -0.590680
O7    O     O_R   0.500020 0.618820 0.599860 -0.553798
O8    O     O_R   0.499980 0.381180 0.400140 -0.576554
O9    O     O_3   0.670262 0.666515 0.292728 -0.660574
H5    H     H_    0.694017 0.621913 0.337402 0.334805
O10   O     O_3   0.657939 0.320075 0.716755 -0.658759
H6    H     H_    0.694935 0.372218 0.678821 0.316132
O11   O     O_3   0.358547 0.691596 0.701512 -0.681688
H7    H     H_    0.342162 0.776251 0.728452 0.348067
O12   O     O_3   0.324241 0.340075 0.285019 -0.663533
H8    H     H_    0.298061 0.391555 0.326119 0.316987
C29   C     C_2   0.655545 0.694128 0.149898 0.968253
O13   O     O_2   0.611244 0.765039 0.102595 -0.553846
O14   O     O_R   0.779335 0.711722 0.172006 -0.675898
H9    H     H_    0.822495 0.785297 0.144581 0.353313
C30   C     C_2   0.634500 0.287316 0.858154 0.967747
O15   O     O_2   0.583034 0.221671 0.902531 -0.556554
O16   O     O_R   0.756169 0.254986 0.842993 -0.671392
H10   H     H_    0.791581 0.176221 0.872408 0.353833
C31   C     C_2   0.346655 0.700406 0.850765 0.871838
O17   O     O_2   0.236314 0.710726 0.835100 -0.537995
O18   O     O_R   0.400832 0.784996 0.902462 -0.710689
H11   H     H_    0.339199 0.850367 0.923169 0.361114
C32   C     C_2   0.338086 0.307498 0.142506 0.963033
O19   O     O_2   0.230047 0.291598 0.156478 -0.501971
O20   O     O_R   0.388412 0.226882 0.090726 -0.725707
H12   H     H_    0.326082 0.160382 0.068273 0.356825
O21   O     O_3   0.309956 0.136664 0.430657 -0.655340
H13   H     H_    0.342280 0.221705 0.410495 0.375456
O22   O     O_3   0.689484 0.862691 0.569882 -0.664667
H14   H     H_    0.657032 0.778342 0.590905 0.362622
O23   O     O_3   0.690383 0.136435 0.569038 -0.656686
H15   H     H_    0.658454 0.222247 0.588613 0.373590
O24   O     O_3   0.310446 0.862745 0.430122 -0.664932
H16   H     H_    0.342746 0.778103 0.409208 0.363999

loop_
_geom_bond_atom_site_label_1
_geom_bond_atom_site_label_2
_ccdc_geom_bond_type
O12   H8    S    
O21   H13   S    
C4    C25   S    
O11   H7    S    
Cu1   O7    S    
Cu2   O8    S    
C16   N1    A    
C29   O14   S    
C30   O16   S    
C23   C26   A    
C32   O20   S    
C5    C27   S    
C6    C28   S    
C4    N6    A    
C3    N4    A    
C31   O18   S    
C18   O10   S    
C19   O11   S    
C3    N5    A    
O14   H9    S    
Cu1   O3    S    
C9    H3    S    
Cu2   O4    S    
C30   O15   D    
C1    C12   S    
C20   O12   S    
C2    C11   S    
C24   C32   S    
C7    C12   A    
C5    O8    A    
C7    H1    S    
C6    O7    A    
O18   H11   S    
C8    H2    S    
C20   C24   A    
C18   C28   A    
C24   C25   A    
C13   N2    A    
C17   O9    S    
C14   N1    A    
O23   H15   S    
C5    O5    A    
C17   C21   A    
O10   H6    S    
Cu1   O5    S    
C17   C27   A    
C19   C23   A    
O22   H14   S    
C21   C29   S    
Cu1   Cu2   S    
C1    O4    A    
C2    O3    A    
C10   H4    S    
C19   C28   A    
C9    C11   A    
C10   C12   A    
C1    O1    A    
C13   O21   S    
C31   O17   D    
C15   N2    A    
C7    C9    A    
C21   C25   A    
C6    O6    A    
Cu1   O1    S    
C18   C22   A    
Cu2   O6    S    
C3    C26   S    
O16   H10   S    
C20   C27   A    
Cu1   N1    S    
Cu2   N2    S    
C16   O24   S    
C14   O22   S    
C23   C31   S    
O20   H12   S    
N3    N5    A    
C22   C30   S    
N4    N6    A    
C29   O13   D    
C15   O23   S    
C2    O2    A    
C8    C11   A    
C32   O19   D    
O24   H16   S    
C4    N3    A    
C8    C10   A    
O9    H5    S    
C22   C26   A    
C13   C16   A    
C14   C15   A    
Cu2   O2    S    
