data_mof_unit_47657.cif
_audit_creation_date              2013-03-05T15:45:12-0500
_audit_creation_method            fapswitch 2.2
_symmetry_space_group_name_H-M    P1
_symmetry_Int_Tables_number       1
_space_group_crystal_system       triclinic
_cell_length_a                    11.540065
_cell_length_b                    11.604973
_cell_length_c                    19.41333
_cell_angle_alpha                 90.720691
_cell_angle_beta                  90.015699
_cell_angle_gamma                 59.685789
_cell_volume                      2244.1617607

loop_
_atom_site_label
_atom_site_type_symbol
_atom_site_description
_atom_site_fract_x
_atom_site_fract_y
_atom_site_fract_z
_atom_type_partial_charge
O1    O     O_R   0.267740 0.231990 0.575440 -0.492505
O2    O     O_R   0.527280 0.186680 0.570530 -0.490464
C1    C     C_R   0.640993 0.117992 0.598833 0.558080
O3    O     O_R   0.728090 0.003480 0.576380 -0.494881
O4    O     O_R   0.682970 0.789220 0.570490 -0.502636
C2    C     C_R   0.613141 0.745230 0.598254 0.542478
O5    O     O_R   0.499290 0.771920 0.575530 -0.495567
O6    O     O_R   0.285330 0.030900 0.569730 -0.484585
C3    C     C_R   0.240099 0.145982 0.597731 0.569206
O7    O     O_R   0.270980 0.227040 0.423900 -0.455181
O8    O     O_R   0.530280 0.182090 0.430050 -0.521171
C4    C     C_R   0.641963 0.108181 0.399697 0.578371
O9    O     O_R   0.731330 0.998530 0.424830 -0.430815
O10   O     O_R   0.685970 0.784630 0.430010 -0.480417
C5    C     C_R   0.622937 0.725572 0.407550 0.572998
O11   O     O_R   0.502530 0.766960 0.423990 -0.451700
O12   O     O_R   0.288330 0.026310 0.429250 -0.439845
C6    C     C_R   0.301177 0.114764 0.393936 0.557575
Cr1   Cr    Cr6+3 0.404720 0.198220 0.499960 1.098020
Cr2   Cr    Cr6+3 0.698290 0.897110 0.500380 1.108218
Cr3   Cr    Cr6+3 0.396970 0.904720 0.499610 1.139914
O13   O     O_3   0.499990 0.000020 0.499980 -0.321838
C7    C     C_1   0.669777 0.647533 0.860460 0.012967
C8    C     C_1   0.655556 0.683250 0.728298 -0.025628
C9    C     C_1   0.663406 0.667240 0.799794 -0.026776
C10   C     C_1   0.642284 0.702987 0.667627 0.016873
C11   C     C_1   0.127912 0.197906 0.859625 0.014390
C12   C     C_1   0.170576 0.170925 0.727518 -0.027098
C13   C     C_1   0.150666 0.181790 0.798979 -0.025856
C14   C     C_1   0.193781 0.162176 0.666933 0.012350
C15   C     C_1   0.677625 0.190847 0.861195 0.016746
C16   C     C_1   0.658313 0.168057 0.728947 -0.026130
C17   C     C_1   0.664819 0.180989 0.800496 -0.025643
C18   C     C_1   0.653285 0.150680 0.668274 0.014819
C19   C     C_R   0.582635 0.602028 0.313647 0.202129
C20   C     C_R   0.599499 0.576742 0.243637 -0.105912
H1    H     H_    0.522288 0.569015 0.216248 0.211191
C21   C     C_R   0.710914 0.565304 0.208707 -0.014319
C22   C     C_R   0.817814 0.560512 0.248423 0.232214
C23   C     C_R   0.797626 0.589980 0.319271 -0.034328
H2    H     H_    0.872370 0.599515 0.348502 0.204425
C24   C     C_R   0.672959 0.629667 0.349184 0.003575
C25   C     C_R   0.330911 0.128944 0.269804 -0.137267
H3    H     H_    0.433491 0.103616 0.278944 0.118744
C26   C     C_R   0.280073 0.155685 0.202862 0.089581
C27   C     C_R   0.146813 0.190000 0.191839 0.058496
C28   C     C_R   0.070383 0.181370 0.246131 0.186584
C29   C     C_R   0.119303 0.158772 0.313082 0.239091
C30   C     C_R   0.249595 0.134043 0.324688 -0.013807
C31   C     C_R   0.719556 0.027763 0.279973 0.234427
C32   C     C_R   0.717598 0.050971 0.209905 0.197801
C33   C     C_R   0.648446 0.181893 0.186047 -0.027115
C34   C     C_R   0.553437 0.285068 0.229942 0.118633
C35   C     C_R   0.564883 0.262543 0.301057 -0.125436
H4    H     H_    0.497735 0.341370 0.336072 0.225016
C36   C     C_R   0.652472 0.135237 0.326953 -0.036797
O14   O     O_R   0.821500 0.119550 0.952820 -0.493011
O15   O     O_R   0.037130 0.162750 0.957360 -0.499406
C37   C     C_R   0.082608 0.230772 0.928995 0.542899
O16   O     O_R   0.056440 0.344950 0.951330 -0.497450
O17   O     O_R   0.797900 0.560570 0.957460 -0.486072
C38   C     C_R   0.683344 0.605349 0.929838 0.558023
O18   O     O_R   0.596140 0.579600 0.952720 -0.496110
O19   O     O_R   0.639070 0.321380 0.958660 -0.494600
C39   C     C_R   0.707590 0.206400 0.930562 0.551309
O20   O     O_R   0.821240 0.124490 0.104360 -0.421275
O21   O     O_R   0.036900 0.167320 0.097830 -0.482742
C40   C     C_R   0.084331 0.234748 0.124754 0.586516
O22   O     O_R   0.056190 0.349890 0.102870 -0.445099
O23   O     O_R   0.797670 0.565150 0.097930 -0.426608
C41   C     C_R   0.712375 0.547074 0.133157 0.563544
O24   O     O_R   0.595880 0.584540 0.104260 -0.488073
O25   O     O_R   0.638830 0.325960 0.099140 -0.478510
C42   C     C_R   0.702198 0.210133 0.124271 0.615389
Cr4   Cr    Cr6+3 0.926180 0.152240 0.028110 1.125770
Cr5   Cr    Cr6+3 0.921340 0.452070 0.027460 1.147266
Cr6   Cr    Cr6+3 0.626260 0.447120 0.028700 1.112004
O26   O     O_3   0.824590 0.350480 0.028090 -0.331085
N1    N     N_R   0.467462 0.609960 0.346560 0.103094
O27   O     O_R   0.347739 0.690994 0.323452 -0.225737
O28   O     O_R   0.481031 0.546583 0.403557 -0.316109
N2    N     N_R   0.787073 0.940157 0.162791 0.132123
O29   O     O_R   0.727533 0.932323 0.107485 -0.332471
O30   O     O_R   0.915112 0.858463 0.170005 -0.156987
N3    N     N_R   0.437620 0.403723 0.203878 0.066500
O31   O     O_R   0.402480 0.410905 0.139693 -0.296717
O32   O     O_R   0.349181 0.490414 0.246812 -0.224158
N4    N     N_R   0.942896 0.535331 0.219223 0.099214
O33   O     O_R   0.943434 0.615642 0.173446 -0.172167
O34   O     O_R   0.052906 0.462820 0.253314 -0.306272
N5    N     N_3   0.365422 0.138607 0.145553 -0.580814
H5    H     H_    0.405540 0.200064 0.153642 0.280668
H6    H     H_    0.445143 0.039960 0.145361 0.265233
N6    N     N_R   0.949174 0.181537 0.232699 0.066597
O35   O     O_R   0.959131 0.066209 0.222085 -0.253736
O36   O     O_R   0.836025 0.280520 0.255114 -0.390933
N7    N     N_R   0.035821 0.162572 0.369049 0.121872
O37   O     O_R   0.991042 0.079767 0.370144 -0.229810
O38   O     O_R   0.001961 0.251020 0.418341 -0.305921
N8    N     N_R   0.758690 0.895959 0.299780 0.093898
O39   O     O_R   0.680868 0.850611 0.281350 -0.407066
O40   O     O_R   0.882280 0.813859 0.317165 -0.214175

loop_
_geom_bond_atom_site_label_1
_geom_bond_atom_site_label_2
_geom_bond_distance
_ccdc_geom_bond_type
O11   Cr3   2.042275 S    
C11   C13   1.197964 T    
O25   C42   1.266338 A    
N4    O34   1.301127 A    
C19   C20   1.379734 A    
N7    O37   1.301044 A    
O4    Cr2   1.928178 S    
C2    C10   1.420257 S    
C34   C35   1.402109 A    
C29   N7    1.437709 S    
O8    Cr1   1.922860 S    
O24   Cr6   2.048146 S    
Cr5   O26   1.991431 S    
C20   H1    1.078830 S    
C8    C10   1.197694 T    
C33   C42   1.464906 S    
N3    O31   1.300872 A    
O4    C2    1.273941 A    
C5    O11   1.259343 A    
O20   C42   1.279349 A    
O22   Cr5   2.037298 S    
O19   Cr6   1.931940 S    
C19   C24   1.413102 A    
C27   C28   1.411084 A    
C7    C38   1.420302 S    
C40   O22   1.283585 A    
C15   C17   1.198774 T    
O23   C41   1.301132 A    
C23   C24   1.394256 A    
C37   O16   1.271459 A    
Cr3   O13   1.990893 S    
C21   C41   1.478114 S    
C22   N4    1.435534 S    
N7    O38   1.300990 A    
O15   Cr4   1.924457 S    
O12   C6    1.310379 A    
N3    O32   1.300501 A    
O17   Cr5   1.921633 S    
C35   C36   1.402854 A    
O1    Cr1   2.039851 S    
O21   C40   1.267685 A    
O10   Cr2   1.932031 S    
Cr1   O13   1.986571 S    
O1    C3    1.271851 A    
C8    C9    1.399512 S    
C22   C23   1.403862 A    
N1    O28   1.301520 A    
O6    C3    1.276618 A    
C1    C18   1.422213 S    
C31   C32   1.387942 A    
O15   C37   1.277148 A    
Cr6   O26   1.976045 S    
O16   Cr5   2.039335 S    
C31   C36   1.408468 A    
C32   C33   1.397604 A    
C16   C18   1.198823 T    
C25   H3    1.081277 S    
C27   C40   1.457469 S    
C38   O18   1.267479 A    
N5    H6    1.045783 S    
C28   C29   1.391251 A    
O7    Cr1   2.040642 S    
N8    O40   1.300719 A    
O6    Cr3   1.924438 S    
N6    O35   1.297979 A    
C4    O9    1.269436 A    
N6    O36   1.299010 A    
C25   C26   1.398329 A    
C32   N2    1.436365 S    
C4    C36   1.468763 S    
C3    C14   1.420735 S    
C23   H2    1.082946 S    
Cr2   O13   1.975965 S    
N2    O30   1.300307 A    
O23   Cr5   1.922438 S    
O21   Cr4   1.927161 S    
C1    O3    1.266314 A    
N5    H5    1.038331 S    
C33   C34   1.418285 A    
O18   Cr6   2.043892 S    
C15   C39   1.422047 S    
C35   H4    1.080928 S    
C12   C13   1.399926 S    
O9    Cr2   2.044149 S    
O2    Cr1   1.925503 S    
C25   C30   1.400799 A    
C5    C24   1.475079 S    
O14   C39   1.266385 A    
O8    C4    1.271124 A    
C2    O5    1.268490 A    
C31   N8    1.417315 S    
C16   C17   1.401283 S    
O14   Cr4   2.046288 S    
C12   C14   1.197956 T    
O2    C1    1.270437 A    
C41   O24   1.314047 A    
C11   C37   1.420760 S    
O19   C39   1.272819 A    
C20   C21   1.398746 A    
O5    Cr3   2.039805 S    
C21   C22   1.432039 A    
O7    C6    1.296229 A    
C29   C30   1.399892 A    
O20   Cr4   2.041598 S    
C19   N1    1.434814 S    
N8    O39   1.297579 A    
C28   N6    1.421828 S    
C7    C9    1.197705 T    
O17   C38   1.272152 A    
C26   N5    1.430088 S    
Cr4   O26   1.986050 S    
O12   Cr3   1.921020 S    
N1    O27   1.301205 A    
O3    Cr2   2.049717 S    
C26   C27   1.397514 A    
N4    O33   1.298123 A    
N2    O29   1.301291 A    
O25   Cr6   1.926239 S    
O10   C5    1.297902 A    
C34   N3    1.448364 S    
C6    C30   1.443713 S    
