data_mof_unit_53139.cif
_audit_creation_date              2012-12-11T14:08:20-0500
_audit_creation_method            fapswitch 2.2
_symmetry_space_group_name_H-M    P1
_symmetry_Int_Tables_number       1
_space_group_crystal_system       triclinic
_cell_length_a                    28.186678
_cell_length_b                    7.199021
_cell_length_c                    17.192415
_cell_angle_alpha                 89.878181
_cell_angle_beta                  101.91985
_cell_angle_gamma                 90.008805
_cell_volume                      3413.39308298

loop_
_atom_site_label
_atom_site_type_symbol
_atom_type_description
_atom_site_fract_x
_atom_site_fract_y
_atom_site_fract_z
_atom_type_partial_charge
O1    O     O_R   0.000700 0.436510 0.857920 -0.534676
O2    O     O_R   0.999300 0.563490 0.142080 -0.534053
O3    O     O_R   0.999300 0.936510 0.642080 -0.534342
O4    O     O_R   0.000700 0.063490 0.357920 -0.533804
O5    O     O_R   0.930080 0.766380 0.721890 -0.543281
O6    O     O_R   0.069920 0.233620 0.278110 -0.540514
O7    O     O_R   0.069920 0.266380 0.778110 -0.542554
O8    O     O_R   0.930080 0.733620 0.221890 -0.539799
C1    C     C_R   0.910649 0.597841 0.708856 0.702572
C2    C     C_R   0.089387 0.402197 0.290957 0.701065
C3    C     C_R   0.089347 0.097762 0.791224 0.701222
C4    C     C_R   0.910627 0.902253 0.208885 0.700358
O9    O     O_R   0.996180 0.766230 0.862310 -0.542708
O10   O     O_R   0.003820 0.233770 0.137690 -0.542521
O11   O     O_R   0.003820 0.266230 0.637690 -0.542623
O12   O     O_R   0.996180 0.733770 0.362310 -0.542483
O13   O     O_R   0.065870 0.936460 0.783500 -0.536001
O14   O     O_R   0.934130 0.063540 0.216500 -0.540608
O15   O     O_R   0.934130 0.436460 0.716500 -0.536158
O16   O     O_R   0.065870 0.563540 0.283500 -0.540747
C5    C     C_R   0.998484 0.596360 0.894450 0.762727
C6    C     C_R   0.001518 0.403640 0.105551 0.760927
C7    C     C_R   0.001513 0.096533 0.605502 0.762186
C8    C     C_R   0.998484 0.903467 0.394497 0.760075
O17   O     O_3   0.022790 0.603020 0.723980 -0.378825
O18   O     O_3   0.977210 0.396980 0.276020 -0.377782
O19   O     O_3   0.977210 0.103020 0.776020 -0.379197
O20   O     O_3   0.022790 0.896980 0.223980 -0.378138
V1    V     V_3+5 0.995770 0.877900 0.754830 1.420953
V2    V     V_3+5 0.004230 0.122100 0.245170 1.413604
V3    V     V_3+5 0.004230 0.377900 0.745170 1.421815
V4    V     V_3+5 0.995770 0.622100 0.254830 1.414477
C9    C     C_2   0.001695 0.082655 0.519509 -0.327815
C10   C     C_2   0.998297 0.917346 0.480489 -0.328055
C11   C     C_2   0.998288 0.582554 0.980378 -0.328447
C12   C     C_2   0.001718 0.417446 0.019624 -0.328873
H1    H     H_    0.004475 0.211402 0.487702 0.153306
H2    H     H_    0.995516 0.788599 0.512295 0.153819
H3    H     H_    0.995475 0.711285 0.011959 0.153374
H4    H     H_    0.004532 0.288716 0.988043 0.153793
C13   C     C_R   0.684296 0.036895 0.035469 0.632360
C14   C     C_R   0.315538 0.963100 0.964971 0.595880
C15   C     C_R   0.316504 0.451149 0.471358 0.641846
C16   C     C_R   0.683845 0.544733 0.525211 0.587988
O21   O     O_2   0.714489 0.110125 0.992019 -0.512566
O22   O     O_2   0.285333 0.885871 0.007394 -0.487026
O23   O     O_2   0.286881 0.443849 0.523729 -0.516138
O24   O     O_2   0.713569 0.544392 0.472928 -0.496497
N1    N     N_R   0.703028 0.945359 0.104917 -0.542620
N2    N     N_R   0.296815 0.057062 0.896154 -0.572942
N3    N     N_R   0.297232 0.444278 0.391450 -0.540069
N4    N     N_R   0.703056 0.557029 0.605020 -0.571082
C17   C     C_R   0.673184 0.871779 0.150600 0.638293
C18   C     C_R   0.326681 0.136747 0.852025 0.552496
C19   C     C_R   0.326429 0.456413 0.337094 0.630024
C20   C     C_R   0.673704 0.552915 0.659313 0.562988
C21   C     C_R   0.781274 0.083509 0.166086 -0.122413
C22   C     C_R   0.218934 0.919208 0.831746 -0.020623
C23   C     C_R   0.218674 0.584171 0.332486 -0.122366
C24   C     C_R   0.781158 0.418706 0.668665 -0.015210
C25   C     C_R   0.831637 0.075311 0.191187 -0.191343
C26   C     C_R   0.168551 0.927125 0.806562 -0.171110
C27   C     C_R   0.168207 0.576678 0.309089 -0.195547
C28   C     C_R   0.831578 0.426277 0.693116 -0.172891
C29   C     C_R   0.830622 0.755230 0.148229 -0.274325
C30   C     C_R   0.168976 0.242665 0.855065 -0.169814
C31   C     C_R   0.169887 0.252328 0.346722 -0.275166
C32   C     C_R   0.830732 0.744897 0.647621 -0.171972
C33   C     C_R   0.779995 0.762721 0.121009 0.004579
C34   C     C_R   0.219686 0.234896 0.882173 -0.005415
C35   C     C_R   0.220707 0.258222 0.370822 0.021641
C36   C     C_R   0.779939 0.738014 0.621775 0.007489
C37   C     C_R   0.754968 0.929248 0.130834 0.379543
C38   C     C_R   0.244874 0.071433 0.869657 0.292275
C39   C     C_R   0.245380 0.427355 0.364192 0.375033
C40   C     C_R   0.754960 0.572401 0.632308 0.288434
C41   C     C_R   0.602298 0.976446 0.054050 -0.044663
C42   C     C_R   0.397556 0.029905 0.948032 -0.044840
C43   C     C_R   0.397804 0.475988 0.444414 -0.037919
C44   C     C_R   0.602390 0.528867 0.552087 -0.045876
C45   C     C_R   0.633736 0.054155 0.008865 -0.030288
C46   C     C_R   0.366110 0.947533 0.992021 -0.045994
C47   C     C_R   0.367027 0.465178 0.499216 -0.024835
C48   C     C_R   0.633285 0.532588 0.497341 -0.041490
C49   C     C_R   0.614167 0.146543 0.938010 -0.101202
C50   C     C_R   0.385686 0.851565 0.061962 -0.123833
C51   C     C_R   0.387221 0.467561 0.580528 -0.116826
C52   C     C_R   0.613188 0.524000 0.416073 -0.119673
C53   C     C_R   0.622393 0.884764 0.125769 -0.030079
C54   C     C_R   0.377466 0.125340 0.877268 -0.026276
C55   C     C_R   0.377101 0.472932 0.362513 -0.029009
C56   C     C_R   0.622998 0.537899 0.633927 -0.029321
C57   C     C_R   0.856943 0.910906 0.182880 -0.032981
C58   C     C_R   0.142979 0.089214 0.817526 -0.094248
C59   C     C_R   0.143140 0.410690 0.315901 -0.034811
C60   C     C_R   0.856987 0.589497 0.683043 -0.095579
H5    H     H_    0.849758 0.628191 0.140514 0.124130
H6    H     H_    0.149529 0.367498 0.864707 0.167258
H7    H     H_    0.151114 0.123110 0.352322 0.124870
H8    H     H_    0.849939 0.871492 0.639474 0.167234
H9    H     H_    0.637489 0.207647 0.902056 0.179326
H10   H     H_    0.362364 0.785824 0.096727 0.178828
H11   H     H_    0.364437 0.458275 0.624025 0.175799
H12   H     H_    0.636092 0.526057 0.372619 0.179920
C61   C     C_R   0.480055 0.100127 0.929157 0.037630
C62   C     C_R   0.519799 0.909280 0.073700 0.037803
C63   C     C_R   0.520535 0.509019 0.581415 0.039491
C64   C     C_R   0.479589 0.499915 0.415088 0.040207
C65   C     C_R   0.468470 0.920512 0.046560 0.034662
C66   C     C_R   0.531386 0.085315 0.955383 0.033719
C67   C     C_R   0.530932 0.509914 0.442098 0.037890
C68   C     C_R   0.469284 0.493428 0.554435 0.038226
C69   C     C_R   0.448920 0.016806 0.974704 0.062020
C70   C     C_R   0.550934 0.990451 0.027608 0.063833
C71   C     C_R   0.551060 0.515892 0.525082 0.064421
C72   C     C_R   0.449116 0.489896 0.471431 0.065553
C73   C     C_R   0.458441 0.195738 0.858515 -0.174520
C74   C     C_R   0.541408 0.819729 0.145874 -0.172362
C75   C     C_R   0.542652 0.518304 0.663239 -0.178212
C76   C     C_R   0.457319 0.500019 0.333222 -0.172391
C77   C     C_R   0.408355 0.207599 0.833302 -0.130706
C78   C     C_R   0.591500 0.807973 0.171119 -0.129774
C79   C     C_R   0.592673 0.532613 0.688674 -0.132892
C80   C     C_R   0.407287 0.486266 0.307744 -0.128495
O25   O     O_2   0.307315 0.226958 0.783994 -0.518540
O26   O     O_2   0.692575 0.785598 0.219620 -0.512497
O27   O     O_2   0.693463 0.564367 0.737637 -0.514380
O28   O     O_2   0.306555 0.451238 0.258681 -0.510314
C81   C     C_R   0.564232 0.162030 0.911748 -0.175216
C82   C     C_R   0.435630 0.837859 0.088675 -0.173624
C83   C     C_R   0.437129 0.480804 0.607675 -0.172945
C84   C     C_R   0.563237 0.513158 0.388910 -0.178831
H13   H     H_    0.149665 0.806704 0.777754 0.141253
H14   H     H_    0.850703 0.197566 0.217818 0.139475
H15   H     H_    0.850619 0.304508 0.720565 0.141175
H16   H     H_    0.148875 0.700966 0.285143 0.139268
H17   H     H_    0.238016 0.793653 0.821981 0.144408
H18   H     H_    0.762443 0.210992 0.173922 0.130657
H19   H     H_    0.762260 0.291931 0.677453 0.143960
H20   H     H_    0.237260 0.713238 0.326417 0.140322
H21   H     H_    0.393919 0.282403 0.778782 0.160431
H22   H     H_    0.605937 0.737486 0.226731 0.159214
H23   H     H_    0.607510 0.539454 0.751988 0.169680
H24   H     H_    0.392331 0.486282 0.244389 0.161882
H25   H     H_    0.479052 0.264472 0.820799 0.113185
H26   H     H_    0.520775 0.757337 0.185164 0.112734
H27   H     H_    0.522464 0.516220 0.709928 0.115169
H28   H     H_    0.477361 0.511685 0.286544 0.111271
H29   H     H_    0.552799 0.234787 0.856333 0.118467
H30   H     H_    0.447089 0.759838 0.142727 0.117409
H31   H     H_    0.449127 0.479516 0.671267 0.113425
H32   H     H_    0.551361 0.505893 0.325374 0.116300
C85   C     C_2   0.755436 0.595162 0.081336 0.432631
H33   H     H_    0.776269 0.469480 0.078438 0.050041
O29   O     O_2   0.712375 0.594633 0.050429 -0.510574
C86   C     C_2   0.245906 0.395528 0.924908 0.436922
H34   H     H_    0.284964 0.391677 0.945316 0.062367
O30   O     O_2   0.224110 0.534214 0.938625 -0.511613
C87   C     C_2   0.246177 0.084671 0.401956 0.415293
H35   H     H_    0.225474 0.968384 0.417655 0.034408
O31   O     O_2   0.289921 0.066911 0.408967 -0.520969
C88   C     C_2   0.753250 0.903903 0.584495 0.418904
H36   H     H_    0.713957 0.908223 0.573265 0.054894
O32   O     O_2   0.774841 0.037835 0.565260 -0.525375

loop_
_geom_bond_atom_site_label_1
_geom_bond_atom_site_label_2
_ccdc_geom_bond_type
O17   V3    S    
C47   C51   A    
C61   C66   A    
N1    C17   A    
O1    C5    A    
C30   H6    S    
O19   V1    S    
O13   V1    S    
C63   C68   A    
C64   C76   A    
O3    C7    A    
C11   C12   D    
C14   C46   A    
C44   C48   A    
O15   V3    S    
C42   C54   A    
O18   V4    S    
C41   C53   A    
C32   C60   A    
C62   C70   A    
C34   C86   S    
C23   H20   S    
C26   H13   S    
C73   H25   S    
C86   H34   S    
N3    C39   S    
C18   C54   A    
N2    C38   S    
C74   C78   A    
C11   H3    S    
O4    C8    A    
C25   C57   A    
C31   C35   A    
C53   C78   A    
C75   H27   S    
C81   H29   S    
C27   C59   A    
O1    V3    S    
C15   C47   A    
C66   C81   A    
O2    V4    S    
C14   O22   S    
C20   O27   S    
C21   C37   A    
O3    V1    S    
C73   C77   A    
C34   C38   A    
C19   C55   A    
C49   C81   A    
C83   H31   S    
C1    O15   A    
C82   H30   S    
C2    O16   A    
C7    C9    S    
O2    C6    A    
C87   O31   D    
C33   C37   A    
O14   V2    S    
C41   C45   A    
C85   O29   D    
C66   C70   A    
O5    V1    S    
C65   C69   A    
C30   C58   A    
C16   N4    A    
O11   C7    A    
C28   H15   S    
O12   C8    A    
C43   C72   A    
C62   C74   A    
C31   C59   A    
C61   C73   A    
O10   V2    S    
C63   C75   A    
C52   H12   S    
C25   H14   S    
C88   O32   D    
C18   O25   S    
O7    V3    S    
O8    V4    S    
C77   H21   S    
C12   H4    S    
C28   C60   A    
C56   C79   A    
C50   C82   A    
N4    C40   S    
C46   C50   A    
C24   C40   A    
C8    C10   S    
O9    V1    S    
C32   C36   A    
C52   C84   A    
C44   C56   A    
O7    C3    A    
C35   C87   S    
C32   H8    S    
O5    C1    A    
C42   C46   A    
C87   H35   S    
C44   C71   A    
C74   H26   S    
O8    C4    A    
C13   C45   A    
C9    C10   D    
O9    C5    A    
C36   C40   A    
N2    C18   A    
O11   V3    S    
C1    C60   S    
C63   C71   A    
C51   C83   A    
C22   C26   A    
C14   N2    A    
C51   H11   S    
C22   H17   S    
O6    V2    S    
C76   H28   S    
C75   C79   A    
C55   C80   A    
C26   C58   A    
C17   C53   A    
O10   C6    A    
C84   H32   S    
C54   C77   A    
N1    C37   S    
C4    C57   S    
C42   C69   A    
C78   H22   S    
C79   H23   S    
C41   C70   A    
C50   H10   S    
C23   C39   A    
C68   C72   A    
C49   H9    S    
C22   C38   A    
C9    H1    S    
C88   H36   S    
O16   V4    S    
C61   C69   A    
C3    O13   A    
C13   O21   S    
C10   H2    S    
C43   C55   A    
C48   C52   A    
C3    C58   S    
C16   C48   A    
O6    C2    A    
C21   C25   A    
C5    C11   S    
C31   H7    S    
O12   V4    S    
C13   N1    A    
C6    C12   S    
C23   C27   A    
C64   C67   A    
C24   C28   A    
C27   H16   S    
C64   C72   A    
C86   O30   D    
C29   H5    S    
C35   C39   A    
C15   N3    A    
C30   C34   A    
N4    C20   A    
C2    C59   S    
C29   C33   A    
O20   V2    S    
C29   C57   A    
C21   H18   S    
N3    C19   A    
C68   C83   A    
C33   C85   S    
C17   O26   S    
C24   H19   S    
C43   C47   A    
C76   C80   A    
C67   C84   A    
C20   C56   A    
C19   O28   S    
C45   C49   A    
C4    O14   A    
C65   C82   A    
C36   C88   S    
C80   H24   S    
C67   C71   A    
C85   H33   S    
C15   O23   S    
O4    V2    S    
C16   O24   S    
C62   C65   A    
