data_mof_unit_66713.cif
_audit_creation_date              2013-03-05T15:39:23-0500
_audit_creation_method            fapswitch 2.2
_symmetry_space_group_name_H-M    P1
_symmetry_Int_Tables_number       1
_space_group_crystal_system       triclinic
_cell_length_a                    20.493402
_cell_length_b                    22.070277
_cell_length_c                    8.743369
_cell_angle_alpha                 89.850961
_cell_angle_beta                  103.89581
_cell_angle_gamma                 89.981312
_cell_volume                      3838.83313729

loop_
_atom_site_label
_atom_site_type_symbol
_atom_site_description
_atom_site_fract_x
_atom_site_fract_y
_atom_site_fract_z
_atom_type_partial_charge
P1    P     P_3+3 0.859590 0.433890 0.993820 0.457078
P2    P     P_3+3 0.859590 0.566110 0.493820 0.457269
P3    P     P_3+3 0.359590 0.933890 0.993820 0.468832
P4    P     P_3+3 0.359590 0.066110 0.493820 0.469411
O1    O     O_2   0.866180 0.413660 0.823810 -0.353848
O2    O     O_2   0.866180 0.586340 0.323810 -0.362212
O3    O     O_2   0.366180 0.913660 0.823810 -0.335679
O4    O     O_2   0.366180 0.086340 0.323810 -0.363664
O5    O     O_3   0.922050 0.469730 0.097400 -0.414126
O6    O     O_3   0.922050 0.530270 0.597400 -0.407620
O7    O     O_3   0.422050 0.969730 0.097400 -0.416623
O8    O     O_3   0.422050 0.030270 0.597400 -0.402654
O9    O     O_3   0.976760 0.360270 0.628090 -0.338965
O10   O     O_3   0.976760 0.639730 0.128090 -0.341691
O11   O     O_3   0.476760 0.860270 0.628090 -0.330607
O12   O     O_3   0.476760 0.139730 0.128090 -0.345543
O13   O     O_2   0.860100 0.321861 0.648258 -0.386649
O14   O     O_2   0.860345 0.679059 0.147861 -0.390969
O15   O     O_2   0.354187 0.835076 0.645099 -0.386782
O16   O     O_2   0.361068 0.178518 0.180349 -0.392616
O17   O     O_3   0.790189 0.482591 0.953860 -0.580761
O18   O     O_3   0.789542 0.518578 0.457255 -0.582074
O19   O     O_3   0.286918 0.977983 0.960030 -0.574656
O20   O     O_3   0.288232 0.020564 0.464217 -0.574149
O21   O     O_3   0.943374 0.234311 0.658458 -0.592959
O22   O     O_3   0.945045 0.765730 0.158655 -0.590371
O23   O     O_3   0.420343 0.739717 0.664696 -0.568296
O24   O     O_3   0.436152 0.266565 0.136841 -0.590084
C1    C     C_3   0.993295 0.136595 0.670180 -0.382526
C2    C     C_3   0.993276 0.864156 0.161937 -0.391657
C3    C     C_3   0.454597 0.636563 0.699227 -0.382493
C4    C     C_3   0.483923 0.361144 0.073505 -0.416954
H1    H     H_    0.009388 0.129770 0.798870 0.216030
H2    H     H_    0.013156 0.872544 0.289064 0.217196
H3    H     H_    0.479456 0.643541 0.824027 0.206985
H4    H     H_    0.500697 0.382913 0.189351 0.206651
H5    H     H_    0.939205 0.124546 0.636024 0.185973
H6    H     H_    0.938943 0.874999 0.136844 0.187146
H7    H     H_    0.401092 0.627260 0.695793 0.208948
H8    H     H_    0.429746 0.371298 0.028957 0.193235
P5    P     P_3+3 0.140130 0.433190 0.695710 0.493851
P6    P     P_3+3 0.140130 0.566810 0.195710 0.504102
P7    P     P_3+3 0.640130 0.933190 0.695710 0.485449
P8    P     P_3+3 0.640130 0.066810 0.195710 0.491476
P9    P     P_3+3 0.077548 0.298126 0.116770 0.564890
P10   P     P_3+3 0.079515 0.700436 0.613420 0.556532
P11   P     P_3+3 0.587742 0.805726 0.112842 0.558930
P12   P     P_3+3 0.584159 0.197248 0.610930 0.556708
O25   O     O_2   0.133470 0.412980 0.865660 -0.309574
O26   O     O_2   0.133470 0.587020 0.365660 -0.310541
O27   O     O_2   0.633470 0.912980 0.865660 -0.325900
O28   O     O_2   0.633470 0.087020 0.365660 -0.315845
O29   O     O_3   0.022720 0.360150 0.061220 -0.351223
O30   O     O_3   0.022720 0.639850 0.561220 -0.369120
O31   O     O_3   0.522720 0.860150 0.061220 -0.355877
O32   O     O_3   0.522720 0.139850 0.561220 -0.335555
O33   O     O_2   0.133520 0.308987 0.028445 -0.245729
O34   O     O_2   0.134729 0.687739 0.524345 -0.249596
O35   O     O_2   0.635811 0.817760 0.005007 -0.301866
O36   O     O_2   0.636895 0.178776 0.520552 -0.273151
O37   O     O_3   0.211966 0.479575 0.725228 -0.627724
O38   O     O_3   0.213566 0.522441 0.230671 -0.636707
O39   O     O_3   0.716379 0.973609 0.731725 -0.631606
O40   O     O_3   0.716449 0.026308 0.230904 -0.632070
O41   O     O_3   0.037060 0.231789 0.025988 -0.492134
O42   O     O_3   0.040679 0.767303 0.520238 -0.487982
O43   O     O_3   0.557476 0.733841 0.046920 -0.480619
O44   O     O_3   0.555070 0.265473 0.510548 -0.464200
C5    C     C_3   0.976154 0.220791 0.070314 0.621430
C6    C     C_3   0.980723 0.780393 0.566451 0.620435
C7    C     C_3   0.518118 0.708745 0.142437 0.610301
C8    C     C_3   0.506724 0.295198 0.572774 0.633165
H9    H     H_    0.979036 0.239305 0.186535 0.031534
H10   H     H_    0.984516 0.762808 0.683635 0.035663
H11   H     H_    0.529406 0.728720 0.262122 0.094031
H12   H     H_    0.529142 0.304212 0.694850 0.054538
C9    C     C_3   0.959075 0.152089 0.069064 -0.370994
C10   C     C_3   0.965004 0.849447 0.562632 -0.369258
C11   C     C_3   0.532655 0.639834 0.158975 -0.366910
C12   C     C_3   0.491143 0.358729 0.501904 -0.360346
H13   H     H_    0.935490 0.136581 0.947801 0.199871
H14   H     H_    0.941169 0.864567 0.441019 0.202640
H15   H     H_    0.546795 0.622172 0.052745 0.230866
H16   H     H_    0.463249 0.354700 0.378031 0.205510
C13   C     C_3   0.217602 0.479267 0.350802 0.754431
C14   C     C_3   0.225894 0.512428 0.867232 0.766525
C15   C     C_3   0.726859 0.987369 0.362668 0.779388
C16   C     C_3   0.725713 0.012608 0.862447 0.771988
H17   H     H_    0.181887 0.487965 0.425316 0.051647
H18   H     H_    0.187324 0.506513 0.935457 0.054188
H19   H     H_    0.688467 0.992283 0.431980 0.048496
H20   H     H_    0.690400 0.004174 0.938016 0.063009
C17   C     C_3   0.289400 0.479008 0.456301 -0.448196
C18   C     C_3   0.295317 0.493410 0.969600 -0.444395
C19   C     C_3   0.797041 0.998653 0.471991 -0.445017
C20   C     C_3   0.798008 0.006238 0.965167 -0.445299
H21   H     H_    0.292405 0.445886 0.553786 0.201966
H22   H     H_    0.305378 0.518314 0.083053 0.214184
H23   H     H_    0.804167 0.968432 0.576505 0.214148
H24   H     H_    0.804143 0.036366 0.069306 0.209680
H25   H     H_    0.325815 0.464531 0.387463 0.214380
H26   H     H_    0.335377 0.506217 0.909418 0.213557
H27   H     H_    0.836686 0.986537 0.409873 0.210227
H28   H     H_    0.834798 0.021509 0.898192 0.208740
Ba1   Ba    Ba6+2 0.999900 0.456810 0.844860 1.587723
Ba2   Ba    Ba6+2 0.999900 0.543190 0.344860 1.591444
Ba3   Ba    Ba6+2 0.499900 0.956810 0.844860 1.606012
Ba4   Ba    Ba6+2 0.499900 0.043190 0.344860 1.590389
C21   C     C_3   0.808319 0.539664 0.909372 0.374484
C22   C     C_3   0.804623 0.462453 0.401748 0.364797
C23   C     C_3   0.298314 0.036324 0.910560 0.366082
C24   C     C_3   0.297459 0.966738 0.389247 0.379800
H29   H     H_    0.824492 0.535799 0.797648 0.093489
H30   H     H_    0.820611 0.468381 0.290138 0.097260
H31   H     H_    0.300392 0.034843 0.784948 0.089853
H32   H     H_    0.300030 0.976304 0.266226 0.091467
H33   H     H_    0.849250 0.559431 0.002864 0.105765
H34   H     H_    0.844622 0.439393 0.491485 0.100353
H35   H     H_    0.345435 0.055906 0.983854 0.083866
H36   H     H_    0.343906 0.943563 0.454633 0.077379
C25   C     C_3   0.747169 0.581486 0.887084 -0.382194
C26   C     C_3   0.740928 0.423749 0.372839 -0.369792
C27   C     C_3   0.239995 0.077066 0.928235 -0.397448
C28   C     C_3   0.237682 0.924978 0.388688 -0.382756
H37   H     H_    0.762109 0.628824 0.871255 0.188872
H38   H     H_    0.752216 0.376585 0.344628 0.194798
H39   H     H_    0.240057 0.118995 0.858534 0.192804
H40   H     H_    0.237141 0.887570 0.304039 0.187529
H41   H     H_    0.727224 0.580184 0.994659 0.221414
H42   H     H_    0.722330 0.422275 0.482294 0.217339
H43   H     H_    0.246889 0.089786 0.054084 0.217456
H44   H     H_    0.243386 0.905179 0.508196 0.222690
O45   O     O_3   0.077880 0.530130 0.092320 -0.393471
O46   O     O_3   0.077880 0.469870 0.592320 -0.400629
O47   O     O_3   0.577880 0.030130 0.092320 -0.401616
O48   O     O_3   0.577880 0.969870 0.592320 -0.397248
P13   P     P_3+3 0.916223 0.696199 0.064257 0.438194
P14   P     P_3+3 0.915638 0.304317 0.564214 0.440551
P15   P     P_3+3 0.409057 0.191876 0.073639 0.457010
P16   P     P_3+3 0.407390 0.810268 0.565589 0.496330
C29   C     C_3   0.001944 0.205013 0.631726 1.058220
C30   C     C_3   0.002335 0.795511 0.126451 1.064387
C31   C     C_3   0.459201 0.696008 0.606328 1.034969
C32   C     C_3   0.493149 0.290489 0.088866 1.035371
H45   H     H_    0.920512 0.144695 0.137508 0.180872
H46   H     H_    0.926900 0.858046 0.631605 0.183622
H47   H     H_    0.487592 0.614064 0.170739 0.185519
H48   H     H_    0.456380 0.382229 0.562290 0.166026
C33   C     C_R   0.108335 0.651345 0.928413 -0.104014
C34   C     C_R   0.106886 0.348185 0.429797 -0.097565
C35   C     C_R   0.608334 0.149540 0.925051 -0.115008
C36   C     C_R   0.611260 0.852594 0.424942 -0.069680
C37   C     C_R   0.122559 0.699348 0.832924 0.216947
C38   C     C_R   0.120766 0.299620 0.335937 0.220698
C39   C     C_R   0.628937 0.193994 0.827284 0.211530
C40   C     C_R   0.634389 0.810873 0.326414 0.237128
C41   C     C_R   0.172595 0.742258 0.899842 0.140165
C42   C     C_R   0.171138 0.256741 0.403674 0.157585
C43   C     C_R   0.688193 0.228493 0.889183 0.081673
C44   C     C_R   0.693662 0.776756 0.388185 0.097228
C45   C     C_R   0.218780 0.730089 0.048699 0.155854
C46   C     C_R   0.218003 0.269488 0.551339 0.159131
C47   C     C_R   0.716014 0.230345 0.056686 0.110047
C48   C     C_R   0.719271 0.772447 0.555969 0.108936
C49   C     C_R   0.210109 0.674037 0.125070 -0.310889
C50   C     C_R   0.209695 0.326136 0.624163 -0.369674
C51   C     C_R   0.690064 0.186849 0.148719 -0.268514
C52   C     C_R   0.690927 0.813517 0.649455 -0.260028
C53   C     C_R   0.152121 0.637438 0.076459 0.330681
C54   C     C_R   0.151566 0.362658 0.576171 0.327902
C55   C     C_R   0.645161 0.140635 0.082017 0.303654
C56   C     C_R   0.646012 0.859945 0.583314 0.297008
C57   C     C_R   0.820918 0.262214 0.281292 0.180675
C58   C     C_R   0.822921 0.739522 0.780939 0.174408
C59   C     C_R   0.301279 0.778138 0.293793 0.050463
C60   C     C_R   0.302308 0.223055 0.799054 0.055754
C61   C     C_R   0.869777 0.306224 0.350121 0.229023
C62   C     C_R   0.871575 0.695165 0.849363 0.223109
C63   C     C_R   0.359386 0.813904 0.355740 0.231142
C64   C     C_R   0.359020 0.185734 0.863116 0.232353
C65   C     C_R   0.839792 0.366820 0.109365 0.321590
C66   C     C_R   0.841626 0.634671 0.607922 0.328525
C67   C     C_R   0.348409 0.862236 0.101629 0.330553
C68   C     C_R   0.347550 0.136852 0.607142 0.346125
C69   C     C_R   0.781465 0.331065 0.058676 -0.383748
C70   C     C_R   0.784577 0.672026 0.555014 -0.375288
C71   C     C_R   0.304804 0.815178 0.032800 -0.326091
C72   C     C_R   0.303937 0.184064 0.538586 -0.331750
C73   C     C_R   0.772697 0.274969 0.134733 0.097322
C74   C     C_R   0.775641 0.727553 0.632983 0.083072
C75   C     C_R   0.275709 0.774263 0.125780 0.087157
C76   C     C_R   0.275376 0.225559 0.630649 0.077180
C77   C     C_R   0.878332 0.357190 0.261727 -0.579216
C78   C     C_R   0.880091 0.644199 0.760706 -0.571458
C79   C     C_R   0.377506 0.858809 0.261720 -0.580317
C80   C     C_R   0.376000 0.139801 0.769019 -0.589252
H49   H     H_    0.744439 0.346466 0.956244 0.174271
H50   H     H_    0.748477 0.658204 0.449689 0.171356
H51   H     H_    0.293654 0.812346 0.906805 0.200052
H52   H     H_    0.292496 0.186846 0.412627 0.198623
H53   H     H_    0.247762 0.659243 0.227333 0.152494
H54   H     H_    0.247871 0.341498 0.723419 0.148984
H55   H     H_    0.703177 0.187758 0.274645 0.201851
H56   H     H_    0.702600 0.810736 0.775188 0.193495
H57   H     H_    0.911571 0.392736 0.316361 0.157577
H58   H     H_    0.912933 0.608374 0.816002 0.154235
H59   H     H_    0.411329 0.894088 0.316188 0.160011
H60   H     H_    0.409251 0.104097 0.824244 0.158223
N1    N     N_R   0.062822 0.229446 0.737389 0.251329
O49   O     O_R   0.111011 0.193690 0.809792 -0.451560
O50   O     O_R   0.075385 0.286865 0.733098 -0.354703
N2    N     N_R   0.064166 0.772062 0.230455 0.249310
O51   O     O_R   0.112574 0.808465 0.297168 -0.460799
O52   O     O_R   0.076641 0.714490 0.230976 -0.359527
N3    N     N_R   0.529522 0.716251 0.634654 0.233102
O53   O     O_R   0.575859 0.695614 0.752230 -0.403867
O54   O     O_R   0.545955 0.757439 0.544993 -0.486546
N4    N     N_R   0.555009 0.275147 0.206024 0.242148
O55   O     O_R   0.605385 0.312664 0.237664 -0.467603
O56   O     O_R   0.566966 0.218667 0.243156 -0.318746
C81   C     C_3   0.310335 0.541168 0.525463 -0.829303
H61   H     H_    0.268558 0.564000 0.561933 0.311822
H62   H     H_    0.326153 0.570117 0.436847 0.250417
H63   H     H_    0.352733 0.535376 0.630181 0.254252
C82   C     C_3   0.301074 0.425649 0.003926 -0.836306
H64   H     H_    0.253651 0.406874 0.022654 0.319820
H65   H     H_    0.341319 0.417293 0.111996 0.247917
H66   H     H_    0.314306 0.401843 0.904127 0.232195
C83   C     C_3   0.808223 0.063890 0.527353 -0.813286
H67   H     H_    0.760523 0.087195 0.528890 0.312221
H68   H     H_    0.833521 0.087885 0.447126 0.246182
H69   H     H_    0.841932 0.065260 0.647289 0.249040
C84   C     C_3   0.815705 0.941585 0.021546 -0.811183
H70   H     H_    0.770489 0.914624 0.025219 0.307285
H71   H     H_    0.849719 0.942274 0.141326 0.251044
H72   H     H_    0.842470 0.919579 0.940677 0.244013
C85   C     C_3   0.691692 0.563425 0.744521 -0.820394
H73   H     H_    0.710752 0.563352 0.636008 0.264693
H74   H     H_    0.671752 0.517813 0.762153 0.266699
H75   H     H_    0.650352 0.596867 0.728816 0.275164
C86   C     C_3   0.685788 0.449337 0.238382 -0.816568
H76   H     H_    0.699660 0.443467 0.124136 0.260072
H77   H     H_    0.638032 0.425209 0.233911 0.278443
H78   H     H_    0.677298 0.498179 0.256665 0.265409
C87   C     C_3   0.171608 0.046432 0.871848 -0.769277
H79   H     H_    0.164072 0.032148 0.747126 0.247069
H80   H     H_    0.167500 0.006207 0.945455 0.260169
H81   H     H_    0.131456 0.078546 0.882865 0.271919
C88   C     C_3   0.170222 0.958085 0.343025 -0.781255
H82   H     H_    0.162160 0.977263 0.222422 0.242412
H83   H     H_    0.129374 0.925822 0.347447 0.273725
H84   H     H_    0.167657 0.995025 0.427405 0.266302
C89   C     C_3   0.010251 0.211665 0.465081 -1.151104
H85   H     H_    0.009514 0.259810 0.432032 0.230285
H86   H     H_    0.059863 0.194065 0.457700 0.255999
H87   H     H_    0.971593 0.185269 0.383487 0.241368
C90   C     C_3   0.009100 0.787790 0.959101 -1.144882
H88   H     H_    0.057655 0.806417 0.946929 0.254925
H89   H     H_    0.009868 0.739398 0.929583 0.229235
H90   H     H_    0.968620 0.812414 0.877217 0.238346
C91   C     C_3   0.430263 0.683071 0.430880 -1.141554
H91   H     H_    0.434522 0.723560 0.361187 0.245726
H92   H     H_    0.459120 0.647158 0.389475 0.259331
H93   H     H_    0.377088 0.668582 0.407473 0.248208
C92   C     C_3   0.500404 0.265912 0.933966 -1.109711
H94   H     H_    0.550761 0.279532 0.921660 0.226394
H95   H     H_    0.502739 0.216972 0.934602 0.242823
H96   H     H_    0.457257 0.281744 0.840860 0.235735
C93   C     C_3   0.030749 0.090034 0.593241 -0.982830
H97   H     H_    0.032468 0.046073 0.655927 0.265792
H98   H     H_    0.003287 0.082334 0.469328 0.273695
H99   H     H_    0.082962 0.104675 0.598176 0.293799
C94   C     C_3   0.025779 0.910745 0.072988 -0.985730
H100  H     H_    0.026229 0.955654 0.129852 0.265751
H101  H     H_    0.078312 0.898143 0.074293 0.292685
H102  H     H_    0.995687 0.915454 0.949951 0.276017
C95   C     C_3   0.486340 0.580015 0.644598 -0.968711
H103  H     H_    0.492187 0.544120 0.736194 0.266624
H104  H     H_    0.453889 0.561661 0.534327 0.272485
H105  H     H_    0.536371 0.590314 0.624163 0.284041
C96   C     C_3   0.521371 0.394688 0.966045 -0.950348
H106  H     H_    0.519326 0.444274 0.985991 0.262743
H107  H     H_    0.574903 0.380893 0.989888 0.289166
H108  H     H_    0.496702 0.386299 0.840822 0.262199
C97   C     C_3   0.824527 0.201677 0.361061 -1.030234
H109  H     H_    0.793870 0.201647 0.449822 0.277458
H110  H     H_    0.811967 0.164932 0.272799 0.244039
H111  H     H_    0.875269 0.190262 0.425583 0.263627
C98   C     C_3   0.824544 0.799243 0.864541 -1.013852
H112  H     H_    0.811582 0.837066 0.779094 0.245551
H113  H     H_    0.793128 0.797283 0.951552 0.273102
H114  H     H_    0.874566 0.811208 0.931993 0.263309
C99   C     C_3   0.263129 0.753659 0.409338 -0.761441
H115  H     H_    0.211867 0.738738 0.353201 0.289113
H116  H     H_    0.290833 0.716241 0.481428 0.241538
H117  H     H_    0.254409 0.790237 0.488270 0.252816
C100  C     C_3   0.267183 0.251487 0.914852 -0.777488
H118  H     H_    0.296169 0.290884 0.973802 0.244287
H119  H     H_    0.214760 0.264362 0.861322 0.291710
H120  H     H_    0.261481 0.217915 0.004862 0.253538
C101  C     C_3   0.170438 0.801993 0.815014 -0.981915
H121  H     H_    0.183164 0.840568 0.897819 0.250187
H122  H     H_    0.201530 0.800314 0.727287 0.274262
H123  H     H_    0.119121 0.811700 0.749262 0.266560
C102  C     C_3   0.169293 0.196897 0.319920 -0.988996
H124  H     H_    0.200716 0.198545 0.232858 0.274642
H125  H     H_    0.182090 0.158466 0.403751 0.248762
H126  H     H_    0.118143 0.186902 0.253094 0.268273
C103  C     C_3   0.724433 0.255440 0.772702 -0.775769
H127  H     H_    0.695879 0.294496 0.709414 0.224125
H128  H     H_    0.776760 0.268367 0.825791 0.241976
H129  H     H_    0.731645 0.220948 0.687125 0.283073
C104  C     C_3   0.731684 0.752949 0.271952 -0.784123
H130  H     H_    0.783452 0.739096 0.327169 0.244577
H131  H     H_    0.704282 0.715088 0.201781 0.228945
H132  H     H_    0.738668 0.789547 0.190698 0.284577
C105  C     C_3   0.046402 0.615484 0.864134 -0.684364
H133  H     H_    0.020531 0.598775 0.948000 0.252424
H134  H     H_    0.007728 0.647336 0.803422 0.171048
H135  H     H_    0.056687 0.577286 0.790978 0.271838
C106  C     C_3   0.044562 0.384029 0.365199 -0.687875
H136  H     H_    0.019395 0.401576 0.448968 0.254190
H137  H     H_    0.053829 0.422558 0.292038 0.276040
H138  H     H_    0.005854 0.352358 0.304199 0.169256
C107  C     C_3   0.546838 0.112163 0.859888 -0.653983
H139  H     H_    0.519991 0.097364 0.944503 0.242391
H140  H     H_    0.506530 0.141171 0.795364 0.169507
H141  H     H_    0.557818 0.073050 0.790822 0.276084
C108  C     C_3   0.545746 0.883859 0.361617 -0.664203
H142  H     H_    0.520750 0.901413 0.446333 0.249297
H143  H     H_    0.551983 0.921953 0.283342 0.260940
H144  H     H_    0.508915 0.848858 0.308005 0.186289
C109  C     C_3   0.916790 0.253436 0.963734 -0.822191
H145  H     H_    0.878791 0.259514 0.030959 0.167231
H146  H     H_    0.930788 0.298176 0.925021 0.311362
H147  H     H_    0.891057 0.226031 0.861529 0.265568
C110  C     C_3   0.920044 0.748229 0.464510 -0.821951
H148  H     H_    0.883404 0.742777 0.535765 0.167843
H149  H     H_    0.893565 0.775786 0.362881 0.264360
H150  H     H_    0.932676 0.703265 0.424867 0.312949
C111  C     C_3   0.443992 0.721471 0.064877 -0.962784
H151  H     H_    0.433128 0.769400 0.085128 0.244394
H152  H     H_    0.432678 0.714447 0.937147 0.294838
H153  H     H_    0.409280 0.692093 0.111181 0.240175
C112  C     C_3   0.440825 0.259269 0.543675 -0.945551
H154  H     H_    0.447171 0.219115 0.620897 0.233215
H155  H     H_    0.399669 0.287089 0.569989 0.209207
H156  H     H_    0.425494 0.244291 0.419619 0.319300
C113  C     C_3   0.018609 0.110247 0.133982 -0.933980
H157  H     H_    0.001146 0.062558 0.120862 0.253393
H158  H     H_    0.058366 0.115892 0.068583 0.292022
H159  H     H_    0.039764 0.118552 0.260441 0.262918
C114  C     C_3   0.025196 0.890683 0.624742 -0.937515
H160  H     H_    0.045147 0.884150 0.752679 0.263008
H161  H     H_    0.065364 0.882794 0.561646 0.296254
H162  H     H_    0.008798 0.938583 0.605314 0.255016
C115  C     C_3   0.590347 0.624984 0.300731 -0.959793
H163  H     H_    0.580813 0.643805 0.410867 0.281175
H164  H     H_    0.595804 0.575088 0.314339 0.262878
H165  H     H_    0.637971 0.643740 0.282696 0.268512
C116  C     C_3   0.553907 0.398249 0.520829 -0.907213
H166  H     H_    0.577538 0.405474 0.647731 0.247543
H167  H     H_    0.591252 0.376901 0.465144 0.313509
H168  H     H_    0.539692 0.443046 0.464509 0.253584
N5    N     N_R   0.201585 0.420772 0.276262 0.159139
O57   O     O_R   0.243351 0.375281 0.303572 -0.494170
O58   O     O_R   0.147676 0.417099 0.164006 -0.365050
N6    N     N_R   0.226482 0.576447 0.826235 0.162439
O59   O     O_R   0.180749 0.595702 0.706774 -0.398843
O60   O     O_R   0.276899 0.611729 0.887411 -0.486602
N7    N     N_R   0.723113 0.925785 0.303750 0.157470
O61   O     O_R   0.771596 0.887021 0.352975 -0.520111
O62   O     O_R   0.677050 0.913931 0.177894 -0.403934
N8    N     N_R   0.714100 0.073715 0.801525 0.161322
O63   O     O_R   0.663068 0.082031 0.683498 -0.383638
O64   O     O_R   0.759386 0.115976 0.839521 -0.515007

loop_
_geom_bond_atom_site_label_1
_geom_bond_atom_site_label_2
_geom_bond_distance
_ccdc_geom_bond_type
C115  H163  1.109238 S    
C15   H19   1.107857 S    
C100  H119  1.100711 S    
C32   C92   1.500362 S    
P5    O37   1.761191 S    
C45   C75   1.546714 S    
C22   H34   1.111439 S    
C46   C76   1.551581 S    
C110  H148  1.091223 S    
P7    O39   1.761436 S    
C63   C79   1.392288 A    
C109  H145  1.090904 S    
P8    O40   1.762505 S    
C96   H108  1.106281 S    
P9    O33   1.547344 D    
C61   C77   1.397850 A    
C31   N3    1.472183 S    
C24   C28   1.532348 S    
C19   H23   1.110813 S    
C109  H147  1.104147 S    
C16   N8    1.447215 S    
C1    H1    1.103789 S    
C94   H102  1.108642 S    
C2    H6    1.107892 S    
C50   H54   1.075056 S    
C6    C110  1.521903 S    
C33   C37   1.420201 A    
Ba2   O45   3.034843 S    
C36   C40   1.419377 A    
C6    H10   1.079863 S    
O23   C31   1.422115 S    
O24   C32   1.433067 S    
C35   C39   1.428581 A    
P4    O8    1.588433 S    
C64   C80   1.402604 A    
C108  H142  1.069929 S    
P8    O47   1.597043 S    
C103  H128  1.099364 S    
C87   H79   1.110559 S    
P5    O25   1.587321 D    
N6    O59   1.295055 A    
C114  H161  1.109413 S    
C49   C53   1.416024 A    
C116  H168  1.110511 S    
C60   C100  1.513293 S    
C48   C52   1.434819 A    
C14   H18   1.106252 S    
C17   H25   1.112579 S    
C24   H36   1.109626 S    
P1    C65   1.888348 S    
C11   C115  1.528152 S    
O1    Ba1   2.865457 S    
C101  H121  1.108895 S    
C70   C74   1.436753 A    
C105  H135  1.109832 S    
N3    O53   1.301686 A    
C32   N4    1.464670 S    
C83   H67   1.107396 S    
C116  H167  1.106653 S    
C10   H14   1.108673 S    
O10   P13   1.751187 S    
O44   C8    1.402992 S    
O2    Ba2   2.864545 S    
C112  H156  1.105774 S    
P6    Ba2   3.468213 S    
P5    Ba1   3.468951 S    
C44   C104  1.516206 S    
P12   C39   1.895018 S    
C115  H165  1.105707 S    
C20   H28   1.111821 S    
C4    C96   1.537164 S    
C29   N1    1.466354 S    
C110  H150  1.103033 S    
Ba1   O45   2.865807 S    
Ba1   Ba2   4.764740 S    
C101  H123  1.091435 S    
P10   C37   1.910139 S    
O25   Ba1   2.867037 S    
C38   C42   1.419432 A    
C99   H117  1.105424 S    
C1    C93   1.532574 S    
C96   H106  1.110998 S    
C97   H110  1.107907 S    
P2    O18   1.745193 S    
C21   C25   1.530146 S    
O42   C6    1.412537 S    
C3    C31   1.556050 S    
C4    C32   1.572241 S    
P3    O7    1.591192 S    
C10   H46   1.111822 S    
P11   O35   1.541068 D    
C12   H48   1.112253 S    
N2    O51   1.301882 A    
C18   H26   1.112494 S    
C2    C94   1.533262 S    
O27   Ba3   2.867037 S    
C106  H136  1.065458 S    
C87   H81   1.107595 S    
P9    C38   1.908591 S    
C69   H49   1.079463 S    
N5    O57   1.302959 A    
C45   C49   1.435501 A    
P1    Ba1   3.466491 S    
C14   N6    1.457538 S    
C113  H157  1.109135 S    
C5    C9    1.555715 S    
O20   C24   1.392879 S    
O22   P13   1.777080 S    
C82   H66   1.107660 S    
C7    C11   1.549389 S    
C34   C54   1.420487 A    
C88   H82   1.110100 S    
C81   H61   1.104641 S    
C33   C53   1.419432 A    
C4    H4    1.100152 S    
O16   P15   1.537563 D    
C83   H69   1.109059 S    
C89   H85   1.099568 S    
C36   C56   1.406600 A    
C104  H131  1.107931 S    
C72   H52   1.071097 S    
O11   Ba3   2.818995 S    
C35   C55   1.411641 A    
C28   H44   1.111457 S    
C23   H35   1.111069 S    
C86   H76   1.110150 S    
C107  H140  1.088305 S    
N8    O63   1.293385 A    
O32   Ba4   2.818695 S    
C18   C82   1.523503 S    
C33   C105  1.487793 S    
C102  H125  1.108925 S    
C15   C19   1.544496 S    
Ba3   Ba4   4.764740 S    
C57   C61   1.422128 A    
C84   H70   1.108282 S    
P6    O38   1.758914 S    
O40   C15   1.409958 S    
P8    O28   1.589467 D    
P9    O29   1.762282 S    
C95   H103  1.110799 S    
P10   O34   1.545840 D    
C108  H143  1.109363 S    
O24   P15   1.785745 S    
C48   C74   1.546556 S    
C19   H27   1.113156 S    
C98   H112  1.107617 S    
C26   C86   1.528381 S    
C111  H152  1.096159 S    
C77   H57   1.074083 S    
C2    H2    1.104235 S    
C39   C43   1.426307 A    
C40   C44   1.419976 A    
Ba4   O47   3.034843 S    
P2    Ba2   3.467202 S    
C52   H56   1.069038 S    
C80   H60   1.076127 S    
C25   H37   1.106454 S    
C99   H115  1.098350 S    
C27   H39   1.106862 S    
O10   Ba2   2.811298 S    
C106  H138  1.096086 S    
C1    C29   1.565476 S    
N1    O49   1.302076 A    
C92   H95   1.081097 S    
P6    O26   1.589467 D    
C66   C78   1.394951 A    
C50   C54   1.415074 A    
C113  H159  1.102241 S    
P9    O41   1.775529 S    
O3    Ba3   2.865457 S    
C17   H21   1.111842 S    
C24   H32   1.109210 S    
N1    O50   1.295468 A    
C88   H84   1.110607 S    
C7    C111  1.533088 S    
C91   H93   1.106861 S    
O17   C21   1.393973 S    
C34   C106  1.492212 S    
C69   C73   1.435456 A    
C96   H107  1.108740 S    
O19   C23   1.394763 S    
C72   C76   1.434921 A    
C90   H90   1.099324 S    
O9    P14   1.753421 S    
C85   H74   1.110805 S    
C8    C12   1.533654 S    
C20   H24   1.111405 S    
C94   H101  1.109237 S    
P7    O48   1.594235 S    
O14   P13   1.545848 D    
O29   Ba1   2.811005 S    
Ba2   O46   2.858855 S    
C85   H75   1.106588 S    
O7    Ba4   2.866559 S    
P14   C61   1.882449 S    
P3    C67   1.881004 S    
C12   C116  1.530296 S    
C16   C20   1.543224 S    
O39   C16   1.408540 S    
C12   H16   1.100392 S    
N6    O60   1.302769 A    
C114  H160  1.103927 S    
C21   H33   1.111253 S    
C62   C78   1.402128 A    
P1    O1    1.589650 D    
C44   C48   1.437361 A    
P10   O42   1.776700 S    
C81   H63   1.107623 S    
P3    O3    1.589650 D    
P4    O20   1.742543 S    
C111  H153  1.107969 S    
P11   C40   1.886125 S    
C18   H22   1.110534 S    
N7    O61   1.302500 A    
C98   H114  1.085834 S    
C66   C70   1.413561 A    
C9    C113  1.525585 S    
C105  H134  1.095311 S    
C49   H53   1.080942 S    
Ba3   O47   2.865807 S    
C46   C50   1.433026 A    
P13   C62   1.882142 S    
O18   C22   1.392970 S    
C58   C98   1.505342 S    
C67   C79   1.385312 A    
C5    H9    1.084612 S    
C51   H55   1.069055 S    
C112  H155  1.111257 S    
C65   C77   1.391648 A    
C58   C62   1.421366 A    
C8    H12   1.074951 S    
C28   H40   1.108488 S    
C109  H146  1.103160 S    
C115  H164  1.110041 S    
C93   H97   1.109457 S    
C8    C112  1.534304 S    
C110  H149  1.104225 S    
C101  H122  1.109318 S    
C36   C108  1.491854 S    
O30   Ba2   2.818695 S    
C23   C27   1.532823 S    
P1    O5    1.591192 S    
O9    Ba1   2.818995 S    
C86   H77   1.106786 S    
C13   H17   1.107521 S    
C11   H47   1.110201 S    
C111  H151  1.104382 S    
C71   H51   1.071981 S    
C30   C90   1.512597 S    
C97   H109  1.109599 S    
P6    C53   1.921503 S    
C67   C71   1.408854 A    
C89   H87   1.098637 S    
C5    C109  1.522808 S    
C9    H13   1.109388 S    
P10   O30   1.760694 S    
C47   C73   1.551918 S    
P7    Ba3   3.468951 S    
P12   O44   1.770366 S    
C58   C74   1.442919 A    
N2    O52   1.295790 A    
O12   Ba4   2.811298 S    
C87   H80   1.110181 S    
C3    H3    1.099018 S    
C41   C45   1.438148 A    
C114  H162  1.109439 S    
C27   C87   1.528013 S    
O11   P16   1.780038 S    
C27   H43   1.111981 S    
O21   C29   1.431263 S    
C19   C83   1.520007 S    
C25   H41   1.112247 S    
O8    Ba3   2.859595 S    
C51   C55   1.404694 A    
Ba4   O48   2.858855 S    
P5    C54   1.922599 S    
C15   N7    1.450288 S    
C2    C30   1.567138 S    
N4    O56   1.295665 A    
C29   C89   1.513782 S    
C86   H78   1.109947 S    
N5    O58   1.292311 A    
P8    C55   1.922093 S    
C83   H68   1.101906 S    
C68   C80   1.396971 A    
C22   C26   1.529967 S    
C11   H15   1.108917 S    
P7    O27   1.587321 D    
C104  H130  1.097756 S    
C91   H91   1.095537 S    
O41   C5    1.413903 S    
O43   C7    1.405790 S    
C37   C41   1.416326 A    
C107  H139  1.072884 S    
N8    O64   1.302184 A    
O37   C14   1.408318 S    
C52   C56   1.404376 A    
C79   H59   1.075740 S    
C81   H62   1.109872 S    
C102  H124  1.109416 S    
C93   H99   1.108758 S    
C1    H5    1.109167 S    
O26   Ba2   2.867959 S    
C70   H50   1.078328 S    
P4    Ba4   3.467202 S    
Ba1   O46   3.033852 S    
P1    O17   1.748879 S    
C6    C10   1.556230 S    
C100  H118  1.109139 S    
P3    O19   1.743131 S    
C30   N2    1.464259 S    
P4    O4    1.587500 D    
C10   C114  1.525224 S    
C106  H137  1.106341 S    
C103  H127  1.110534 S    
Ba3   O48   3.033852 S    
P6    O45   1.597043 S    
C90   H88   1.105169 S    
C97   H111  1.086447 S    
N3    O54   1.295225 A    
C59   C75   1.439031 A    
C60   C76   1.443933 A    
P16   C63   1.863569 S    
P2    C66   1.898516 S    
P15   C64   1.884881 S    
C14   C18   1.545123 S    
C82   H65   1.109836 S    
C16   H20   1.106368 S    
O15   P16   1.528889 D    
N7    O62   1.293508 A    
O13   P14   1.545379 D    
C31   C91   1.533566 S    
C92   H94   1.104672 S    
C35   C107  1.500532 S    
C71   C75   1.435693 A    
C21   H29   1.107822 S    
C113  H158  1.108962 S    
P2    O2    1.587500 D    
C13   C17   1.537510 S    
O4    Ba4   2.864545 S    
P11   O43   1.751484 S    
P5    O46   1.594235 S    
C84   H72   1.106611 S    
P12   O36   1.539546 D    
P8    Ba4   3.468213 S    
C78   H58   1.073893 S    
O38   C13   1.403936 S    
C88   H83   1.106831 S    
C91   H92   1.101392 S    
C65   C69   1.412774 A    
C104  H132  1.106140 S    
C59   C63   1.423919 A    
C100  H120  1.105984 S    
P3    Ba3   3.466491 S    
O5    Ba2   2.866559 S    
C68   C72   1.408084 A    
O31   Ba3   2.811005 S    
C90   H89   1.100405 S    
C26   H38   1.107466 S    
C107  H141  1.108312 S    
C47   C51   1.433088 A    
C28   C88   1.528809 S    
C89   H86   1.104595 S    
C60   C64   1.423817 A    
C20   C84   1.523405 S    
C102  H126  1.093377 S    
C82   H64   1.104265 S    
P4    C68   1.898803 S    
C84   H71   1.110133 S    
C13   N5    1.449510 S    
C95   H104  1.109128 S    
C59   C99   1.516767 S    
C108  H144  1.103844 S    
C43   C47   1.439061 A    
C95   H105  1.105799 S    
O12   P15   1.776257 S    
P2    O6    1.588433 S    
C9    H45   1.111769 S    
P11   O31   1.768999 S    
C103  H129  1.103269 S    
P12   O32   1.766363 S    
C22   H30   1.108916 S    
C41   C101  1.506412 S    
C17   C81   1.520499 S    
P7    C56   1.912713 S    
C116  H166  1.110833 S    
O23   P16   1.768625 S    
C93   H98   1.107951 S    
O21   P14   1.776832 S    
C99   H116  1.107575 S    
O22   C30   1.431102 S    
C43   C103  1.517543 S    
C7    H11   1.108661 S    
N4    O55   1.300974 A    
C25   C85   1.525570 S    
C57   C73   1.444842 A    
C98   H113  1.109162 S    
C42   C102  1.507948 S    
C3    H7    1.108918 S    
C4    H8    1.107390 S    
C105  H133  1.067806 S    
C3    C95   1.536462 S    
C92   H96   1.104192 S    
C42   C46   1.440468 A    
C57   C97   1.499097 S    
O28   Ba4   2.867959 S    
C34   C38   1.421164 A    
O6    Ba1   2.859595 S    
C23   H31   1.109837 S    
C112  H154  1.101275 S    
C85   H73   1.109391 S    
C26   H42   1.112301 S    
C94   H100  1.109074 S    
