data_mof_unit_45304.cif
_audit_creation_date              2012-12-11T14:33:55-0500
_audit_creation_method            fapswitch 2.2
_symmetry_space_group_name_H-M    P1
_symmetry_Int_Tables_number       1
_space_group_crystal_system       triclinic
_cell_length_a                    14.967626
_cell_length_b                    14.955545
_cell_length_c                    27.039778
_cell_angle_alpha                 90.046403
_cell_angle_beta                  89.986655
_cell_angle_gamma                 119.992788
_cell_volume                      5242.28135482

loop_
_atom_site_label
_atom_site_type_symbol
_atom_type_description
_atom_site_fract_x
_atom_site_fract_y
_atom_site_fract_z
_atom_type_partial_charge
C1    C     C_R   0.238305 0.783062 0.569126 0.531904
C2    C     C_1   0.726917 0.882284 0.859090 0.139521
C3    C     C_1   0.116693 0.844153 0.859078 0.138451
C4    C     C_1   0.155499 0.271748 0.858859 0.139532
C5    C     C_1   0.603651 0.819504 0.660442 0.169443
C6    C     C_1   0.180795 0.784880 0.660444 0.150895
C7    C     C_1   0.215744 0.396438 0.660459 0.150663
C8    C     C_1   0.580184 0.793171 0.618225 0.167849
C9    C     C_1   0.207038 0.787589 0.618221 0.147030
C10   C     C_1   0.212966 0.420051 0.618268 0.149336
C11   C     C_R   0.103052 0.217094 0.088068 0.563895
C12   C     C_R   0.217097 0.455467 0.569155 0.533522
C13   C     C_R   0.782931 0.886019 0.088077 0.563941
C14   C     C_R   0.113976 0.896939 0.088080 0.563958
C15   C     C_R   0.102377 0.212253 0.950343 0.559588
C16   C     C_R   0.787463 0.889949 0.950433 0.558823
C17   C     C_R   0.109951 0.897412 0.950449 0.558792
C18   C     C_R   0.632054 0.892813 0.363573 -0.100101
C19   C     C_R   0.107343 0.739144 0.363484 -0.100988
C20   C     C_R   0.260692 0.367804 0.363543 -0.100870
C21   C     C_R   0.660743 0.909019 0.313747 0.024855
C22   C     C_R   0.091160 0.751623 0.313656 0.024879
C23   C     C_R   0.544688 0.761751 0.569127 0.536116
C24   C     C_R   0.248189 0.339135 0.313702 0.024853
C25   C     C_R   0.700230 0.932505 0.211653 0.019327
C26   C     C_R   0.067679 0.767679 0.211570 0.019342
C27   C     C_R   0.232231 0.299897 0.211576 0.019291
C28   C     C_R   0.235191 0.787324 0.432410 0.533488
C29   C     C_R   0.212660 0.447790 0.432431 0.534154
C30   C     C_R   0.552157 0.764821 0.432410 0.534847
C31   C     C_R   0.699203 0.011662 0.238989 -0.085658
C32   C     C_R   0.988641 0.687434 0.238834 -0.085742
C33   C     C_R   0.312398 0.300950 0.238833 -0.085781
C34   C     C_3   0.669097 0.766043 0.791621 0.178846
C35   C     C_R   0.678165 0.999372 0.289601 -0.067783
C36   C     C_R   0.000929 0.678660 0.289442 -0.068245
C37   C     C_R   0.321118 0.321858 0.289467 -0.068185
C38   C     C_R   0.724310 0.945049 0.161180 -0.115224
C39   C     C_R   0.055120 0.779254 0.161106 -0.115272
C40   C     C_R   0.220717 0.275923 0.161086 -0.115195
C41   C     C_R   0.727086 0.865649 0.134846 -0.013836
C42   C     C_R   0.134389 0.861495 0.134843 -0.013866
C43   C     C_R   0.138516 0.273033 0.134835 -0.013824
C44   C     C_R   0.637661 0.733678 0.362065 -0.076953
C45   C     C_3   0.233259 0.902506 0.791936 0.177792
C46   C     C_R   0.266231 0.903961 0.362114 -0.076621
C47   C     C_R   0.095909 0.361836 0.362196 -0.076262
C48   C     C_R   0.655656 0.742062 0.311257 -0.062572
C49   C     C_R   0.257907 0.913535 0.311303 -0.062587
C50   C     C_R   0.086316 0.343976 0.311375 -0.062641
C51   C     C_R   0.666487 0.830745 0.286933 -0.000495
C52   C     C_R   0.169331 0.835677 0.286911 -0.000382
C53   C     C_R   0.164174 0.333333 0.286961 -0.000416
C54   C     C_R   0.657674 0.661955 0.283859 0.267601
C55   C     C_R   0.337959 0.995642 0.283969 0.267498
C56   C     C_3   0.097018 0.329595 0.791637 0.178904
C57   C     C_R   0.004226 0.341965 0.284054 0.267399
C58   C     C_R   0.667959 0.671196 0.232388 0.382817
C59   C     C_R   0.328681 0.996766 0.232503 0.382795
C60   C     C_R   0.003182 0.331795 0.232571 0.382702
C61   C     C_R   0.680458 0.759900 0.208553 -0.028166
C62   C     C_R   0.240056 0.920587 0.208604 -0.028173
C63   C     C_R   0.079383 0.319447 0.208647 -0.028162
C64   C     C_3   0.576938 0.880668 0.743000 0.240726
C65   C     C_3   0.118578 0.696075 0.742737 0.246349
C66   C     C_3   0.303763 0.422377 0.742974 0.245532
C67   C     C_3   0.634220 0.746009 0.736753 0.450621
C68   C     C_R   0.682060 0.840918 0.235722 -0.004550
C69   C     C_R   0.159158 0.841110 0.235703 -0.004536
C70   C     C_R   0.158796 0.317891 0.235737 -0.004526
C71   C     C_R   0.697202 0.770985 0.157904 -0.084974
C72   C     C_R   0.228946 0.926313 0.157962 -0.085029
C73   C     C_R   0.073726 0.302795 0.157982 -0.085069
C74   C     C_R   0.614285 0.801727 0.386971 -0.010732
C75   C     C_R   0.198289 0.812515 0.386958 -0.010969
C76   C     C_R   0.187383 0.385451 0.387021 -0.010754
C77   C     C_3   0.750899 0.933217 0.713318 0.522466
C78   C     C_3   0.253982 0.887787 0.737209 0.453349
C79   C     C_3   0.067506 0.819023 0.713305 0.498653
C80   C     C_3   0.181865 0.248561 0.712761 0.495715
C81   C     C_3   0.785295 0.949799 0.770630 0.078403
C82   C     C_3   0.050220 0.836271 0.770573 0.089524
C83   C     C_3   0.165569 0.214182 0.770099 0.089417
C84   C     C_1   0.749860 0.882256 0.901564 0.113295
C85   C     C_1   0.117168 0.867298 0.901561 0.112602
C86   C     C_1   0.132254 0.249166 0.901354 0.114458
C87   C     C_3   0.639719 0.843921 0.712108 -0.105703
C88   C     C_3   0.156163 0.796137 0.712148 -0.100390
C89   C     C_3   0.111650 0.365113 0.736964 0.453802
C90   C     C_3   0.204076 0.359910 0.712037 -0.101196
C91   C     C_3   0.596676 0.881285 0.800032 0.133626
C92   C     C_3   0.117345 0.714768 0.799798 0.133926
C93   C     C_3   0.284505 0.402927 0.799998 0.133937
C94   C     C_3   0.696579 0.875006 0.806929 -0.140548
C95   C     C_3   0.124098 0.821260 0.806925 -0.139890
C96   C     C_3   0.178744 0.302447 0.806740 -0.140017
Cr1   Cr    Cr6+3 0.164410 0.584450 0.499910 1.125557
Cr2   Cr    Cr6+3 0.415550 0.579960 0.499910 1.124065
Cr3   Cr    Cr6+3 0.420040 0.835590 0.499910 1.129726
Cr4   Cr    Cr6+3 0.155170 0.075460 0.019960 1.090794
Cr5   Cr    Cr6+3 0.924540 0.079710 0.019960 1.092914
Cr6   Cr    Cr6+3 0.920290 0.844830 0.019960 1.091108
F1    F     F_    0.668631 0.595142 0.205178 -0.578609
F2    F     F_    0.693705 0.714434 0.712406 -0.495479
F3    F     F_    0.286605 0.979127 0.713026 -0.496166
F4    F     F_    0.020241 0.305541 0.712870 -0.493412
F5    F     F_    0.598941 0.695175 0.824689 -0.587300
F6    F     F_    0.303324 0.902694 0.825303 -0.587251
F7    F     F_    0.095497 0.399045 0.824988 -0.586201
F8    F     F_    0.404627 0.073541 0.205360 -0.578677
F9    F     F_    0.926473 0.331097 0.205432 -0.578803
F10   F     F_    0.595676 0.976099 0.726817 -0.430078
F11   F     F_    0.023298 0.619752 0.726197 -0.430065
F12   F     F_    0.379862 0.402578 0.727003 -0.429858
F13   F     F_    0.755910 0.021428 0.694072 -0.427427
F14   F     F_    0.979411 0.736428 0.693588 -0.457489
F15   F     F_    0.264263 0.243250 0.692673 -0.459571
H1    H     H_    0.498995 0.823978 0.734090 0.232285
H2    H     H_    0.746843 0.018198 0.143320 0.149250
H3    H     H_    0.982055 0.728605 0.143199 0.149211
H4    H     H_    0.271352 0.253504 0.143148 0.149243
H5    H     H_    0.617915 0.947914 0.383053 0.177254
H6    H     H_    0.052328 0.669878 0.382910 0.176648
H7    H     H_    0.329956 0.382083 0.382966 0.176565
H8    H     H_    0.713954 0.082675 0.221192 0.183794
H9    H     H_    0.917717 0.631153 0.220984 0.183592
H10   H     H_    0.368661 0.286315 0.220959 0.183654
H11   H     H_    0.676030 0.060732 0.309879 0.201413
H12   H     H_    0.175156 0.674526 0.733928 0.231714
H13   H     H_    0.939655 0.615127 0.309663 0.201149
H14   H     H_    0.384588 0.324006 0.309690 0.201377
H15   H     H_    0.697257 0.709005 0.137107 0.209446
H16   H     H_    0.290829 0.988401 0.137223 0.209467
H17   H     H_    0.011681 0.302666 0.137244 0.209407
H18   H     H_    0.631997 0.668568 0.381820 0.230139
H19   H     H_    0.331202 0.963475 0.381928 0.230231
H20   H     H_    0.036429 0.367293 0.382025 0.230470
H21   H     H_    0.845668 0.929718 0.773092 0.200282
H22   H     H_    0.070346 0.916791 0.773551 0.199968
H23   H     H_    0.325393 0.500394 0.733965 0.231407
H24   H     H_    0.085856 0.152545 0.772791 0.202521
H25   H     H_    0.591897 0.122525 0.831089 0.389907
H26   H     H_    0.876725 0.467706 0.830267 0.389926
H27   H     H_    0.534066 0.416270 0.832654 0.390006
H28   H     H_    0.615689 0.398034 0.289971 0.372709
H29   H     H_    0.601914 0.217082 0.290253 0.372521
H30   H     H_    0.782583 0.384103 0.290415 0.372559
H31   H     H_    0.898109 0.974593 0.598993 0.379655
H32   H     H_    0.009063 0.833693 0.607299 0.358762
H33   H     H_    0.165166 0.171342 0.607062 0.359847
H34   H     H_    0.532551 0.808284 0.814678 0.160681
H35   H     H_    0.925464 0.063631 0.858812 0.349918
H36   H     H_    0.931024 0.853791 0.860625 0.349478
H37   H     H_    0.152923 0.079656 0.860741 0.351027
H38   H     H_    0.424246 0.629972 0.797695 0.398107
H39   H     H_    0.368825 0.792990 0.798668 0.397286
H40   H     H_    0.205041 0.574779 0.798479 0.396896
H41   H     H_    0.190073 0.723254 0.814572 0.159614
H42   H     H_    0.274764 0.466708 0.814405 0.160438
H43   H     H_    0.735697 0.756583 0.796550 0.264154
H44   H     H_    0.243188 0.978849 0.796633 0.264894
H45   H     H_    0.021364 0.262524 0.796245 0.265621
O1    O     O_R   0.137150 0.468200 0.553200 -0.445248
O2    O     O_R   0.140110 0.470540 0.446010 -0.499877
O3    O     O_R   0.529460 0.669570 0.446010 -0.500842
O4    O     O_R   0.330430 0.859890 0.446010 -0.500545
O5    O     O_R   0.176710 0.690910 0.450560 -0.498371
O6    O     O_R   0.309090 0.485800 0.450560 -0.498314
O7    O     O_R   0.514200 0.823290 0.450560 -0.497203
O8    O     O_3   0.333333 0.666667 0.499990 -0.360871
O9    O     O_R   0.176750 0.985260 0.074180 -0.513933
O10   O     O_R   0.014740 0.191490 0.074180 -0.514173
O11   O     O_R   0.808510 0.823250 0.074180 -0.514056
O12   O     O_R   0.531800 0.668950 0.553200 -0.449719
O13   O     O_R   0.146100 0.172630 0.068980 -0.498018
O14   O     O_R   0.827370 0.973470 0.068980 -0.498149
O15   O     O_R   0.026530 0.853900 0.068980 -0.498112
O16   O     O_3   0.000000 0.000000 0.020040 -0.304513
O17   O     O_R   0.148270 0.170520 0.969620 -0.502533
O18   O     O_R   0.829480 0.977750 0.969620 -0.500024
O19   O     O_R   0.022250 0.851730 0.969620 -0.501687
O20   O     O_2   0.470385 0.924289 0.855075 -0.203974
O21   O     O_2   0.642393 0.999470 0.885705 -0.256067
O22   O     O_3   0.612059 0.083365 0.808557 -0.298291
O23   O     O_R   0.331050 0.862850 0.553200 -0.446672
O24   O     O_2   0.074600 0.546244 0.855414 -0.205811
O25   O     O_2   0.996932 0.642233 0.884657 -0.257820
O26   O     O_3   0.916012 0.526722 0.807628 -0.297388
O27   O     O_2   0.449776 0.530804 0.857054 -0.209961
O28   O     O_2   0.356703 0.356368 0.885427 -0.258390
O29   O     O_3   0.475431 0.394918 0.809576 -0.298291
O30   O     O_2   0.732630 0.579197 0.347872 -0.280882
O31   O     O_2   0.544768 0.497140 0.341316 -0.326183
O32   O     O_3   0.643203 0.463802 0.271557 -0.415876
O33   O     O_2   0.420954 0.153518 0.348018 -0.280559
O34   O     O_R   0.179100 0.982980 0.967000 -0.487175
O35   O     O_2   0.502507 0.047120 0.341540 -0.325988
O36   O     O_3   0.536222 0.178910 0.271784 -0.416221
O37   O     O_2   0.846594 0.266855 0.348106 -0.280166
O38   O     O_2   0.952471 0.454880 0.341714 -0.325922
O39   O     O_3   0.820734 0.356532 0.271937 -0.416486
O40   O     O_2   0.907426 0.901529 0.700833 -0.159996
O41   O     O_2   0.774820 0.809642 0.639928 -0.206509
O42   O     O_3   0.880489 0.003143 0.628033 -0.353273
O43   O     O_2   0.101623 0.008640 0.701942 -0.153008
O44   O     O_2   0.192836 0.968075 0.640671 -0.185450
O45   O     O_R   0.017020 0.196120 0.967000 -0.484590
O46   O     O_3   0.001003 0.883789 0.628080 -0.390298
O47   O     O_2   0.991001 0.095890 0.701757 -0.151016
O48   O     O_2   0.034168 0.226254 0.639613 -0.182649
O49   O     O_3   0.113726 0.114309 0.627882 -0.369598
O50   O     O_2   0.881145 0.152462 0.751014 -0.052033
O51   O     O_2   0.792867 0.108953 0.828472 -0.169282
O52   O     O_3   0.951874 0.090928 0.825372 -0.612426
O53   O     O_2   0.849341 0.735848 0.749295 -0.060457
O54   O     O_2   0.887835 0.680461 0.824939 -0.163729
O55   O     O_3   0.909057 0.859605 0.826830 -0.616581
O56   O     O_R   0.803880 0.820900 0.967000 -0.487392
O57   O     O_2   0.269302 0.116304 0.749188 -0.055829
O58   O     O_2   0.323512 0.211639 0.824451 -0.160626
O59   O     O_3   0.145782 0.051975 0.826812 -0.617659
O60   O     O_2   0.478600 0.607007 0.680111 -0.235367
O61   O     O_2   0.529247 0.555280 0.755847 -0.039435
O62   O     O_3   0.428899 0.657265 0.764180 -0.575378
O63   O     O_2   0.392740 0.870567 0.681028 -0.232073
O64   O     O_2   0.444216 0.973013 0.756927 -0.039501
O65   O     O_3   0.341981 0.770549 0.765043 -0.574205
O66   O     O_2   0.128452 0.521136 0.680754 -0.231776
O67   O     O_R   0.173970 0.688730 0.549930 -0.494661
O68   O     O_2   0.025674 0.470115 0.756383 -0.039776
O69   O     O_3   0.227870 0.570471 0.764924 -0.575660
O70   O     O_R   0.311270 0.485240 0.549930 -0.494959
O71   O     O_R   0.514760 0.826030 0.549930 -0.490121
S1    S     S_3+6 0.580381 0.973059 0.838832 0.154299
S2    S     S_3+6 0.850508 0.079449 0.793459 0.109322
S3    S     S_3+6 0.920281 0.772033 0.792566 0.107265
S4    S     S_3+6 0.232131 0.150790 0.792220 0.111076
S5    S     S_3+6 0.513554 0.637056 0.732676 0.131275
S6    S     S_3+6 0.362541 0.875552 0.733557 0.133550
S7    S     S_3+6 0.123229 0.485876 0.733266 0.133930
S8    S     S_3+6 0.025258 0.606541 0.838352 0.153670
S9    S     S_3+6 0.392538 0.421293 0.839448 0.152278
S10   S     S_3+6 0.644196 0.548672 0.312730 0.039618
S11   S     S_3+6 0.451259 0.095276 0.312909 0.039719
S12   S     S_3+6 0.904528 0.355426 0.313034 0.039681
S13   S     S_3+6 0.828636 0.907229 0.670012 0.198551
S14   S     S_3+6 0.095266 0.924170 0.670635 0.187791
S15   S     S_3+6 0.076189 0.171465 0.670081 0.187166

loop_
_geom_bond_atom_site_label_1
_geom_bond_atom_site_label_2
_ccdc_geom_bond_type
C25   C31   A    
C13   O14   A    
H25   O22   S    
O33   S11   D    
C83   S4    S    
O35   S11   D    
C26   C32   A    
C78   S6    S    
C55   C59   A    
C65   C92   S    
C18   C21   A    
H26   O26   S    
O68   S7    D    
O52   S2    S    
C29   O2    A    
C17   O19   A    
O48   S15   D    
O25   S8    D    
Cr4   O16   S    
C59   F8    S    
C6    C9    T    
C13   C41   S    
C79   C82   S    
H38   O62   S    
C6    C88   S    
C66   C90   S    
C29   C76   S    
C27   C33   A    
Cr6   O11   S    
C13   O11   A    
C40   H4    S    
C91   S1    S    
C19   H6    S    
C60   C63   A    
C17   C85   S    
C34   F5    S    
C32   C36   A    
C29   O6    A    
C47   C76   A    
O66   S7    D    
O37   S12   D    
C15   O17   A    
C93   S9    S    
O55   S3    S    
C30   C74   S    
C26   C39   A    
C64   F10   S    
C21   C51   A    
C4    C86   T    
C16   O18   A    
C39   H3    S    
C56   H45   S    
C16   C84   S    
C8    C23   S    
C64   H1    S    
C20   C76   A    
Cr5   O10   S    
C92   H41   S    
C77   S13   S    
C7    C10   T    
C32   H9    S    
C93   H42   S    
C45   H44   S    
C79   C88   S    
Cr5   O16   S    
Cr5   O45   S    
C28   O5    A    
C59   C62   A    
C71   H15   S    
C4    C96   S    
C2    C84   T    
C43   C73   A    
C40   C43   A    
Cr1   O67   S    
C20   C24   A    
Cr1   O1    S    
C89   F4    S    
Cr4   O17   S    
C80   S15   S    
Cr2   O12   S    
C16   O56   A    
C45   C78   S    
C52   C69   A    
C77   C81   S    
C39   C42   A    
C82   C95   S    
C64   C87   S    
H36   O55   S    
C45   F6    S    
C28   O4    A    
C41   C71   A    
Cr3   O4    S    
C61   C71   A    
C44   H18   S    
O38   S12   D    
C11   O10   A    
C18   C74   A    
O30   S10   D    
C79   F14   S    
Cr4   O9    S    
O31   S10   D    
C89   S7    S    
O26   S8    S    
C25   C68   A    
C80   C83   S    
C53   C70   A    
H32   O46   S    
C42   C72   A    
C46   C75   A    
C67   F2    S    
C12   O70   A    
C47   C50   A    
Cr4   O34   S    
C81   H21   S    
O40   S13   D    
C77   C87   S    
C48   C51   A    
C50   C53   A    
O39   S12   S    
C55   S11   S    
O51   S2    D    
Cr2   O3    S    
C2    C94   S    
C19   C22   A    
C1    C9    S    
C38   C41   A    
C57   S12   S    
O32   S10   S    
C83   H24   S    
O20   S1    D    
C14   O9    A    
C57   C60   A    
C63   C73   A    
O36   S11   S    
C24   C53   A    
C49   C55   A    
C7    C90   S    
H35   O52   S    
O60   S5    D    
C92   C95   S    
C33   C37   A    
Cr1   O8    S    
C37   H14   S    
C62   C69   A    
O59   S4    S    
O69   S7    S    
C79   S14   S    
O49   S15   S    
H29   O36   S    
C48   C54   A    
C30   O7    A    
Cr5   O14   S    
C82   H22   S    
Cr2   O6    S    
C36   H13   S    
C25   C38   A    
C5    C8    T    
C92   S8    S    
C46   C49   A    
C63   C70   A    
H30   O39   S    
C27   C40   A    
C49   C52   A    
O65   S6    S    
C15   O45   A    
C47   H20   S    
Cr4   O13   S    
C81   S2    S    
C24   C37   A    
C62   C72   A    
C11   C43   S    
C58   F1    S    
O47   S15   D    
O22   S1    S    
H28   O32   S    
C27   C70   A    
C10   C12   S    
C18   H5    S    
C15   C86   S    
Cr2   O70   S    
C38   H2    S    
H39   O65   S    
C56   C89   S    
O28   S9    D    
C93   C96   S    
C78   F3    S    
O63   S6    D    
C31   C35   A    
C3    C85   T    
C31   H8    S    
C45   C95   S    
C56   F7    S    
Cr3   O23   S    
O50   S2    D    
H31   O42   S    
C65   C88   S    
C22   C52   A    
C54   C58   A    
C78   C88   S    
C56   C96   S    
Cr6   O16   S    
C80   F15   S    
H40   O69   S    
O64   S6    D    
C66   F12   S    
C66   C93   S    
O29   S9    S    
C65   F11   S    
O53   S3    D    
C34   C94   S    
C30   O3    A    
C44   C74   A    
O43   S14   D    
O61   S5    D    
C34   C67   S    
O24   S8    D    
C65   H12   S    
C33   H10   S    
C21   C35   A    
H27   O29   S    
C1    O23   A    
C22   C36   A    
C67   S5    S    
C11   O13   A    
C14   C42   S    
Cr1   O2    S    
Cr3   O8    S    
C54   S10   S    
O57   S4    D    
H37   O59   S    
C19   C75   A    
O44   S14   D    
C89   C90   S    
O46   S14   S    
C5    C87   S    
Cr5   O18   S    
Cr1   O5    S    
Cr6   O19   S    
H33   O49   S    
C12   O1    A    
C91   H34   S    
C81   C94   S    
C50   C57   A    
C61   C68   A    
C72   H16   S    
O41   S13   D    
C58   C61   A    
Cr3   O71   S    
C83   C96   S    
O54   S3    D    
C51   C68   A    
C80   C90   S    
C35   H11   S    
O58   S4    D    
C23   O12   A    
C20   H7    S    
C14   O15   A    
Cr6   O56   S    
O21   S1    D    
C46   H19   S    
Cr2   O8    S    
C1    O67   A    
Cr3   O7    S    
C66   H23   S    
C73   H17   S    
C23   O71   A    
O27   S9    D    
C60   F9    S    
Cr6   O15   S    
C17   O34   A    
C3    C95   S    
C26   C69   A    
C64   C91   S    
C82   S3    S    
C77   F13   S    
C28   C75   S    
O62   S5    S    
O42   S13   S    
C44   C48   A    
C67   C87   S    
C91   C94   S    
C34   H43   S    
