data_mof_unit_60994.cif
_audit_creation_date              2013-03-05T16:01:14-0500
_audit_creation_method            fapswitch 2.2
_symmetry_space_group_name_H-M    P1
_symmetry_Int_Tables_number       1
_space_group_crystal_system       triclinic
_cell_length_a                    42.298452
_cell_length_b                    29.206088
_cell_length_c                    30.584429
_cell_angle_alpha                 89.998126
_cell_angle_beta                  136.329501
_cell_angle_gamma                 90.001526
_cell_volume                      26089.6502428

loop_
_atom_site_label
_atom_site_type_symbol
_atom_site_description
_atom_site_fract_x
_atom_site_fract_y
_atom_site_fract_z
_atom_type_partial_charge
O1    O     O_R   0.563110 0.535630 0.563620 -0.595877
O2    O     O_R   0.563110 0.464370 0.563620 -0.595643
O3    O     O_R   0.063110 0.035630 0.563620 -0.595918
O4    O     O_R   0.063110 0.964370 0.563620 -0.595604
C1    C     C_R   0.586686 0.500000 0.587102 0.907114
C2    C     C_R   0.086686 0.000000 0.587102 0.907122
O5    O     O_R   0.499970 0.535640 0.438200 -0.611236
O6    O     O_R   0.499970 0.464360 0.438200 -0.611189
O7    O     O_R   0.999970 0.035640 0.438200 -0.611271
O8    O     O_R   0.999970 0.964360 0.438200 -0.611170
C3    C     C_R   0.499840 0.500001 0.417501 0.949049
C4    C     C_R   0.999840 0.000001 0.417501 0.949063
Zn1   Zn    Zn3+2 0.499970 0.547590 0.500630 0.981448
Zn2   Zn    Zn3+2 0.499970 0.452410 0.500630 0.981512
Zn3   Zn    Zn3+2 0.999970 0.047590 0.500630 0.981371
Zn4   Zn    Zn3+2 0.999970 0.952410 0.500630 0.981533
O9    O     O_R   0.436830 0.535630 0.437320 -0.595658
O10   O     O_R   0.436830 0.464370 0.437320 -0.595886
O11   O     O_R   0.936830 0.035630 0.437320 -0.595635
O12   O     O_R   0.936830 0.964370 0.437320 -0.595916
O13   O     O_R   0.499970 0.535630 0.562740 -0.591262
O14   O     O_R   0.499970 0.464370 0.562740 -0.591261
O15   O     O_R   0.999970 0.035630 0.562740 -0.591269
O16   O     O_R   0.999970 0.964370 0.562740 -0.591258
C5    C     C_R   0.413255 0.500000 0.413652 0.906710
C6    C     C_R   0.913256 1.000000 0.413652 0.906719
C7    C     C_R   0.499969 0.499999 0.586141 0.890882
C8    C     C_R   0.999969 0.999999 0.586141 0.890886
C9    C     C_3   0.523620 0.544755 0.295912 -0.452223
C10   C     C_3   0.528287 0.458012 0.300568 -0.452452
C11   C     C_3   0.021475 0.045801 0.293770 -0.452118
C12   C     C_3   0.030237 0.959374 0.302518 -0.452572
C13   C     C_3   0.529135 0.458306 0.250932 0.140517
C14   C     C_3   0.524485 0.544582 0.246293 0.140290
C15   C     C_3   0.031049 0.959693 0.252845 0.140598
C16   C     C_3   0.022377 0.045657 0.244189 0.140195
H1    H     H_    0.561087 0.543437 0.272519 0.099916
H2    H     H_    0.565404 0.463390 0.276832 0.100043
H3    H     H_    0.059000 0.046209 0.270456 0.099859
H4    H     H_    0.067039 0.966451 0.278449 0.100073
H5    H     H_    0.559301 0.547325 0.344237 0.157256
H6    H     H_    0.564035 0.459276 0.348966 0.157133
H7    H     H_    0.056987 0.050067 0.341943 0.157366
H8    H     H_    0.065891 0.962340 0.350806 0.157042
H9    H     H_    0.512693 0.425938 0.297807 0.225730
H10   H     H_    0.504682 0.574967 0.289822 0.225673
H11   H     H_    0.016191 0.926599 0.301320 0.225746
H12   H     H_    0.001113 0.075080 0.286238 0.225622
C17   C     C_1   0.500103 0.500012 0.120765 -0.122902
C18   C     C_1   0.000103 0.000008 0.120765 -0.122900
C19   C     C_3   0.501023 0.500038 0.289830 0.234623
C20   C     C_3   0.001016 0.000065 0.289824 0.234631
C21   C     C_3   0.500640 0.500037 0.205518 0.082115
C22   C     C_3   0.000637 0.000049 0.205516 0.082128
C23   C     C_3   0.450747 0.497343 0.172742 -0.339329
C24   C     C_3   0.950924 0.995024 0.172917 -0.339347
C25   C     C_3   0.451085 0.497354 0.223230 -0.377430
C26   C     C_3   0.951262 0.995027 0.223405 -0.377404
C27   C     C_1   0.500315 0.500027 0.159118 -0.021666
C28   C     C_1   0.000315 0.000029 0.159118 -0.021680
C29   C     C_1   0.500783 0.500020 0.335597 -0.064359
C30   C     C_1   0.000777 0.000035 0.335591 -0.064365
C31   C     C_1   0.500360 0.500006 0.373323 -0.192421
C32   C     C_1   0.000357 0.000011 0.373319 -0.192428
H13   H     H_    0.430956 0.527089 0.215354 0.194592
H14   H     H_    0.434262 0.465627 0.218655 0.194729
H15   H     H_    0.929745 0.023769 0.214154 0.194401
H16   H     H_    0.935961 0.962532 0.220339 0.194917
H17   H     H_    0.429889 0.526394 0.139622 0.218872
H18   H     H_    0.433134 0.466221 0.142862 0.218710
H19   H     H_    0.928734 0.023076 0.138476 0.218942
H20   H     H_    0.934782 0.963119 0.144494 0.218630
C33   C     C_1   0.637268 0.500000 0.637583 -0.216072
C34   C     C_1   0.137268 0.000000 0.637582 -0.216069
C35   C     C_1   0.679406 0.500000 0.679643 0.009776
C36   C     C_1   0.179406 0.000000 0.679643 0.009785
C37   C     C_1   0.729140 0.500000 0.729296 0.012658
C38   C     C_1   0.229140 0.000000 0.729295 0.012670
C39   C     C_1   0.771276 0.500000 0.771372 0.012471
C40   C     C_1   0.271276 0.000000 0.771372 0.012483
C41   C     C_1   0.821010 0.500000 0.821048 0.010401
C42   C     C_1   0.321010 0.000000 0.821048 0.010415
C43   C     C_1   0.863148 0.500000 0.863154 -0.207592
C44   C     C_1   0.363148 0.000000 0.863154 -0.207574
C45   C     C_1   0.499972 0.499998 0.636027 -0.216186
C46   C     C_1   0.999972 0.999998 0.636027 -0.216191
C47   C     C_1   0.499976 0.499998 0.677207 0.020657
C48   C     C_1   0.999977 0.999998 0.677207 0.020655
C49   C     C_1   0.499986 0.499998 0.726220 0.008482
C50   C     C_1   0.999986 0.999998 0.726220 0.008482
C51   C     C_1   0.499994 0.499999 0.767405 0.008335
C52   C     C_1   0.999994 0.999999 0.767405 0.008337
C53   C     C_1   0.500004 0.499999 0.816417 0.019791
C54   C     C_1   0.000003 0.999999 0.816417 0.019796
C55   C     C_1   0.500010 0.499999 0.857599 -0.214133
C56   C     C_1   0.000010 0.999999 0.857599 -0.214123
C57   C     C_1   0.362677 0.500000 0.362993 -0.215274
C58   C     C_1   0.862677 1.000000 0.362993 -0.215271
C59   C     C_1   0.320541 0.500000 0.320798 0.010368
C60   C     C_1   0.820541 1.000000 0.320798 0.010379
C61   C     C_1   0.270810 0.500000 0.271005 0.013247
C62   C     C_1   0.770810 1.000000 0.271005 0.013260
C63   C     C_1   0.228676 0.500000 0.228824 0.012979
C64   C     C_1   0.728676 1.000000 0.228824 0.012994
C65   C     C_1   0.178945 0.500000 0.179044 0.010780
C66   C     C_1   0.678945 1.000000 0.179044 0.010796
C67   C     C_1   0.136809 0.500000 0.136874 -0.207303
C68   C     C_1   0.636809 1.000000 0.136874 -0.207282
O17   O     O_R   0.535670 0.563060 0.029670 -0.594915
O18   O     O_R   0.535670 0.436940 0.029670 -0.593910
O19   O     O_R   0.035670 0.063060 0.029670 -0.595305
O20   O     O_R   0.035670 0.936940 0.029670 -0.593524
O21   O     O_R   0.464380 0.563080 0.958370 -0.595712
O22   O     O_R   0.464380 0.436920 0.958370 -0.596599
O23   O     O_R   0.964380 0.063080 0.958370 -0.595347
O24   O     O_R   0.964380 0.936920 0.958370 -0.596919
C69   C     C_R   0.500031 0.586641 0.994582 0.912865
C70   C     C_R   0.500031 0.413359 0.994582 0.912670
C71   C     C_R   0.000031 0.086641 0.994583 0.912894
C72   C     C_R   0.000031 0.913359 0.994582 0.912509
O25   O     O_R   0.535670 0.500000 0.091080 -0.606036
O26   O     O_R   0.035670 0.000000 0.091080 -0.605966
O27   O     O_R   0.464370 0.500000 0.019780 -0.610205
O28   O     O_R   0.964370 0.000000 0.019780 -0.610127
C73   C     C_R   0.500032 0.499994 0.076007 0.960902
C74   C     C_R   0.000032 0.999987 0.076007 0.960778
Zn5   Zn    Zn3+2 0.547630 0.500000 0.040770 0.995322
Zn6   Zn    Zn3+2 0.047630 0.000000 0.040770 0.995421
Zn7   Zn    Zn3+2 0.452420 0.500000 0.945550 0.990866
Zn8   Zn    Zn3+2 0.952420 0.000000 0.945550 0.990973
O29   O     O_R   0.535670 0.500000 0.966540 -0.594404
O30   O     O_R   0.035670 0.000000 0.966540 -0.594399
O31   O     O_R   0.464380 0.500000 0.895240 -0.594351
O32   O     O_R   0.964380 0.000000 0.895240 -0.594349
C75   C     C_R   0.500020 0.500000 0.907493 0.885999
C76   C     C_R   0.000020 0.000000 0.907493 0.885992
O33   O     O_R   0.000010 0.436840 0.964010 -0.593283
O34   O     O_R   0.000010 0.563160 0.964010 -0.593266
O35   O     O_R   0.500010 0.936840 0.964010 -0.593280
O36   O     O_R   0.500010 0.063160 0.964010 -0.593271
O37   O     O_R   1.000000 0.436830 0.034310 -0.591037
O38   O     O_R   0.000000 0.563170 0.034310 -0.591057
O39   O     O_R   0.500000 0.936830 0.034310 -0.591029
O40   O     O_R   0.500000 0.063170 0.034310 -0.591040
C77   C     C_R   0.000015 0.413720 0.999134 0.896299
C78   C     C_R   0.000015 0.586280 0.999133 0.896303
C79   C     C_R   0.500015 0.913720 0.999134 0.896293
C80   C     C_R   0.500015 0.086280 0.999133 0.896295
O41   O     O_R   0.936840 0.500000 0.901700 -0.592922
O42   O     O_R   0.436840 0.000000 0.901700 -0.592919
O43   O     O_R   0.936840 0.500000 0.972000 -0.592030
O44   O     O_R   0.436840 0.000000 0.972000 -0.592025
C81   C     C_R   0.913730 0.500000 0.913735 0.896459
C82   C     C_R   0.413730 0.000000 0.913735 0.896452
Zn9   Zn    Zn3+2 0.999990 0.500000 0.953050 0.979889
Zn10  Zn    Zn3+2 0.499990 0.000000 0.953050 0.979926
Zn11  Zn    Zn3+2 0.999980 0.500000 0.046950 0.984906
Zn12  Zn    Zn3+2 0.499980 0.000000 0.046950 0.984967
O45   O     O_R   0.063130 0.500000 0.028000 -0.592655
O46   O     O_R   0.563130 0.000000 0.028000 -0.592650
O47   O     O_R   0.063120 0.500000 0.098300 -0.592025
O48   O     O_R   0.563120 0.000000 0.098300 -0.592019
C83   C     C_R   0.086231 0.500000 0.086267 0.896604
C84   C     C_R   0.586231 0.000000 0.086267 0.896599
C85   C     C_1   0.500042 0.637227 0.995431 -0.199970
C86   C     C_1   0.500042 0.362773 0.995428 -0.200272
C87   C     C_1   0.000042 0.137227 0.995431 -0.199902
C88   C     C_1   0.000042 0.862773 0.995428 -0.200461
C89   C     C_1   0.500044 0.679365 0.996179 0.022120
C90   C     C_1   0.500044 0.320635 0.996175 0.021829
C91   C     C_1   0.000044 0.179365 0.996179 0.022174
C92   C     C_1   0.000044 0.820635 0.996175 0.021642
C93   C     C_1   0.500042 0.729103 0.997060 0.021156
C94   C     C_1   0.500042 0.270897 0.997056 0.021005
C95   C     C_1   0.000042 0.229103 0.997061 0.021166
C96   C     C_1   0.000042 0.770897 0.997055 0.020895
C97   C     C_1   0.000037 0.271241 0.997766 0.017806
C98   C     C_1   0.000038 0.728758 0.997761 0.017701
C99   C     C_1   0.500038 0.771241 0.997766 0.017819
C100  C     C_1   0.500038 0.228758 0.997761 0.017759
C101  C     C_1   0.000031 0.320982 0.998498 0.013380
C102  C     C_1   0.000031 0.679017 0.998494 0.013343
C103  C     C_1   0.500031 0.820982 0.998498 0.013399
C104  C     C_1   0.500031 0.179017 0.998494 0.013376
C105  C     C_1   0.000024 0.363125 0.998950 -0.206166
C106  C     C_1   0.000025 0.636875 0.998947 -0.206178
C107  C     C_1   0.500024 0.863125 0.998950 -0.206144
C108  C     C_1   0.500024 0.136875 0.998947 -0.206152
N1    N     N_R   0.513608 0.414312 0.217263 0.229504
O49   O     O_R   0.539663 0.392344 0.215932 -0.378383
O50   O     O_R   0.475648 0.395307 0.192240 -0.396072
N2    N     N_R   0.504309 0.586659 0.207995 0.229668
O51   O     O_R   0.527841 0.611318 0.204144 -0.379050
O52   O     O_R   0.464532 0.601467 0.181177 -0.395734
N3    N     N_R   0.017571 0.915021 0.221241 0.229460
O53   O     O_R   0.044594 0.894287 0.220857 -0.378058
O54   O     O_R   0.980554 0.894266 0.197201 -0.396191
N4    N     N_R   0.000285 0.086751 0.203955 0.229738
O55   O     O_R   0.022683 0.112492 0.199008 -0.379253
O56   O     O_R   0.959840 0.099681 0.176417 -0.395602

loop_
_geom_bond_atom_site_label_1
_geom_bond_atom_site_label_2
_geom_bond_distance
_ccdc_geom_bond_type
O34   Zn9   1.874766 S    
C10   C19   1.548065 S    
O26   C74   1.216356 A    
C71   C87   1.477654 S    
C14   H1    1.115806 S    
O38   C78   1.270435 A    
C10   H9    1.113150 S    
C19   C29   1.407112 S    
C11   C20   1.548099 S    
O40   C80   1.270435 A    
O3    C2    1.247818 A    
O36   C80   1.268711 A    
C64   C66   1.452522 S    
C21   C27   1.409224 S    
O17   C69   1.248250 A    
C56   C76   1.525686 S    
C22   C28   1.409224 S    
O5    C3    1.216230 A    
C92   C96   1.452905 S    
C68   C84   1.477263 S    
O35   C79   1.268707 A    
C11   H7    1.113987 S    
O1    C1    1.247818 A    
O46   C84   1.269446 A    
C13   N1    1.471170 S    
Zn4   O12   1.876959 S    
C36   C38   1.452615 S    
O25   Zn5   1.936393 S    
O28   C74   1.216565 A    
C3    C31   1.367190 S    
C90   C94   1.452905 S    
C4    C32   1.367189 S    
C38   C40   1.230696 T    
O27   C73   1.216562 A    
C93   C99   1.230887 T    
O33   Zn9   1.874748 S    
O19   C71   1.248250 A    
C102  C106  1.230909 T    
N1    O50   1.301636 A    
O11   C6    1.247789 A    
O41   C81   1.269442 A    
C12   C20   1.548092 S    
C42   C44   1.230744 T    
C30   C32   1.166798 T    
O47   C83   1.269448 A    
C44   C82   1.477368 S    
O17   Zn5   1.874760 S    
C69   C85   1.477654 S    
C24   H20   1.109738 S    
N4    O55   1.301131 A    
C18   C74   1.366758 S    
C49   C51   1.259372 T    
C25   H14   1.113774 S    
C99   C103  1.452914 S    
C15   N3    1.471186 S    
O18   Zn5   1.874758 S    
Zn3   O15   1.931434 S    
C66   C68   1.230682 T    
C45   C47   1.259332 T    
O13   C7    1.262977 A    
C53   C55   1.259326 T    
O42   Zn10  1.879564 S    
O27   Zn7   1.936382 S    
C15   C22   1.563819 S    
C85   C89   1.230898 T    
C33   C35   1.230743 T    
O18   C70   1.248247 A    
Zn8   O32   1.936393 S    
O10   C5    1.247791 A    
C1    C33   1.477373 S    
C29   C31   1.166799 T    
O43   C81   1.269304 A    
O2    Zn2   1.876961 S    
Zn6   O30   1.936134 S    
C60   C62   1.452516 S    
C57   C59   1.230682 T    
C7    C45   1.525671 S    
O34   C78   1.268711 A    
C2    C34   1.477373 S    
O48   C84   1.269448 A    
C21   C23   1.550606 S    
C13   C21   1.563818 S    
C20   C26   1.546827 S    
C22   C24   1.550620 S    
C46   C48   1.259332 T    
Zn9   O45   1.879069 S    
O43   Zn11  1.879072 S    
C12   C15   1.544289 S    
Zn10  O46   1.879069 S    
C40   C42   1.452623 S    
C25   H13   1.113770 S    
O20   C72   1.248246 A    
C101  C105  1.230913 T    
C87   C91   1.230898 T    
C79   C107  1.477674 S    
C91   C95   1.452905 S    
C9    C14   1.544264 S    
C70   C86   1.477651 S    
O24   C72   1.248218 A    
C77   C105  1.477674 S    
N2    O52   1.301640 A    
O4    Zn4   1.876961 S    
Zn3   O11   1.876956 S    
O25   C73   1.216358 A    
C5    C57   1.477270 S    
C103  C107  1.230913 T    
C51   C53   1.498716 S    
C65   C67   1.230682 T    
C50   C52   1.259372 T    
C88   C92   1.230896 T    
O30   C76   1.263210 A    
C24   H19   1.109722 S    
C55   C75   1.525686 S    
C12   H8    1.113985 S    
C37   C39   1.230696 T    
Zn1   O13   1.931434 S    
C63   C65   1.452522 S    
C98   C102  1.452915 S    
O15   C8    1.262977 A    
C54   C56   1.259326 T    
C35   C37   1.452615 S    
O22   C70   1.248218 A    
O8    C4    1.216260 A    
C6    C58   1.477270 S    
O44   Zn12  1.879072 S    
C19   C25   1.546819 S    
O37   Zn11  1.885157 S    
O4    C2    1.247815 A    
C59   C61   1.452516 S    
O44   C82   1.269304 A    
C86   C90   1.230899 T    
C95   C97   1.230884 T    
O23   C71   1.248216 A    
O14   C7    1.262985 A    
C23   C25   1.533834 S    
C8    C46   1.525671 S    
Zn2   O14   1.931456 S    
C12   H11   1.113157 S    
O21   C69   1.248216 A    
O2    C1    1.247815 A    
O1    Zn1   1.876964 S    
C34   C36   1.230743 T    
O38   Zn11  1.885130 S    
O40   Zn12  1.885130 S    
Zn11  O47   1.879218 S    
O39   C79   1.270439 A    
O3    Zn3   1.876964 S    
C72   C88   1.477654 S    
O39   Zn12  1.885157 S    
C39   C41   1.452623 S    
C9    C19   1.548101 S    
O33   C77   1.268707 A    
O41   Zn9   1.879564 S    
O6    Zn2   1.941014 S    
Zn7   O31   1.936393 S    
C10   C13   1.544265 S    
C9    H5    1.113972 S    
Zn2   O10   1.876959 S    
C78   C106  1.477671 S    
C16   H3    1.115813 S    
O16   C8    1.262985 A    
C48   C50   1.498732 S    
C41   C43   1.230744 T    
O32   C76   1.263231 A    
C43   C81   1.477368 S    
O37   C77   1.270439 A    
C80   C108  1.477671 S    
C17   C73   1.366758 S    
C94   C100  1.230883 T    
O29   C75   1.263210 A    
C13   H2    1.115807 S    
C17   C27   1.166526 T    
C61   C63   1.230635 T    
Zn1   O9    1.876956 S    
C9    H10   1.113154 S    
C11   H12   1.113176 S    
C18   C28   1.166523 T    
N2    O51   1.301097 A    
C23   H17   1.109720 S    
C14   N2    1.471173 S    
C15   H4    1.115813 S    
O7    Zn3   1.941036 S    
O9    C5    1.247789 A    
O8    Zn4   1.941014 S    
O28   Zn8   1.936382 S    
C26   H16   1.113781 S    
C52   C54   1.498716 S    
O12   C6    1.247791 A    
O35   Zn10  1.874748 S    
C62   C64   1.230635 T    
O6    C3    1.216247 A    
C97   C101  1.452917 S    
C96   C98   1.230883 T    
O22   Zn7   1.875332 S    
C24   C26   1.533843 S    
O45   C83   1.269446 A    
O36   Zn10  1.874766 S    
O26   Zn6   1.936393 S    
N1    O49   1.301092 A    
C16   N4    1.471171 S    
C58   C60   1.230682 T    
Zn5   O29   1.936134 S    
O20   Zn6   1.874758 S    
C23   H18   1.109723 S    
C16   C22   1.563806 S    
O7    C4    1.216218 A    
Zn12  O48   1.879218 S    
N3    O53   1.301081 A    
C104  C108  1.230912 T    
C26   H15   1.113787 S    
O5    Zn1   1.941036 S    
O24   Zn8   1.875332 S    
C14   C21   1.563795 S    
Zn4   O16   1.931456 S    
O42   C82   1.269442 A    
O19   Zn6   1.874760 S    
O31   C75   1.263231 A    
C47   C49   1.498732 S    
C89   C93   1.452905 S    
C11   C16   1.544243 S    
C10   H6    1.113969 S    
C20   C30   1.407112 S    
N4    O56   1.301667 A    
C67   C83   1.477263 S    
O21   Zn7   1.875328 S    
C100  C104  1.452912 S    
N3    O54   1.301637 A    
O23   Zn8   1.875328 S    
