data_mof_unit_27882.cif
_audit_creation_date              2012-12-11T16:47:49-0500
_audit_creation_method            fapswitch 2.2
_symmetry_space_group_name_H-M    P1
_symmetry_Int_Tables_number       1
_space_group_crystal_system       triclinic
_cell_length_a                    26.159866
_cell_length_b                    7.163857
_cell_length_c                    23.945397
_cell_angle_alpha                 89.999627
_cell_angle_beta                  101.669916
_cell_angle_gamma                 90.00008
_cell_volume                      4394.73960456

loop_
_atom_site_label
_atom_site_type_symbol
_atom_type_description
_atom_site_fract_x
_atom_site_fract_y
_atom_site_fract_z
_atom_type_partial_charge
O1    O     O_R   0.797620 0.601060 0.203310 -0.542493
O2    O     O_R   0.202380 0.398940 0.796690 -0.542500
O3    O     O_R   0.702380 0.101060 0.296690 -0.542501
O4    O     O_R   0.297620 0.898940 0.703310 -0.542501
O5    O     O_R   0.692070 0.267810 0.186600 -0.517969
O6    O     O_R   0.307930 0.732190 0.813400 -0.517936
O7    O     O_R   0.807930 0.767810 0.313400 -0.517970
O8    O     O_R   0.192070 0.232190 0.686600 -0.517992
C1    C     C_R   0.673801 0.439839 0.171386 0.713044
C2    C     C_R   0.326198 0.560161 0.828614 0.713105
C3    C     C_R   0.826198 0.939839 0.328614 0.713032
C4    C     C_R   0.173802 0.060161 0.671386 0.712971
O9    O     O_R   0.796590 0.271120 0.196480 -0.529374
O10   O     O_R   0.203410 0.728880 0.803520 -0.529336
O11   O     O_R   0.703410 0.771120 0.303520 -0.529372
O12   O     O_R   0.296590 0.228880 0.696480 -0.529390
O13   O     O_R   0.807640 0.104280 0.306650 -0.539782
O14   O     O_R   0.192360 0.895720 0.693350 -0.539780
O15   O     O_R   0.692360 0.604280 0.193350 -0.539784
O16   O     O_R   0.307640 0.395720 0.806650 -0.539790
C5    C     C_R   0.811218 0.440007 0.183087 0.707653
C6    C     C_R   0.188787 0.559991 0.816918 0.707758
C7    C     C_R   0.688783 0.940007 0.316915 0.707643
C8    C     C_R   0.311220 0.059995 0.683088 0.707554
O17   O     O_3   0.753500 0.435660 0.286130 -0.368354
O18   O     O_3   0.246500 0.564340 0.713870 -0.368370
O19   O     O_3   0.746500 0.935660 0.213870 -0.368357
O20   O     O_3   0.253500 0.064340 0.786130 -0.368335
V1    V     V_3+5 0.749350 0.159470 0.243300 1.500598
V2    V     V_3+5 0.250650 0.840530 0.756700 1.500622
V3    V     V_3+5 0.750650 0.659470 0.256700 1.500604
V4    V     V_3+5 0.249350 0.340530 0.743300 1.500598
C9    C     C_R   0.383807 0.901336 0.648413 -0.138474
C10   C     C_R   0.616188 0.098636 0.351578 -0.138544
C11   C     C_R   0.116167 0.401448 0.851553 -0.138643
C12   C     C_R   0.883834 0.598583 0.148446 -0.138538
H1    H     H_    0.383861 0.794408 0.680413 0.133014
H2    H     H_    0.616120 0.205515 0.319559 0.132903
H3    H     H_    0.116070 0.294657 0.819502 0.132755
H4    H     H_    0.883911 0.705432 0.180475 0.132876
C13   C     C_R   0.420770 0.889314 0.613796 -0.101346
C14   C     C_R   0.579229 0.110680 0.386199 -0.101415
C15   C     C_R   0.079210 0.389399 0.886176 -0.101516
C16   C     C_R   0.920798 0.610606 0.113830 -0.101448
H5    H     H_    0.447270 0.771575 0.619166 0.118051
H6    H     H_    0.552719 0.228391 0.380813 0.117995
H7    H     H_    0.052672 0.271767 0.880759 0.117925
H8    H     H_    0.947324 0.728271 0.119231 0.117988
C17   C     C_R   0.423229 0.025972 0.572445 0.062706
C18   C     C_R   0.576787 0.974081 0.427571 0.062744
C19   C     C_R   0.076803 0.525895 0.927588 0.062795
C20   C     C_R   0.923227 0.474042 0.072444 0.062747
C21   C     C_R   0.387391 0.174341 0.566188 -0.183303
C22   C     C_R   0.612641 0.825757 0.433848 -0.183289
C23   C     C_R   0.112694 0.674109 0.933906 -0.183256
C24   C     C_R   0.887355 0.325773 0.066148 -0.183267
H9    H     H_    0.388742 0.280412 0.534254 0.141403
H10   H     H_    0.611303 0.719739 0.465801 0.141506
H11   H     H_    0.111383 0.780036 0.965892 0.141623
H12   H     H_    0.888683 0.219785 0.034184 0.141506
C25   C     C_R   0.349139 0.186446 0.599814 -0.020995
C26   C     C_R   0.650892 0.813634 0.400220 -0.021086
C27   C     C_R   0.150944 0.686240 0.900275 -0.021178
C28   C     C_R   0.849101 0.313665 0.099773 -0.021078
C29   C     C_R   0.347833 0.049753 0.642715 -0.123921
C30   C     C_R   0.652176 0.950259 0.357293 -0.123812
C31   C     C_R   0.152187 0.549730 0.857303 -0.123672
C32   C     C_R   0.847829 0.450256 0.142712 -0.123791
C33   C     C_R   0.449165 0.058512 0.477039 -0.136516
C34   C     C_R   0.550851 0.941561 0.522980 -0.136504
C35   C     C_R   0.050872 0.558252 0.023006 -0.136493
C36   C     C_R   0.949159 0.441666 0.977031 -0.136507
H13   H     H_    0.409780 0.101120 0.458035 0.119175
H14   H     H_    0.590236 0.898960 0.541986 0.119172
H15   H     H_    0.090267 0.600708 0.042024 0.119173
H16   H     H_    0.909764 0.399203 0.958014 0.119178
C37   C     C_R   0.486089 0.046203 0.442223 -0.147201
C38   C     C_R   0.513926 0.953862 0.557796 -0.147201
C39   C     C_R   0.013943 0.545963 0.057816 -0.147184
C40   C     C_R   0.986087 0.453965 0.942219 -0.147182
H17   H     H_    0.474166 0.079848 0.397393 0.114589
H18   H     H_    0.525848 0.920210 0.602626 0.114599
H19   H     H_    0.025871 0.579480 0.102655 0.114603
H20   H     H_    0.974157 0.420456 0.897380 0.114591
C41   C     C_R   0.537429 0.987427 0.464700 0.089405
C42   C     C_R   0.462587 0.012638 0.535318 0.089400
C43   C     C_R   0.962590 0.487369 0.035322 0.089392
C44   C     C_R   0.037442 0.512557 0.964713 0.089396
C45   C     C_3   0.957872 0.968178 0.523115 -0.172237
C46   C     C_3   0.042127 0.031822 0.476885 -0.172230
C47   C     C_3   0.542127 0.468176 0.976885 -0.172230
C48   C     C_3   0.457873 0.531823 0.023115 -0.172239
C49   C     C_3   0.993243 0.142908 0.532990 0.036556
C50   C     C_3   0.006757 0.857092 0.467010 0.036554
C51   C     C_3   0.506757 0.642906 0.967009 0.036558
C52   C     C_3   0.493242 0.357093 0.032991 0.036561
H21   H     H_    0.923252 0.942855 0.542298 0.155197
H22   H     H_    0.076747 0.057145 0.457702 0.155203
H23   H     H_    0.576747 0.442851 0.957702 0.155201
H24   H     H_    0.423253 0.557148 0.042299 0.155191
H25   H     H_    0.985949 0.286683 0.442665 0.159307
H26   H     H_    0.014050 0.713317 0.557335 0.159307
H27   H     H_    0.514051 0.786684 0.057334 0.159306
H28   H     H_    0.485949 0.213316 0.942667 0.159306
C53   C     C_1   0.128077 0.049708 0.625426 -0.123953
C54   C     C_1   0.871923 0.950292 0.374573 -0.123943
C55   C     C_1   0.371923 0.549707 0.874574 -0.123927
C56   C     C_1   0.628077 0.450293 0.125427 -0.123935
C57   C     C_3   0.007542 0.843015 0.531589 -0.183121
C58   C     C_3   0.992457 0.156985 0.468411 -0.183121
C59   C     C_3   0.492457 0.343014 0.968412 -0.183127
C60   C     C_3   0.507543 0.656986 0.031589 -0.183127
C61   C     C_3   0.042269 0.019367 0.541354 0.077532
C62   C     C_3   0.957731 0.980633 0.458646 0.077532
C63   C     C_3   0.457731 0.519367 0.958646 0.077534
C64   C     C_3   0.542269 0.480633 0.041354 0.077533
C65   C     C_1   0.089561 0.037343 0.587402 0.046578
C66   C     C_1   0.910439 0.962657 0.412598 0.046572
C67   C     C_1   0.410439 0.537342 0.912598 0.046561
C68   C     C_1   0.589561 0.462657 0.087402 0.046572
C69   C     C_2   0.310186 0.338823 0.586502 0.762050
O21   O     O_2   0.264061 0.308565 0.585886 -0.551234
O22   O     O_R   0.326089 0.515886 0.572236 -0.668740
H29   H     H_    0.296142 0.608212 0.563779 0.303281
C70   C     C_2   0.689874 0.661346 0.413570 0.762015
O23   O     O_2   0.735979 0.691598 0.414086 -0.551253
O24   O     O_R   0.674026 0.484409 0.428015 -0.668709
H30   H     H_    0.703990 0.392155 0.436500 0.303309
C71   C     C_2   0.189964 0.838404 0.913667 0.761950
O25   O     O_2   0.236044 0.808155 0.914045 -0.551281
O26   O     O_R   0.174186 0.015202 0.928312 -0.668651
H31   H     H_    0.204170 0.107372 0.936802 0.303336
C72   C     C_2   0.810109 0.161418 0.086416 0.762007
O27   O     O_2   0.764005 0.191709 0.085902 -0.551265
O28   O     O_R   0.825948 0.984466 0.071973 -0.668686
H32   H     H_    0.795979 0.892234 0.063491 0.303308
C73   C     C_2   0.984135 0.305405 0.569102 0.745646
O29   O     O_2   0.943325 0.393031 0.556808 -0.554228
O30   O     O_R   0.022117 0.355962 0.616524 -0.670093
H33   H     H_    0.011276 0.467313 0.637541 0.287656
C74   C     C_2   0.015864 0.694595 0.430898 0.745653
O31   O     O_2   0.056675 0.606969 0.443192 -0.554220
O32   O     O_R   0.977883 0.644038 0.383476 -0.670092
H34   H     H_    0.988724 0.532687 0.362459 0.287660
C75   C     C_2   0.515864 0.805403 0.930897 0.745650
O33   O     O_2   0.556676 0.893023 0.943188 -0.554226
O34   O     O_R   0.477881 0.855967 0.883477 -0.670090
H35   H     H_    0.488722 0.967317 0.862459 0.287664
C76   C     C_2   0.484135 0.194597 0.069104 0.745640
O35   O     O_2   0.443324 0.106977 0.056812 -0.554237
O36   O     O_R   0.522118 0.144032 0.116523 -0.670092
H36   H     H_    0.511278 0.032682 0.137541 0.287661

loop_
_geom_bond_atom_site_label_1
_geom_bond_atom_site_label_2
_ccdc_geom_bond_type
O17   V3    S    
C39   H19   S    
O1    C5    A    
C23   H11   S    
C34   C38   A    
O13   V1    S    
C56   C68   T    
C33   C37   A    
O34   H35   S    
C51   C75   S    
O1    V3    S    
C36   H16   S    
O15   V3    S    
C10   C30   A    
C35   C39   A    
C75   O33   D    
C50   C62   S    
C9    C29   A    
O22   H29   S    
C1    C56   S    
O7    C3    A    
C73   O30   S    
C18   C22   A    
C28   C32   A    
C7    C30   S    
O9    V1    S    
C51   C60   S    
C76   O36   S    
O16   V4    S    
C4    C53   S    
O4    C8    A    
O19   V1    S    
O32   H34   S    
C45   C57   S    
C48   C52   S    
C47   C64   S    
O2    V4    S    
C14   H6    S    
C46   C61   S    
C47   C59   S    
O3    V1    S    
C34   H14   S    
C12   H4    S    
C18   C41   S    
C28   C72   S    
C21   C25   A    
C1    O15   A    
C51   C63   S    
C10   C14   A    
C23   C27   A    
O2    C6    A    
O36   H36   S    
C24   C28   A    
C33   H13   S    
O14   V2    S    
C11   C31   A    
C11   C15   A    
C58   C62   S    
C57   C61   S    
C49   C58   S    
C38   C42   A    
O11   C7    A    
C37   C41   A    
O12   C8    A    
C54   C66   T    
C53   C65   T    
C2    C55   S    
O10   V2    S    
C39   C43   A    
C75   O34   S    
C46   C50   S    
O5    V1    S    
C52   C59   S    
C27   C31   A    
O7    V3    S    
C26   C30   A    
C40   H20   S    
O8    V4    S    
O28   H32   S    
C2    O16   A    
C21   H9    S    
O18   V4    S    
C48   C60   S    
C22   C26   A    
O3    C7    A    
C9    H1    S    
C64   C68   S    
C45   H21   S    
H27   C60   S    
C11   H3    S    
O5    C1    A    
C25   C29   A    
C26   C70   S    
C38   H18   S    
C37   H17   S    
O8    C4    A    
C3    C54   S    
O9    C5    A    
C49   C61   S    
C69   O21   D    
C62   C66   S    
C8    C29   S    
C14   C18   A    
C61   C65   S    
O6    V2    S    
C63   C67   S    
C5    C32   S    
C72   O27   D    
C12   C16   A    
C46   C58   S    
O26   H31   S    
C60   C64   S    
C36   C43   A    
C48   H24   S    
C72   O28   S    
C71   O25   D    
C22   H10   S    
C45   C62   S    
C3    O13   A    
C10   H2    S    
C50   C74   S    
C17   C42   S    
C20   C43   S    
C25   C69   S    
C19   C44   S    
O6    C2    A    
H28   C59   S    
O30   H33   S    
C12   C32   A    
O11   V3    S    
C16   C20   A    
O12   V4    S    
C13   C17   A    
C73   O29   D    
C50   C57   S    
C55   C67   T    
C9    C13   A    
O10   C6    A    
C74   O32   S    
H25   C58   S    
C36   C40   A    
C16   H8    S    
C76   O35   D    
C35   H15   S    
C15   C19   A    
C70   O23   D    
C20   C24   A    
C17   C21   A    
C52   C76   S    
O20   V2    S    
C19   C23   A    
C27   C71   S    
C45   C49   S    
C48   C63   S    
C6    C31   S    
C69   O22   S    
C49   C73   S    
C47   C51   S    
C35   C44   A    
C24   H12   S    
C40   C44   A    
C4    O14   A    
C70   O24   S    
C13   H5    S    
C52   C64   S    
H26   C57   S    
C59   C63   S    
C47   H23   S    
C74   O31   D    
C34   C41   A    
C15   H7    S    
C46   H22   S    
O4    V2    S    
C33   C42   A    
O24   H30   S    
C71   O26   S    
