data_mof_unit_31388.cif
_audit_creation_date              2012-10-26T19:51:35-0400
_audit_creation_method            fapswitch 2.2
_symmetry_space_group_name_H-M    P1
_symmetry_Int_Tables_number       1
_space_group_crystal_system       triclinic
_cell_length_a                    19.610316
_cell_length_b                    18.158997
_cell_length_c                    9.102586
_cell_angle_alpha                 90.000622
_cell_angle_beta                  90.141629
_cell_angle_gamma                 89.989789
_cell_volume                      3241.45432102

loop_
_atom_site_label
_atom_site_type_symbol
_atom_type_description
_atom_site_fract_x
_atom_site_fract_y
_atom_site_fract_z
_atom_type_partial_charge
C1    C     C_R   0.367448 0.500116 0.500603 0.626229
C2    C     C_R   0.474103 0.201476 0.379973 -0.118650
C3    C     C_R   0.499999 0.838554 0.499998 0.023286
C4    C     C_R   0.499998 0.161502 0.499999 0.010552
C5    C     C_R   0.556718 0.961718 0.551908 -0.099850
C6    C     C_R   0.443470 0.039093 0.447291 -0.100783
C7    C     C_R   0.443279 0.961739 0.448086 -0.099846
C8    C     C_R   0.556526 0.039072 0.552703 -0.100778
C9    C     C_R   0.499998 0.078914 0.499998 0.029158
C10   C     C_R   0.499999 0.921558 0.499997 0.032893
C11   C     C_R   0.499903 0.499990 0.220400 0.605243
C12   C     C_R   0.632552 0.500101 0.499431 0.626040
C13   C     C_R   0.500095 0.499991 0.779600 0.605053
C14   C     C_1   0.499935 0.499940 0.065423 -0.008160
C15   C     C_1   0.500062 0.499940 0.934577 -0.008196
C16   C     C_R   0.745622 0.453414 0.595473 0.167031
C17   C     C_R   0.255580 0.549661 0.596551 0.218152
C18   C     C_R   0.254354 0.453502 0.404662 0.167280
C19   C     C_R   0.744448 0.549579 0.403600 0.218251
C20   C     C_R   0.817287 0.457221 0.599243 0.217220
C21   C     C_R   0.183713 0.548280 0.598572 0.216339
C22   C     C_R   0.182687 0.457309 0.401046 0.217207
C23   C     C_R   0.464831 0.720975 0.394395 0.097888
C24   C     C_R   0.816316 0.548203 0.401738 0.216339
C25   C     C_R   0.852652 0.503235 0.500886 -0.064803
C26   C     C_R   0.147350 0.503295 0.499534 -0.064805
C27   C     C_R   0.708432 0.500784 0.499125 -0.101810
C28   C     C_R   0.291570 0.500844 0.500987 -0.101750
C29   C     C_R   0.964512 0.570254 0.503054 -0.111460
C30   C     C_R   0.035450 0.436918 0.502900 -0.108323
C31   C     C_R   0.035441 0.570271 0.497614 -0.111459
C32   C     C_R   0.964599 0.436901 0.497734 -0.108367
C33   C     C_R   0.071662 0.503572 0.499974 0.040665
C34   C     C_R   0.524971 0.278762 0.618252 0.099958
C35   C     C_R   0.928339 0.503540 0.500645 0.040624
C36   C     C_3   0.874311 0.451480 0.817605 0.018812
C37   C     C_3   0.915014 0.400652 0.917387 -0.346449
C38   C     C_3   0.126501 0.555345 0.816098 0.023904
C39   C     C_3   0.085484 0.606695 0.913829 -0.352253
C40   C     C_3   0.125534 0.451682 0.182831 0.018847
C41   C     C_3   0.084677 0.400951 0.083176 -0.346695
C42   C     C_3   0.873655 0.555176 0.184358 0.023929
C43   C     C_3   0.914633 0.606499 0.086533 -0.352285
C44   C     C_R   0.535169 0.720964 0.605604 0.097847
C45   C     C_R   0.475026 0.278772 0.381749 0.099933
C46   C     C_R   0.464449 0.798266 0.391910 -0.116229
C47   C     C_R   0.525893 0.201466 0.620027 -0.118646
C48   C     C_R   0.535549 0.798254 0.608088 -0.116240
Cu1   Cu    Cu3+1 0.500000 0.573360 0.500000 1.069688
Cu2   Cu    Cu3+1 0.500000 0.426640 0.500000 1.114514
H1    H     H_    0.937918 0.622439 0.507897 0.165172
H2    H     H_    0.545801 0.173216 0.715702 0.114691
H3    H     H_    0.562823 0.825959 0.695511 0.099556
H4    H     H_    0.454194 0.173234 0.284297 0.114688
H5    H     H_    0.602041 0.933524 0.589992 0.120584
H6    H     H_    0.398658 0.067855 0.407801 0.127982
H7    H     H_    0.397957 0.933561 0.410002 0.120589
H8    H     H_    0.601338 0.067818 0.592193 0.127989
H9    H     H_    0.662371 0.472616 0.857546 0.329512
H10   H     H_    0.377327 0.597694 0.885444 0.353471
H11   H     H_    0.337506 0.472562 0.141905 0.329853
H12   H     H_    0.061971 0.384683 0.507860 0.168470
H13   H     H_    0.622749 0.597500 0.114511 0.353416
H14   H     H_    0.829422 0.472609 0.879266 0.149053
H15   H     H_    0.907592 0.498601 0.787336 0.116257
H16   H     H_    0.959287 0.377781 0.856691 0.158488
H17   H     H_    0.934064 0.431606 0.013932 0.064974
H18   H     H_    0.882402 0.354632 0.956062 0.202274
H19   H     H_    0.170851 0.533999 0.879662 0.161216
H20   H     H_    0.093124 0.508363 0.785208 0.116154
H21   H     H_    0.041391 0.629247 0.851580 0.157759
H22   H     H_    0.066100 0.576252 0.010544 0.065342
H23   H     H_    0.061995 0.622468 0.492743 0.165224
H24   H     H_    0.118003 0.652896 0.952373 0.198821
H25   H     H_    0.170377 0.472766 0.120985 0.148977
H26   H     H_    0.092326 0.498841 0.213312 0.116248
H27   H     H_    0.040480 0.378078 0.144100 0.158531
H28   H     H_    0.065503 0.431988 0.986840 0.065110
H29   H     H_    0.117220 0.354930 0.044171 0.202053
H30   H     H_    0.829361 0.533718 0.120784 0.161083
H31   H     H_    0.907095 0.508267 0.215444 0.116196
H32   H     H_    0.958635 0.629215 0.148821 0.157856
H33   H     H_    0.934153 0.575976 0.990031 0.065350
H34   H     H_    0.938119 0.384655 0.492719 0.168508
H35   H     H_    0.882044 0.652586 0.047657 0.198724
H36   H     H_    0.436997 0.690829 0.311163 0.123665
H37   H     H_    0.544675 0.308440 0.712034 0.188514
H38   H     H_    0.563002 0.690809 0.688837 0.123626
H39   H     H_    0.455321 0.308457 0.287969 0.188458
H40   H     H_    0.437175 0.825979 0.304486 0.099557
N1    N     N_R   0.500000 0.683620 0.500000 -0.207572
N2    N     N_R   0.500000 0.316380 0.500000 -0.236942
O1    O     O_R   0.400190 0.561980 0.499980 -0.456863
O2    O     O_2   0.750063 0.355272 0.826267 -0.234153
O3    O     O_3   0.640052 0.431772 0.803643 -0.533137
O4    O     O_2   0.334591 0.669815 0.632316 -0.258854
O5    O     O_2   0.252859 0.647306 0.827675 -0.257250
O6    O     O_3   0.357816 0.562223 0.814138 -0.549764
O7    O     O_2   0.325385 0.328430 0.378430 -0.247130
O8    O     O_2   0.249854 0.355493 0.173660 -0.234338
O9    O     O_3   0.359884 0.431926 0.196343 -0.533375
O10   O     O_2   0.665463 0.669752 0.367506 -0.258838
O11   O     O_2   0.747220 0.647073 0.172246 -0.257310
O12   O     O_R   0.599810 0.438020 0.500020 -0.436666
O13   O     O_3   0.642241 0.562064 0.185923 -0.549639
O14   O     O_3   0.853376 0.411321 0.692560 -0.506455
O15   O     O_3   0.148540 0.595034 0.691484 -0.508865
O16   O     O_3   0.146570 0.411451 0.307717 -0.506374
O17   O     O_3   0.851512 0.594925 0.308826 -0.508807
O18   O     O_R   0.599810 0.561980 0.500020 -0.456959
O19   O     O_R   0.400190 0.438020 0.499980 -0.436732
O20   O     O_R   0.500000 0.561940 0.288400 -0.513787
O21   O     O_R   0.500000 0.438060 0.711600 -0.483270
O22   O     O_R   0.500000 0.561940 0.711600 -0.513824
O23   O     O_R   0.500000 0.438060 0.288400 -0.483241
O24   O     O_2   0.674579 0.328361 0.621351 -0.247149
S1    S     S_3+6 0.703529 0.389319 0.713900 0.043617
S2    S     S_3+6 0.299536 0.610628 0.719405 0.040518
S3    S     S_3+6 0.296419 0.389455 0.286051 0.043549
S4    S     S_3+6 0.700519 0.610493 0.280574 0.040575

loop_
_geom_bond_atom_site_label_1
_geom_bond_atom_site_label_2
_ccdc_geom_bond_type
C7    C10   A    
C21   C26   A    
C38   H20   S    
C42   H30   S    
C43   H33   S    
H11   O9    S    
O11   S4    D    
C6    C9    A    
C12   O18   A    
O3    S1    S    
Cu2   O12   S    
O4    S2    D    
C36   C37   S    
C42   O17   S    
C12   O12   A    
H10   O6    S    
C41   H27   S    
C38   C39   S    
O2    S1    D    
C31   H23   S    
C20   C25   A    
C37   H18   S    
C3    C48   A    
C38   O15   S    
O24   S1    D    
Cu2   O23   S    
C39   H24   S    
O5    S2    D    
C45   N2    A    
C8    H8    S    
C8    C9    A    
C23   H36   S    
C1    C28   S    
C39   H22   S    
C31   C33   A    
O13   S4    S    
H13   O13   S    
C11   O23   A    
C13   O22   A    
C40   O16   S    
C16   C27   A    
Cu1   O22   S    
C38   H19   S    
C23   C46   A    
C42   H31   S    
H9    O3    S    
Cu1   N1    S    
C19   C27   A    
O6    S2    S    
C6    C7    A    
C20   O14   S    
C2    C45   A    
C48   H3    S    
C32   H34   S    
C12   C27   S    
C36   O14   S    
O9    S3    S    
C32   C35   A    
C18   C28   A    
C24   C25   A    
C2    H4    S    
C41   H28   S    
C36   H15   S    
C17   C21   A    
C40   H26   S    
C43   H35   S    
C2    C4    A    
C26   C33   S    
C16   C20   A    
C37   H16   S    
O8    S3    D    
C21   O15   S    
C44   N1    A    
C17   S2    S    
C25   C35   S    
Cu1   O20   S    
Cu2   N2    S    
C40   C41   S    
C19   S4    S    
C30   H12   S    
C23   N1    A    
C42   C43   S    
O10   S4    D    
C29   H1    S    
C45   H39   S    
C30   C33   A    
C11   O20   A    
C18   C22   A    
C17   C28   A    
C5    H5    S    
C24   O17   S    
C6    H6    S    
C41   H29   S    
C5    C8    A    
C47   H2    S    
C46   H40   S    
C29   C35   A    
C3    C46   A    
C40   H25   S    
Cu2   O21   S    
C13   C15   S    
C19   C24   A    
C5    C10   A    
C29   C31   A    
C3    C10   S    
C36   H14   S    
C16   S1    S    
C1    O19   A    
C30   C32   A    
C22   O16   S    
C37   H17   S    
Cu2   O19   S    
C11   C14   S    
C34   H37   S    
C34   N2    A    
O7    S3    D    
C1    O1    A    
Cu1   Cu2   S    
C22   C26   A    
C43   H32   S    
C39   H21   S    
C14   C15   T    
C34   C47   A    
Cu1   O1    S    
C4    C9    S    
C44   H38   S    
C18   S3    S    
C7    H7    S    
C13   O21   A    
C44   C48   A    
Cu1   O18   S    
C4    C47   A    
