data_mof_unit_52574.cif
_audit_creation_date              2012-12-10T17:02:13-0500
_audit_creation_method            fapswitch 2.2
_symmetry_space_group_name_H-M    P1
_symmetry_Int_Tables_number       1
_space_group_crystal_system       triclinic
_cell_length_a                    10.650636
_cell_length_b                    10.713243
_cell_length_c                    10.042124
_cell_angle_alpha                 91.485334
_cell_angle_beta                  93.191999
_cell_angle_gamma                 90.157236
_cell_volume                      1143.6628007

loop_
_atom_site_label
_atom_site_type_symbol
_atom_type_description
_atom_site_fract_x
_atom_site_fract_y
_atom_site_fract_z
_atom_type_partial_charge
C1    C     C_R   0.506154 0.262719 0.498334 0.933817
C2    C     C_2   0.510421 0.130159 0.493506 -0.405738
C3    C     C_2   0.563113 0.579205 0.934803 0.502910
C4    C     C_R   0.260206 0.501456 0.495863 0.924767
C5    C     C_2   0.583571 0.555880 0.080927 -0.111446
C6    C     C_R   0.508220 0.737202 0.502162 1.034436
C7    C     C_R   0.740052 0.493947 0.504682 0.920673
C8    C     C_R   0.134351 0.274939 0.554112 -0.242455
C9    C     C_R   0.074463 0.172143 0.604485 0.381296
C10   C     C_R   0.958069 0.187660 0.659172 -0.193782
C11   C     C_R   0.899227 0.304537 0.657688 0.317091
C12   C     C_R   0.070264 0.389107 0.539557 -0.040891
C13   C     C_R   0.945449 0.398549 0.574775 -0.023521
C14   C     C_R   0.127115 0.492919 0.485329 -0.175579
C15   C     C_R   0.056217 0.591826 0.432349 0.406786
C16   C     C_R   0.928667 0.590823 0.446068 -0.238467
C17   C     C_R   0.873639 0.496920 0.516921 -0.079911
C18   C     C_2   0.558988 0.929043 0.399044 -0.173598
C19   C     C_2   0.534690 0.867809 0.508742 -0.281852
C20   C     C_2   0.574634 0.063591 0.404184 0.458030
H1    H     H_    0.540188 0.912891 0.606790 0.184102
H2    H     H_    0.920179 0.112840 0.715614 0.215351
H3    H     H_    0.925421 0.515826 0.852816 0.373100
H4    H     H_    0.870860 0.663188 0.400820 0.179264
H5    H     H_    0.565549 0.880559 0.303266 0.226311
H6    H     H_    0.821013 0.058594 0.165576 0.415604
H7    H     H_    0.966026 0.800643 0.232888 0.382391
H8    H     H_    0.452424 0.086455 0.564424 0.198014
H9    H     H_    0.526521 0.902992 0.853975 0.392942
H10   H     H_    0.474283 0.418445 0.891846 0.165080
H11   H     H_    0.664020 0.598425 0.135579 0.201617
H12   H     H_    0.420060 0.471948 0.095967 0.178592
H13   H     H_    0.228156 0.263333 0.519432 0.155512
H14   H     H_    0.173091 0.030839 0.394905 0.391281
N1    N     N_2   0.501340 0.501330 0.852150 -0.210242
N2    N     N_2   0.501380 0.501360 0.147810 -0.188245
O1    O     O_R   0.499980 0.319060 0.613040 -0.590769
O2    O     O_2   0.161142 0.659479 0.209374 -0.281795
O3    O     O_3   0.018043 0.828092 0.313235 -0.493215
O4    O     O_2   0.693796 0.788927 0.000010 -0.301127
O5    O     O_2   0.702834 0.712507 0.770130 -0.242820
O6    O     O_3   0.495145 0.815967 0.843404 -0.517328
O7    O     O_2   0.239899 0.023800 0.728811 -0.240797
O8    O     O_2   0.057386 0.922451 0.611606 -0.210816
O9    O     O_3   0.233470 0.011874 0.470191 -0.515996
O10   O     O_2   0.689974 0.302303 0.794281 -0.259682
O11   O     O_2   0.888651 0.276631 0.921058 -0.265178
O12   O     O_R   0.500020 0.319100 0.386900 -0.557982
O13   O     O_3   0.834238 0.497687 0.840085 -0.492149
O14   O     O_2   0.598602 0.183934 0.175932 -0.240225
O15   O     O_2   0.757163 0.228346 0.358049 -0.328708
O16   O     O_3   0.768114 0.015993 0.228727 -0.512080
O17   O     O_R   0.316750 0.499980 0.613090 -0.610428
O18   O     O_R   0.316790 0.500020 0.386950 -0.582642
O19   O     O_R   0.499980 0.680900 0.613100 -0.538241
O20   O     O_R   0.500020 0.680940 0.386960 -0.614187
O21   O     O_R   0.683210 0.499980 0.613050 -0.534201
O22   O     O_R   0.683250 0.500020 0.386910 -0.610251
O23   O     O_2   0.236092 0.764381 0.417354 -0.226560
S1    S     S_3+6 0.122068 0.712336 0.340832 0.089942
S2    S     S_3+6 0.619544 0.725874 0.885333 0.088769
S3    S     S_3+6 0.151003 0.027343 0.607462 0.087494
S4    S     S_3+6 0.824771 0.343500 0.806298 0.053288
S5    S     S_3+6 0.675824 0.128650 0.289438 0.076967
Zn1   Zn    Zn3+2 0.499970 0.499970 0.650990 1.121986
Zn2   Zn    Zn3+2 0.500030 0.500030 0.349010 1.075488

loop_
_geom_bond_atom_site_label_1
_geom_bond_atom_site_label_2
_ccdc_geom_bond_type
C15   C16   A    
C20   S5    S    
C1    O12   A    
C19   H1    S    
O13   S4    S    
H6    O16   S    
H9    O6    S    
O17   Zn1   S    
C9    C10   A    
C6    O19   A    
C7    O22   A    
C11   S4    S    
O4    S2    D    
O5    S2    D    
O10   S4    D    
C8    C12   A    
O12   Zn2   S    
C8    C9    A    
O23   S1    D    
C16   H4    S    
H14   O9    S    
C10   H2    S    
O11   S4    D    
C6    C19   S    
C11   C13   A    
O6    S2    S    
O22   Zn2   S    
O18   Zn2   S    
C18   H5    S    
H7    O3    S    
H10   N1    S    
O20   Zn2   S    
O3    S1    S    
H12   N2    S    
O19   Zn1   S    
C5    H11   S    
C12   C14   A    
C1    C2    S    
C18   C20   S    
C8    H13   S    
C3    S2    S    
C4    C14   S    
C4    O17   A    
O2    S1    D    
H3    O13   S    
C10   C11   A    
N1    Zn1   S    
C3    N1    D    
C13   C17   A    
C5    N2    D    
C3    C5    S    
O9    S3    S    
O14   S5    D    
C12   C13   A    
C18   C19   D    
O16   S5    S    
O21   Zn1   S    
C14   C15   A    
C16   C17   A    
C2    H8    S    
N2    Zn2   S    
O8    S3    D    
C4    O18   A    
C2    C20   D    
C7    O21   A    
C15   S1    S    
O15   S5    D    
C9    S3    S    
O7    S3    D    
C6    O20   A    
C1    O1    A    
C7    C17   S    
O1    Zn1   S    
