data_mof_unit_26992.cif
_audit_creation_date              2012-12-10T21:32:04-0500
_audit_creation_method            fapswitch 2.2
_symmetry_space_group_name_H-M    P1
_symmetry_Int_Tables_number       1
_space_group_crystal_system       triclinic
_cell_length_a                    14.989403
_cell_length_b                    16.084463
_cell_length_c                    16.771129
_cell_angle_alpha                 91.730905
_cell_angle_beta                  88.882795
_cell_angle_gamma                 108.509369
_cell_volume                      3832.34039473

loop_
_atom_site_label
_atom_site_type_symbol
_atom_type_description
_atom_site_fract_x
_atom_site_fract_y
_atom_site_fract_z
_atom_type_partial_charge
C1    C     C_R   0.499460 0.489094 0.347040 0.877601
C2    C     C_R   0.503074 0.511774 0.653485 0.880060
C3    C     C_R   0.908818 0.423481 0.634369 0.134064
C4    C     C_R   0.108398 0.620709 0.599855 0.128440
C5    C     C_R   0.949059 0.354361 0.625782 0.136243
C6    C     C_R   0.065172 0.683572 0.577711 0.126638
C7    C     C_R   0.491811 0.481648 0.260995 -0.133339
C8    C     C_R   0.522811 0.522268 0.739291 -0.151821
C9    C     C_R   0.427051 0.516189 0.226735 -0.277417
C10   C     C_R   0.558045 0.459552 0.772326 -0.274516
C11   C     C_R   0.422989 0.522146 0.144604 0.173035
C12   C     C_R   0.577749 0.461555 0.852754 0.176484
C13   C     C_R   0.485846 0.494092 0.096620 0.232183
C14   C     C_R   0.563205 0.528236 0.901165 0.236093
C15   C     C_R   0.546010 0.453227 0.130398 -0.204480
C16   C     C_R   0.532861 0.593886 0.869147 -0.194039
C17   C     C_R   0.550829 0.447061 0.213140 0.113618
C18   C     C_R   0.511554 0.592376 0.787883 0.122956
C19   C     C_R   0.548577 0.778564 0.535984 -0.026833
C20   C     C_R   0.454883 0.222150 0.461185 -0.024731
C21   C     C_R   0.545198 0.864728 0.534542 -0.271838
C22   C     C_R   0.457544 0.135824 0.463738 -0.274441
C23   C     C_R   0.324968 0.446164 0.504154 0.864284
C24   C     C_R   0.674909 0.554278 0.499710 0.860409
C25   C     C_R   0.479682 0.884590 0.485291 0.335868
C26   C     C_R   0.518817 0.115066 0.516959 0.336201
C27   C     C_R   0.419578 0.816178 0.439173 -0.313846
C28   C     C_R   0.575496 0.182808 0.565901 -0.315719
C29   C     C_R   0.425150 0.730962 0.442623 -0.006193
C30   C     C_R   0.570598 0.268175 0.561368 0.001507
C31   C     C_R   0.224223 0.416795 0.524887 -0.068816
C32   C     C_R   0.776220 0.588793 0.515385 -0.063069
C33   C     C_R   0.083785 0.307986 0.574524 -0.190230
C34   C     C_R   0.921851 0.709243 0.526147 -0.191461
C35   C     C_R   0.175198 0.329850 0.543090 -0.198197
C36   C     C_R   0.826966 0.677302 0.505954 -0.203542
C37   C     C_R   0.180554 0.480744 0.537778 -0.253349
C38   C     C_R   0.820580 0.533222 0.547128 -0.254406
C39   C     C_R   0.094173 0.462309 0.577875 0.056819
C40   C     C_R   0.913978 0.564981 0.572917 0.058937
C41   C     C_R   0.041376 0.373664 0.592531 0.099479
C42   C     C_R   0.967710 0.653688 0.558747 0.100353
C43   C     C_R   0.055258 0.530154 0.594738 -0.047139
C44   C     C_R   0.957856 0.506520 0.602329 -0.044678
H1    H     H_    0.407940 0.237978 0.420417 0.128339
H2    H     H_    0.598855 0.763440 0.573636 0.123174
H3    H     H_    0.412253 0.086356 0.424427 0.151726
H4    H     H_    0.593455 0.914817 0.571386 0.151589
H5    H     H_    0.368561 0.828898 0.400571 0.146414
H6    H     H_    0.623274 0.169482 0.607544 0.148288
H7    H     H_    0.781956 0.464008 0.550850 0.157652
H8    H     H_    0.215514 0.546640 0.517802 0.159413
H9    H     H_    0.568973 0.406881 0.735695 0.171767
H10   H     H_    0.381132 0.540965 0.264592 0.155147
H11   H     H_    0.589821 0.428023 0.091069 0.175975
H12   H     H_    0.523209 0.643739 0.909842 0.164458
N1    N     N_2   0.487093 0.506577 0.013970 -0.186223
N2    N     N_2   0.567053 0.522342 0.983885 -0.197543
N3    N     N_R   0.489120 0.713640 0.490430 -0.081188
N4    N     N_R   0.510880 0.286360 0.509570 -0.080312
N5    N     N_2   0.471931 0.970876 0.479537 -0.191333
N6    N     N_2   0.526373 0.028738 0.523151 -0.190964
O1    O     O_R   0.503890 0.423710 0.387290 -0.626130
O2    O     O_R   0.496110 0.576290 0.612710 -0.630542
O3    O     O_R   0.496910 0.560910 0.381140 -0.602511
O4    O     O_R   0.503090 0.439090 0.618860 -0.611232
O5    O     O_R   0.373240 0.392210 0.504830 -0.604971
O6    O     O_R   0.626760 0.607790 0.495170 -0.607664
O7    O     O_R   0.366260 0.529410 0.498680 -0.620906
O8    O     O_R   0.633740 0.470590 0.501320 -0.616813
Zn1   Zn    Zn3+2 0.504660 0.408390 0.504100 0.929493
Zn2   Zn    Zn3+2 0.495340 0.591610 0.495900 0.926785
C45   C     C_3   0.891356 0.260598 0.645776 -0.428101
C46   C     C_3   0.842626 0.210597 0.571560 -0.883898
H13   H     H_    0.794585 0.243589 0.547190 0.262891
H14   H     H_    0.894849 0.207242 0.524783 0.263354
H15   H     H_    0.800632 0.142727 0.587387 0.250108
H16   H     H_    0.935872 0.225816 0.672916 0.194783
H17   H     H_    0.836458 0.257452 0.691544 0.218458
C47   C     C_3   0.124380 0.779191 0.566968 -0.414153
C48   C     C_3   0.158818 0.794917 0.480761 -0.886695
H18   H     H_    0.202352 0.752485 0.464072 0.256827
H19   H     H_    0.098700 0.780291 0.439274 0.260444
H20   H     H_    0.202533 0.864530 0.474376 0.253933
H21   H     H_    0.084606 0.824188 0.585543 0.192082
H22   H     H_    0.186880 0.799854 0.605568 0.224913
H23   H     H_    0.378287 0.678541 0.407037 0.126129
H24   H     H_    0.614509 0.320040 0.599323 0.113469
H25   H     H_    0.793570 0.721741 0.482123 0.153479
H26   H     H_    0.207649 0.278968 0.533723 0.152832
H27   H     H_    0.048236 0.239488 0.585070 0.147139
H28   H     H_    0.958017 0.777408 0.514692 0.147601
C49   C     C_3   0.827294 0.416691 0.692308 -0.428748
C50   C     C_3   0.860232 0.419116 0.778407 -0.876249
H29   H     H_    0.883388 0.361874 0.790828 0.253222
H30   H     H_    0.919847 0.480005 0.790005 0.265587
H31   H     H_    0.802293 0.419192 0.820349 0.240973
H32   H     H_    0.800379 0.473111 0.688335 0.218485
H33   H     H_    0.766600 0.357280 0.679491 0.191340
C51   C     C_3   0.203185 0.649047 0.641894 -0.412322
C52   C     C_3   0.193893 0.684049 0.726446 -0.880855
H34   H     H_    0.165455 0.739803 0.726812 0.253663
H35   H     H_    0.146127 0.631049 0.762649 0.263519
H36   H     H_    0.263882 0.706392 0.755026 0.257086
H37   H     H_    0.230585 0.593543 0.649955 0.219120
H38   H     H_    0.257487 0.697895 0.606652 0.211544
C53   C     C_3   0.607028 0.388216 0.886826 -0.424932
C54   C     C_3   0.522199 0.315785 0.918687 -0.841689
H39   H     H_    0.486679 0.341201 0.967799 0.269141
H40   H     H_    0.471096 0.288107 0.870122 0.260365
H41   H     H_    0.545795 0.262464 0.942072 0.241767
H42   H     H_    0.641664 0.358619 0.839915 0.199105
H43   H     H_    0.659074 0.414067 0.935102 0.206423
C55   C     C_3   0.354995 0.562885 0.109468 -0.409721
C56   C     C_3   0.403664 0.659402 0.091893 -0.844984
H44   H     H_    0.431891 0.696492 0.147765 0.259614
H45   H     H_    0.462233 0.666775 0.048363 0.262770
H46   H     H_    0.352233 0.687663 0.066273 0.243350
H47   H     H_    0.324179 0.526754 0.053834 0.212765
H48   H     H_    0.295354 0.558008 0.151507 0.196092
C57   C     C_3   0.619739 0.408088 0.251335 -0.356206
C58   C     C_3   0.687882 0.382051 0.194353 -0.912251
H49   H     H_    0.648824 0.328679 0.152458 0.258763
H50   H     H_    0.731117 0.439665 0.160664 0.263206
H51   H     H_    0.736046 0.357431 0.229290 0.257981
H52   H     H_    0.662890 0.456691 0.295317 0.205195
H53   H     H_    0.579034 0.348564 0.283867 0.225615
C59   C     C_3   0.475865 0.662664 0.753500 -0.348443
C60   C     C_3   0.459753 0.730604 0.813067 -0.939067
H54   H     H_    0.406076 0.698192 0.858533 0.266439
H55   H     H_    0.526691 0.768622 0.842367 0.262383
H56   H     H_    0.433801 0.777539 0.780826 0.256573
H57   H     H_    0.527869 0.699446 0.708731 0.220377
H58   H     H_    0.407822 0.630049 0.723322 0.218343

loop_
_geom_bond_atom_site_label_1
_geom_bond_atom_site_label_2
_ccdc_geom_bond_type
C36   H25   S    
C49   C50   S    
C27   C29   A    
C45   C46   S    
C23   O7    A    
C34   C42   A    
C59   C60   S    
C16   H12   S    
C55   C56   S    
C19   H2    S    
C24   O8    A    
C39   C41   A    
C51   H37   S    
C52   H34   S    
C46   H14   S    
C32   C36   A    
C19   C21   A    
C57   H53   S    
C33   H27   S    
C13   N1    S    
C56   H44   S    
C54   H39   S    
C7    C9    A    
C53   H42   S    
C23   O5    A    
C10   H9    S    
C11   C55   S    
C53   H43   S    
C21   C25   A    
C18   C59   S    
C28   H6    S    
C29   N3    A    
C7    C17   A    
C46   H15   S    
C30   N4    A    
C1    O3    A    
C45   H16   S    
O8    Zn1   S    
C14   C16   A    
C32   C38   A    
C20   N4    A    
C49   H33   S    
O5    Zn1   S    
C20   H1    S    
N3    Zn2   S    
C21   H4    S    
C40   C42   A    
C22   H3    S    
C52   H35   S    
C5    C45   S    
C50   H29   S    
C1    O1    A    
C48   H19   S    
C2    O2    A    
C48   H18   S    
C14   N2    S    
C3    C44   A    
C46   H13   S    
C4    C6    A    
C37   H8    S    
C39   C43   A    
C38   H7    S    
N4    Zn1   S    
C56   H45   S    
C8    C18   A    
C31   C37   A    
C23   C31   S    
O7    Zn2   S    
C43   C44   A    
C24   C32   S    
C47   H21   S    
C59   H58   S    
C6    C47   S    
O4    Zn1   S    
O6    Zn2   S    
C56   H46   S    
C45   H17   S    
C3    C49   S    
C16   C18   A    
C25   N5    S    
C50   H30   S    
C9    C11   A    
C57   C58   S    
C10   C12   A    
C17   C57   S    
O1    Zn1   S    
C52   H36   S    
C4    C51   S    
C22   C26   A    
C31   C35   A    
C53   C54   S    
C30   H24   S    
C48   H20   S    
C60   H54   S    
C15   C17   A    
C5    C41   A    
C1    C7    S    
C26   C28   A    
C2    C8    S    
C55   H47   S    
C20   C22   A    
C47   C48   S    
C3    C5    A    
C12   C53   S    
C2    O4    A    
C4    C43   A    
C25   C27   A    
O3    Zn2   S    
C51   H38   S    
C50   H31   S    
C54   H41   S    
C19   N3    A    
C60   H56   S    
C58   H51   S    
C13   C15   A    
C12   C14   A    
C33   C41   A    
C57   H52   S    
C37   C39   A    
C59   H57   S    
C38   C40   A    
C11   C13   A    
N1    N2    D    
C28   C30   A    
C51   C52   S    
C33   C35   A    
C54   H40   S    
C34   C36   A    
O2    Zn2   S    
C26   N6    S    
N5    N6    D    
C34   H28   S    
C29   H23   S    
C24   O6    A    
C35   H26   S    
C47   H22   S    
C40   C44   A    
C8    C10   A    
C6    C42   A    
C9    H10   S    
C58   H49   S    
C58   H50   S    
C49   H32   S    
C55   H48   S    
C27   H5    S    
C15   H11   S    
C60   H55   S    
