data_mof_unit_42380.cif
_audit_creation_date              2012-12-10T20:37:34-0500
_audit_creation_method            fapswitch 2.2
_symmetry_space_group_name_H-M    P1
_symmetry_Int_Tables_number       1
_space_group_crystal_system       triclinic
_cell_length_a                    15.73293
_cell_length_b                    10.67855
_cell_length_c                    9.860776
_cell_angle_alpha                 89.653787
_cell_angle_beta                  90.086657
_cell_angle_gamma                 89.986664
_cell_volume                      1656.62629764

loop_
_atom_site_label
_atom_site_type_symbol
_atom_type_description
_atom_site_fract_x
_atom_site_fract_y
_atom_site_fract_z
_atom_type_partial_charge
C1    C     C_R   0.505072 0.260338 0.500387 0.906134
C2    C     C_R   0.521056 0.129197 0.502651 -0.235862
C3    C     C_R   0.558115 0.066275 0.391745 -0.156987
C4    C     C_R   0.337948 0.499785 0.499884 0.894477
C5    C     C_R   0.551728 0.935504 0.386775 0.465941
C6    C     C_R   0.516216 0.871704 0.499425 -0.248073
C7    C     C_R   0.499353 0.935733 0.618498 0.080270
C8    C     C_3   0.423936 0.929256 0.710388 -0.452159
C9    C     C_3   0.425947 0.071217 0.712060 -0.468029
C10   C     C_R   0.425305 0.498289 0.071093 0.206740
C11   C     C_R   0.573630 0.512414 0.071976 -0.110520
C12   C     C_3   0.083092 0.499081 0.498163 0.065964
C13   C     C_R   0.573633 0.512406 0.928176 -0.139963
C14   C     C_R   0.425280 0.498571 0.928544 0.218372
C15   C     C_3   0.358460 0.399795 0.923160 -0.492729
C16   C     C_R   0.502972 0.740059 0.499346 0.926110
C17   C     C_3   0.358757 0.399092 0.077180 -0.496422
C18   C     C_R   0.662072 0.499965 0.500099 0.910957
C19   C     C_3   0.971982 0.419279 0.596679 -0.260269
C20   C     C_3   0.027910 0.382370 0.473442 -0.214574
C21   C     C_1   0.249142 0.499235 0.499556 -0.181118
C22   C     C_1   0.750903 0.499679 0.500242 -0.173951
C23   C     C_3   0.972419 0.615646 0.523974 -0.099774
C24   C     C_3   0.027924 0.536152 0.618990 0.551252
C25   C     C_1   0.059418 0.662139 0.296647 0.171447
C26   C     C_1   0.940667 0.742335 0.551251 0.190912
C27   C     C_3   0.002691 0.576986 0.844462 -0.297455
C28   C     C_1   0.601843 0.132982 0.284165 0.269645
C29   C     C_3   0.522881 0.876851 0.169280 -0.249838
C30   C     C_3   0.916940 0.499629 0.499899 0.077416
C31   C     C_3   0.027447 0.577504 0.402757 -0.053512
C32   C     C_3   0.971003 0.461754 0.376673 -0.172014
C33   C     C_1   0.173928 0.498915 0.498977 -0.002607
C34   C     C_1   0.826131 0.499506 0.500170 -0.028135
C35   C     C_R   0.501001 0.062801 0.619790 0.142121
H1    H     H_    0.052858 0.287267 0.452106 0.164893
H2    H     H_    0.382747 0.310052 0.122133 0.212824
H3    H     H_    0.946967 0.354272 0.675281 0.150790
H4    H     H_    0.945556 0.431621 0.276980 0.149861
H5    H     H_    0.366606 0.890364 0.659676 0.200952
H6    H     H_    0.985457 0.479537 0.873468 0.156898
H7    H     H_    0.944967 0.630742 0.814554 0.160670
H8    H     H_    0.029861 0.622501 0.935569 0.210113
H9    H     H_    0.457406 0.852391 0.203205 0.151812
H10   H     H_    0.541269 0.808228 0.090542 0.184534
H11   H     H_    0.522761 0.970962 0.120824 0.149144
H12   H     H_    0.439805 0.886158 0.810200 0.203424
H13   H     H_    0.369703 0.115323 0.662722 0.196920
H14   H     H_    0.443354 0.109628 0.812843 0.200893
H15   H     H_    0.633240 0.520641 0.125755 0.168760
H16   H     H_    0.633252 0.520570 0.874585 0.161629
H17   H     H_    0.298053 0.435598 0.878972 0.222768
H18   H     H_    0.381947 0.311173 0.878271 0.207043
H19   H     H_    0.298427 0.434162 0.121563 0.212680
N1    N     N_R   0.499430 0.499140 0.142800 -0.109979
N2    N     N_R   0.499430 0.499180 0.857150 -0.110159
N3    N     N_1   0.084664 0.728823 0.213033 -0.210447
N4    N     N_1   0.915620 0.842127 0.572762 -0.194323
N5    N     N_1   0.636808 0.186303 0.198278 -0.207480
O1    O     O_R   0.500010 0.316790 0.614690 -0.611728
O2    O     O_3   0.582707 0.870099 0.276234 -0.583919
O3    O     O_R   0.500000 0.316760 0.385350 -0.619356
O4    O     O_R   0.376780 0.500010 0.614650 -0.612320
O5    O     O_R   0.376770 0.499970 0.385310 -0.621281
O6    O     O_R   0.500000 0.683240 0.614650 -0.619169
O7    O     O_R   0.499990 0.683210 0.385310 -0.582619
O8    O     O_R   0.623230 0.500030 0.614690 -0.629007
O9    O     O_R   0.623220 0.499990 0.385350 -0.612639
O10   O     O_3   0.064648 0.577449 0.741526 -0.603653
Zn1   Zn    Zn3+2 0.500010 0.500020 0.653130 0.950318
Zn2   Zn    Zn3+2 0.499990 0.499980 0.346870 0.967386

loop_
_geom_bond_atom_site_label_1
_geom_bond_atom_site_label_2
_ccdc_geom_bond_type
C2    C35   A    
C25   C31   S    
C14   N2    A    
C23   C24   S    
C6    C7    A    
C4    C21   S    
C19   H3    S    
C12   C24   S    
C26   N4    T    
C27   H6    S    
O7    Zn2   S    
C27   O10   S    
O4    Zn1   S    
O1    Zn1   S    
C29   H11   S    
C13   N2    A    
C1    O3    A    
C12   C20   S    
C18   C22   S    
C2    C3    A    
C12   C33   S    
C8    H12   S    
C5    O2    S    
C7    C8    S    
C29   H9    S    
C11   H15   S    
O5    Zn2   S    
C15   H17   S    
C30   C32   S    
C10   N1    A    
C11   C13   A    
C27   H7    S    
C25   N3    T    
O9    Zn2   S    
C15   H18   S    
C4    O4    A    
C3    C28   S    
C28   N5    T    
C23   C26   S    
O3    Zn2   S    
C19   C24   S    
N2    Zn1   S    
C12   C31   S    
C20   C32   S    
C5    C6    A    
C22   C34   T    
C29   O2    S    
C1    O1    A    
C16   O7    A    
C30   C34   S    
C10   C17   S    
C6    C16   S    
O6    Zn1   S    
C20   H1    S    
C23   C30   S    
C27   H8    S    
C24   O10   S    
C9    H14   S    
C11   N1    A    
C9    H13   S    
C9    C35   S    
C1    C2    S    
C10   C14   A    
C32   H4    S    
C15   C17   S    
C4    O5    A    
C14   C15   S    
C21   C33   T    
C17   H2    S    
C16   O6    A    
C8    H5    S    
O8    Zn1   S    
C18   O8    A    
C13   H16   S    
C19   C30   S    
C7    C35   A    
C17   H19   S    
C31   C32   S    
N1    Zn2   S    
C18   O9    A    
C19   C20   S    
C29   H10   S    
C8    C9    S    
C3    C5    A    
C23   C31   S    
