data_mof_unit_31030.cif
_audit_creation_date              2012-12-11T14:40:17-0500
_audit_creation_method            fapswitch 2.2
_symmetry_space_group_name_H-M    P1
_symmetry_Int_Tables_number       1
_space_group_crystal_system       triclinic
_cell_length_a                    19.677489
_cell_length_b                    10.92133
_cell_length_c                    19.463284
_cell_angle_alpha                 89.742469
_cell_angle_beta                  97.270541
_cell_angle_gamma                 90.066397
_cell_volume                      4149.07100914

loop_
_atom_site_label
_atom_site_type_symbol
_atom_type_description
_atom_site_fract_x
_atom_site_fract_y
_atom_site_fract_z
_atom_type_partial_charge
C1    C     C_R   0.726029 0.950023 0.360129 0.538495
C2    C     C_3   0.253203 0.400232 0.566779 0.055008
C3    C     C_3   0.245532 0.893472 0.434179 0.060856
C4    C     C_3   0.753202 0.900228 0.566778 0.058163
C5    C     C_3   0.768747 0.514606 0.467006 -0.152827
C6    C     C_3   0.283409 0.506909 0.529861 -0.131792
C7    C     C_3   0.268709 0.014617 0.467003 -0.152233
C8    C     C_3   0.783393 0.006924 0.529865 -0.131907
C9    C     C_3   0.817955 0.442787 0.520579 -0.112041
C10   C     C_3   0.214186 0.515775 0.482416 -0.110139
C11   C     C_3   0.317943 0.942849 0.520574 -0.111731
C12   C     C_R   0.275168 0.954089 0.638826 0.546656
C13   C     C_3   0.714170 0.015763 0.482418 -0.110517
C14   C     C_3   0.794518 0.320600 0.487036 -0.104439
C15   C     C_3   0.184506 0.408289 0.520464 -0.114875
C16   C     C_3   0.294544 0.820641 0.487037 -0.105261
C17   C     C_3   0.684505 0.908257 0.520462 -0.114573
C18   C     C_3   0.736743 0.308949 0.533385 -0.150514
C19   C     C_3   0.211315 0.316440 0.470393 -0.123143
C20   C     C_3   0.236778 0.808931 0.533390 -0.150397
C21   C     C_3   0.711330 0.816427 0.470390 -0.123239
C22   C     C_3   0.760169 0.429768 0.566231 0.062933
C23   C     C_R   0.226029 0.450022 0.360129 0.539712
C24   C     C_3   0.241043 0.423021 0.433067 0.058047
C25   C     C_3   0.260167 0.929770 0.566232 0.063003
C26   C     C_3   0.741043 0.923027 0.433068 0.057778
C27   C     C_3   0.467973 0.290927 0.982345 -0.129142
C28   C     C_3   0.431613 0.226370 0.038958 -0.159001
C29   C     C_3   0.068145 0.726204 0.960733 -0.158537
C30   C     C_3   0.031900 0.791255 0.016932 -0.129719
C31   C     C_3   0.536047 0.234785 0.013774 0.101377
C32   C     C_3   0.421581 0.112274 0.992793 0.073954
C33   C     C_3   0.078146 0.612446 0.007692 0.074316
C34   C     C_R   0.775167 0.454085 0.638826 0.545376
C35   C     C_3   0.963780 0.734861 0.985962 0.101573
C36   C     C_3   0.500595 0.171586 0.069759 0.052168
C37   C     C_3   0.457012 0.175116 0.936990 0.054468
C38   C     C_3   0.042856 0.675841 0.063083 0.054615
C39   C     C_3   0.999133 0.671123 0.930382 0.052223
C40   C     C_R   0.535124 0.179806 0.337919 0.537034
C41   C     C_R   0.464782 0.180205 0.662034 0.549081
C42   C     C_R   0.035125 0.679806 0.337918 0.547481
C43   C     C_R   0.964784 0.680205 0.662034 0.538695
C44   C     C_3   0.489888 0.055868 0.024863 -0.095643
C45   C     C_3   0.687434 0.380696 0.479514 -0.120462
C46   C     C_3   0.526370 0.120799 0.968281 -0.086855
C47   C     C_3   0.973447 0.621225 0.032270 -0.086638
C48   C     C_3   0.009797 0.555803 0.976105 -0.096315
C49   C     C_1   0.764352 0.428396 0.905282 0.003421
C50   C     C_1   0.246016 0.401440 0.103242 0.016820
C51   C     C_1   0.254079 0.900766 0.896820 0.016438
C52   C     C_1   0.735782 0.928999 0.094723 0.003789
C53   C     C_1   0.750448 0.413590 0.036253 -0.032166
C54   C     C_1   0.268807 0.352356 0.976413 -0.058799
C55   C     C_1   0.230893 0.851867 0.023635 -0.058894
C56   C     C_3   0.280508 0.307940 0.517504 -0.113151
C57   C     C_1   0.749504 0.913324 0.963672 -0.032494
C58   C     C_1   0.756807 0.420130 0.965343 -0.040210
C59   C     C_1   0.259421 0.374006 0.046353 -0.035654
C60   C     C_1   0.240505 0.873279 0.953719 -0.035246
C61   C     C_1   0.743267 0.920446 0.034646 -0.040336
C62   C     C_1   0.744686 0.399211 0.096394 0.013149
C63   C     C_1   0.273599 0.335616 0.915845 -0.026643
C64   C     C_1   0.226044 0.835370 0.084237 -0.027252
C65   C     C_1   0.755220 0.898666 0.903559 0.013430
C66   C     C_R   0.738966 0.361816 0.362125 0.544701
C67   C     C_3   0.187442 0.880628 0.479522 -0.121650
C68   C     C_R   0.260129 0.365742 0.638941 0.550972
C69   C     C_R   0.238965 0.861813 0.362124 0.557862
C70   C     C_R   0.760130 0.865737 0.638937 0.536996
C71   C     C_R   0.721617 0.953577 0.163372 0.547174
C72   C     C_R   0.276544 0.948391 0.834425 0.544173
C73   C     C_R   0.223492 0.448627 0.165575 0.543000
C74   C     C_R   0.778392 0.453254 0.836597 0.548393
C75   C     C_R   0.530958 0.179073 0.140827 0.569625
C76   C     C_R   0.436332 0.182503 0.862882 0.550223
C77   C     C_R   0.063668 0.682948 0.137125 0.550047
C78   C     C_3   0.780522 0.807955 0.517503 -0.111451
C79   C     C_R   0.968932 0.678843 0.859246 0.569488
C80   C     C_R   0.736375 0.361632 0.164964 0.554190
C81   C     C_R   0.277682 0.310477 0.843874 0.541230
C82   C     C_R   0.222166 0.810405 0.156290 0.542581
C83   C     C_R   0.763646 0.861274 0.835074 0.553332
C84   C     C_1   0.485926 0.172588 0.594825 -0.019161
C85   C     C_1   0.513936 0.171527 0.405125 -0.016207
C86   C     C_1   0.985936 0.672588 0.594829 -0.015777
C87   C     C_1   0.013945 0.671526 0.405129 -0.019609
C88   C     C_1   0.503996 0.168314 0.464688 -0.062368
C89   C     C_3   0.745533 0.393480 0.434178 0.064171
C90   C     C_1   0.495840 0.168866 0.535280 -0.063716
C91   C     C_1   0.004009 0.668313 0.464693 -0.063259
C92   C     C_1   0.995853 0.668865 0.535285 -0.062820
C93   C     C_3   0.711024 0.503130 0.513986 -0.118029
C94   C     C_3   0.310046 0.415483 0.478979 -0.124242
C95   C     C_3   0.210995 0.003083 0.513989 -0.117757
C96   C     C_3   0.810046 0.915518 0.478982 -0.124251
Cr1   Cr    Cr6+3 0.765830 0.160660 0.268180 1.031821
Cr2   Cr    Cr6+3 0.384070 0.324050 0.751550 1.023581
Cr3   Cr    Cr6+3 0.115930 0.824050 0.248450 1.020936
Cr4   Cr    Cr6+3 0.884070 0.824050 0.751550 1.031114
Cr5   Cr    Cr6+3 0.234170 0.160660 0.731820 1.014207
Cr6   Cr    Cr6+3 0.265830 0.660660 0.268180 1.014411
Cr7   Cr    Cr6+3 0.734170 0.660660 0.731820 1.031740
Cr8   Cr    Cr6+3 0.612110 0.009150 0.248770 1.031927
Cr9   Cr    Cr6+3 0.387890 0.009150 0.751230 1.030393
Cr10  Cr    Cr6+3 0.112110 0.509150 0.248770 1.034080
Cr11  Cr    Cr6+3 0.887890 0.509150 0.751230 1.028107
Cr12  Cr    Cr6+3 0.615930 0.324050 0.248450 1.028248
H1    H     H_    0.633728 0.355357 0.460409 0.131446
H2    H     H_    0.133384 0.407335 0.538933 0.125743
H3    H     H_    0.329656 0.746616 0.474791 0.135379
H4    H     H_    0.633383 0.907276 0.538930 0.125322
H5    H     H_    0.722780 0.229697 0.564514 0.105384
H6    H     H_    0.181928 0.240047 0.443522 0.119619
H7    H     H_    0.222838 0.729672 0.564528 0.106344
H8    H     H_    0.681956 0.740027 0.443512 0.118870
H9    H     H_    0.460301 0.387258 0.964586 0.136152
H10   H     H_    0.393259 0.266077 0.069565 0.122961
H11   H     H_    0.106525 0.765583 0.929810 0.122840
H12   H     H_    0.309543 0.224600 0.535995 0.118371
H13   H     H_    0.039650 0.887671 0.034049 0.135550
H14   H     H_    0.497301 0.959970 0.043430 0.134984
H15   H     H_    0.565590 0.080467 0.938838 0.130003
H16   H     H_    0.934226 0.581221 0.062066 0.130073
H17   H     H_    0.002310 0.459774 0.958248 0.134592
H18   H     H_    0.676433 0.576482 0.528114 0.132115
H19   H     H_    0.360937 0.416596 0.460042 0.120143
H20   H     H_    0.176384 0.076401 0.528115 0.132223
H21   H     H_    0.860938 0.916658 0.460048 0.120217
H22   H     H_    0.782127 0.594610 0.436085 0.105489
H23   H     H_    0.133746 0.855230 0.460423 0.131062
H24   H     H_    0.313452 0.581963 0.557262 0.115074
H25   H     H_    0.282062 0.094631 0.436076 0.106853
H26   H     H_    0.813421 0.081986 0.557276 0.114142
H27   H     H_    0.590038 0.384278 0.050384 0.249490
H28   H     H_    0.613188 0.327099 0.977204 0.229389
H29   H     H_    0.319777 0.106685 0.962913 0.215708
H30   H     H_    0.347222 0.015459 0.030007 0.241151
H31   H     H_    0.180057 0.607176 0.036939 0.215873
H32   H     H_    0.152075 0.514724 0.971000 0.240813
H33   H     H_    0.909817 0.884250 0.948593 0.249891
H34   H     H_    0.809568 0.724625 0.535991 0.118664
H35   H     H_    0.886648 0.827053 0.022044 0.229087
H36   H     H_    0.371786 0.968405 0.539052 0.131555
H37   H     H_    0.685479 0.099835 0.464514 0.117779
H38   H     H_    0.871808 0.468283 0.539060 0.131728
H39   H     H_    0.185507 0.599857 0.464510 0.117586
H40   H     H_    0.829609 0.246541 0.474789 0.135345
N1    N     N_3   0.600041 0.302597 0.025779 -0.605804
N2    N     N_3   0.358108 0.044593 0.981368 -0.612700
N3    N     N_3   0.141579 0.544838 0.019439 -0.612259
N4    N     N_3   0.899795 0.802548 0.973596 -0.605520
O1    O     O_R   0.783230 0.287800 0.346510 -0.523333
O2    O     O_R   0.454570 0.285140 0.836900 -0.524781
O3    O     O_R   0.045430 0.785140 0.163100 -0.524197
O4    O     O_R   0.954570 0.785140 0.836900 -0.510202
O5    O     O_R   0.677850 0.374730 0.185500 -0.492046
O6    O     O_R   0.322150 0.374730 0.814500 -0.502877
O7    O     O_R   0.177850 0.874730 0.185500 -0.501503
O8    O     O_R   0.822150 0.874730 0.814500 -0.493274
O9    O     O_3   0.664630 0.164620 0.255130 -0.255244
O10   O     O_3   0.335370 0.164620 0.744870 -0.297271
O11   O     O_3   0.164630 0.664620 0.255130 -0.297777
O12   O     O_R   0.216770 0.287800 0.653490 -0.515926
O13   O     O_3   0.835370 0.664620 0.744870 -0.255331
O14   O     O_R   0.760130 0.037060 0.338610 -0.505828
O15   O     O_R   0.239870 0.037060 0.661390 -0.506392
O16   O     O_R   0.260130 0.537060 0.338610 -0.504239
O17   O     O_R   0.739870 0.537060 0.661390 -0.507982
O18   O     O_R   0.666620 0.921370 0.332440 -0.515928
O19   O     O_R   0.333380 0.921370 0.667560 -0.520069
O20   O     O_R   0.166620 0.421370 0.332440 -0.514941
O21   O     O_R   0.833380 0.421370 0.667560 -0.521155
O22   O     O_R   0.557170 0.082420 0.312350 -0.494704
O23   O     O_R   0.283230 0.787800 0.346510 -0.517035
O24   O     O_R   0.442830 0.082420 0.687650 -0.496447
O25   O     O_R   0.057170 0.582420 0.312350 -0.488692
O26   O     O_R   0.942830 0.582420 0.687650 -0.502370
O27   O     O_R   0.548310 0.285980 0.316250 -0.516578
O28   O     O_R   0.451690 0.285980 0.683750 -0.501335
O29   O     O_R   0.048310 0.785980 0.316250 -0.509435
O30   O     O_R   0.951690 0.785980 0.683750 -0.508516
O31   O     O_R   0.680520 0.375500 0.327470 -0.507128
O32   O     O_R   0.319480 0.375500 0.672530 -0.494603
O33   O     O_R   0.180520 0.875500 0.327470 -0.499239
O34   O     O_R   0.716770 0.787800 0.653490 -0.521862
O35   O     O_R   0.819480 0.875500 0.672530 -0.502101
O36   O     O_R   0.780350 0.286970 0.193350 -0.506201
O37   O     O_R   0.219650 0.286970 0.806650 -0.497223
O38   O     O_R   0.280350 0.786970 0.193350 -0.495896
O39   O     O_R   0.719650 0.786970 0.806650 -0.507337
O40   O     O_R   0.757460 0.036290 0.196640 -0.493310
O41   O     O_R   0.242540 0.036290 0.803360 -0.518441
O42   O     O_R   0.257460 0.536290 0.196640 -0.519885
O43   O     O_R   0.742540 0.536290 0.803360 -0.492071
O44   O     O_R   0.663740 0.920540 0.179290 -0.510153
O45   O     O_R   0.554500 0.081650 0.170370 -0.504671
O46   O     O_R   0.336260 0.920540 0.820710 -0.491158
O47   O     O_R   0.163740 0.420540 0.179290 -0.491703
O48   O     O_R   0.836260 0.420540 0.820710 -0.509018
O49   O     O_R   0.445500 0.081650 0.829630 -0.486379
O50   O     O_R   0.054500 0.581650 0.170370 -0.486626
O51   O     O_R   0.945500 0.581650 0.829630 -0.504270
O52   O     O_R   0.545430 0.285140 0.163100 -0.509745

loop_
_geom_bond_atom_site_label_1
_geom_bond_atom_site_label_2
_ccdc_geom_bond_type
C19   C56   S    
Cr1   O36   S    
C66   O31   A    
Cr2   O2    S    
C43   O26   A    
C8    C13   S    
C53   C58   S    
C87   C91   T    
Cr8   O45   S    
C14   C18   S    
C41   O28   A    
C35   C39   S    
C8    C96   S    
C13   H37   S    
C4    C8    S    
C35   C47   S    
C77   O50   A    
C12   O15   A    
Cr11  O13   S    
H28   N1    S    
C47   H16   S    
C94   H19   S    
H30   N2    S    
C15   C19   S    
C29   H11   S    
C84   C90   T    
C30   C35   S    
C63   C81   S    
C50   C59   T    
C62   C80   S    
Cr5   O10   S    
C3    C69   S    
C96   H21   S    
C7    H25   S    
C3    C7    S    
C10   C15   S    
C78   H34   S    
Cr11  O48   S    
C31   N1    S    
C45   H1    S    
C9    C22   S    
C65   C83   S    
C20   C25   S    
C11   C25   S    
C42   O25   A    
Cr1   O14   S    
C14   H40   S    
C9    H38   S    
C30   C38   S    
C4    C78   S    
C11   C16   S    
C44   H14   S    
Cr5   O15   S    
C93   H18   S    
C13   C26   S    
C20   C67   S    
C48   H17   S    
C2    C68   S    
C95   H20   S    
Cr1   O40   S    
C23   O20   A    
Cr2   O6    S    
C29   C33   S    
C78   C96   S    
Cr6   O11   S    
C6    C94   S    
C31   C46   S    
Cr3   O3    S    
C21   C78   S    
C23   C24   S    
Cr1   O1    S    
C71   O40   A    
C66   C89   S    
Cr4   O30   S    
C11   H36   S    
Cr10  O25   S    
C10   H39   S    
Cr4   O4    S    
C75   O45   A    
C79   O4    A    
C45   C93   S    
C31   C36   S    
C18   C22   S    
C55   C60   S    
C82   O38   A    
C67   C95   S    
C56   H12   S    
C15   H2    S    
Cr11  O51   S    
C2    C6    S    
Cr7   O34   S    
Cr7   O43   S    
C21   H8    S    
Cr9   O46   S    
Cr6   O42   S    
C18   H5    S    
C4    C70   S    
Cr2   O10   S    
C21   C26   S    
Cr5   O41   S    
C7    C11   S    
C12   O19   A    
C54   C59   S    
C68   O12   A    
C42   O29   A    
C26   C96   S    
C22   C34   S    
C67   H23   S    
C83   O8    A    
C27   C31   S    
C28   C32   S    
Cr4   O35   S    
C6    H24   S    
C33   N3    S    
C50   C73   S    
C91   C92   S    
C76   O49   A    
H31   N3    S    
Cr8   O22   S    
Cr12  O5    S    
Cr11  O21   S    
C19   H6    S    
C10   C24   S    
Cr6   O23   S    
Cr10  O11   S    
C41   C84   S    
C8    H26   S    
Cr9   O24   S    
C17   C21   S    
C49   C58   T    
Cr12  O27   S    
Cr4   O13   S    
C39   C79   S    
C40   C85   S    
C56   C94   S    
C9    C14   S    
C14   C89   S    
C5    C9    S    
C29   C30   S    
C36   C75   S    
C24   C94   S    
Cr10  O50   S    
C40   O27   A    
C53   C62   T    
Cr4   O8    S    
Cr9   O49   S    
C47   C48   S    
C30   H13   S    
C16   C20   S    
C64   C82   S    
C55   C64   T    
C29   C39   S    
Cr3   O7    S    
Cr8   O44   S    
C71   O44   A    
Cr8   O9    S    
C32   C37   S    
C57   C61   S    
C2    C15   S    
H32   N3    S    
C81   O37   A    
C38   C47   S    
H33   N4    S    
C34   O17   A    
C70   O35   A    
C2    C56   S    
Cr3   O11   S    
C4    C17   S    
H35   N4    S    
C41   O24   A    
C88   C90   S    
Cr7   O13   S    
Cr1   O9    S    
Cr11  O26   S    
C1    C26   S    
C22   C93   S    
C46   H15   S    
C36   C44   S    
Cr7   O39   S    
C35   N4    S    
Cr2   O28   S    
C17   H4    S    
C18   C45   S    
C69   O33   A    
C72   O41   A    
C45   C89   S    
Cr7   O17   S    
Cr8   O18   S    
C32   C44   S    
C85   C88   T    
C83   O39   A    
C74   O43   A    
C68   O32   A    
Cr6   O16   S    
C81   O6    A    
Cr9   O19   S    
Cr12  O31   S    
C49   C74   S    
C43   C86   S    
Cr10  O20   S    
C37   C76   S    
Cr5   O12   S    
C3    C67   S    
C1    O18   A    
C57   C65   T    
C39   C48   S    
C6    C10   S    
C20   H7    S    
C5    C93   S    
C75   O52   A    
C25   C95   S    
C51   C60   T    
C38   C77   S    
C66   O1    A    
C7    C95   S    
Cr12  O9    S    
C43   O30   A    
Cr5   O37   S    
C33   C38   S    
C51   C72   S    
C13   C17   S    
C12   C25   S    
C52   C61   T    
C79   O51   A    
C69   O23   A    
C19   C24   S    
Cr12  O52   S    
C34   O21   A    
C28   H10   S    
C77   O3    A    
C40   O22   A    
C82   O7    A    
C80   O5    A    
C74   O48   A    
C1    O14   A    
C27   C37   S    
C73   O47   A    
C76   O2    A    
Cr6   O38   S    
Cr3   O33   S    
Cr2   O32   S    
H29   N2    S    
Cr3   O29   S    
C70   O34   A    
C72   O46   A    
C23   O16   A    
C5    H22   S    
C32   N2    S    
C28   C36   S    
C54   C63   T    
C27   C28   S    
C52   C71   S    
C33   C48   S    
Cr9   O10   S    
H27   N1    S    
C86   C92   T    
C42   C87   S    
C27   H9    S    
C37   C46   S    
C73   O42   A    
C44   C46   S    
C5    C89   S    
C3    C16   S    
C16   H3    S    
Cr10  O47   S    
C80   O36   A    
