data_mof_unit_41948.cif
_audit_creation_date              2012-12-11T14:40:30-0500
_audit_creation_method            fapswitch 2.2
_symmetry_space_group_name_H-M    P1
_symmetry_Int_Tables_number       1
_space_group_crystal_system       triclinic
_cell_length_a                    19.770851
_cell_length_b                    10.996587
_cell_length_c                    19.468725
_cell_angle_alpha                 90.686922
_cell_angle_beta                  97.486487
_cell_angle_gamma                 90.310337
_cell_volume                      4196.24517486

loop_
_atom_site_label
_atom_site_type_symbol
_atom_type_description
_atom_site_fract_x
_atom_site_fract_y
_atom_site_fract_z
_atom_type_partial_charge
C1    C     C_R   0.725314 0.953361 0.360288 0.544678
C2    C     C_R   0.289640 0.989440 0.633590 0.526738
C3    C     C_R   0.225314 0.453362 0.360288 0.544739
C4    C     C_R   0.789640 0.489439 0.633590 0.526820
C5    C     C_3   0.776481 0.300460 0.490731 -0.110718
C6    C     C_3   0.278680 0.304846 0.512704 -0.114021
C7    C     C_3   0.276481 0.800460 0.490731 -0.110728
C8    C     C_3   0.778680 0.804844 0.512704 -0.114046
C9    C     C_3   0.746329 0.391170 0.435384 0.033890
C10   C     C_3   0.253680 0.394995 0.565336 0.039149
C11   C     C_3   0.246329 0.891170 0.435384 0.033866
C12   C     C_3   0.753681 0.894994 0.565336 0.039107
C13   C     C_3   0.690875 0.427766 0.480041 -0.120210
C14   C     C_3   0.284949 0.502382 0.531894 -0.132561
C15   C     C_3   0.190876 0.927766 0.480042 -0.120236
C16   C     C_3   0.784951 0.002380 0.531893 -0.132564
C17   C     C_3   0.739620 0.529867 0.510818 -0.174757
C18   C     C_3   0.215909 0.516477 0.484416 -0.145365
C19   C     C_3   0.239620 0.029867 0.510818 -0.174741
C20   C     C_3   0.715911 0.016477 0.484415 -0.145355
C21   C     C_3   0.795272 0.492109 0.465291 -0.143878
C22   C     C_3   0.184981 0.409244 0.519637 -0.128217
C23   C     C_3   0.295272 0.992109 0.465290 -0.143892
C24   C     C_3   0.684982 0.909245 0.519637 -0.128224
C25   C     C_3   0.824780 0.402526 0.520438 -0.000691
C26   C     C_3   0.209196 0.320382 0.466138 0.003336
C27   C     C_3   0.324781 0.902525 0.520438 -0.000650
C28   C     C_3   0.709196 0.820381 0.466138 0.003345
C29   C     C_3   0.771270 0.443115 0.565369 0.069442
C30   C     C_3   0.240557 0.426737 0.432128 0.077192
C31   C     C_3   0.271271 0.943115 0.565369 0.069521
C32   C     C_3   0.740557 0.926735 0.432127 0.077229
C33   C     C_3   0.489713 0.283457 0.981122 -0.098125
C34   C     C_3   0.442581 0.256188 0.036284 -0.122713
C35   C     C_3   0.949920 0.781530 0.987098 -0.114213
C36   C     C_3   0.924373 0.691778 0.038804 -0.136501
C37   C     C_3   0.543750 0.196099 0.015999 -0.107879
C38   C     C_3   0.409826 0.148090 0.991872 -0.143813
C39   C     C_3   0.024444 0.759302 0.018165 -0.102468
C40   C     C_3   0.929986 0.584884 0.987027 -0.129541
C41   C     C_3   0.496508 0.168998 0.070708 0.052252
C42   C     C_3   0.457538 0.175686 0.937763 0.046750
C43   C     C_3   0.998601 0.669531 0.069142 0.050023
C44   C     C_3   0.956222 0.675150 0.936922 0.049446
C45   C     C_R   0.534423 0.180183 0.337258 0.543737
C46   C     C_R   0.435874 0.182777 0.651791 0.538816
C47   C     C_R   0.034422 0.680183 0.337257 0.544955
C48   C     C_R   0.935875 0.682777 0.651791 0.538497
C49   C     C_3   0.464473 0.060598 0.027925 -0.117870
C50   C     C_3   0.511398 0.088163 0.972237 -0.105066
C51   C     C_3   0.004845 0.562896 0.018969 -0.116288
C52   C     C_3   0.030319 0.652833 0.967500 -0.106954
C53   C     C_1   0.762184 0.424945 0.903632 -0.010470
C54   C     C_1   0.217255 0.476407 0.085124 -0.010989
C55   C     C_1   0.262783 0.925960 0.904019 -0.006688
C56   C     C_1   0.717243 0.976474 0.085115 -0.009994
C57   C     C_1   0.747020 0.405286 0.034176 -0.047159
C58   C     C_1   0.241458 0.439889 0.957898 -0.043329
C59   C     C_1   0.247627 0.906459 0.034555 -0.048705
C60   C     C_1   0.741450 0.939973 0.957884 -0.043684
C61   C     C_1   0.753470 0.413680 0.963233 -0.048796
C62   C     C_1   0.228368 0.461259 0.026340 -0.049014
C63   C     C_1   0.254251 0.914947 0.963672 -0.047680
C64   C     C_1   0.728357 0.961349 0.026328 -0.047875
C65   C     C_1   0.742399 0.391977 0.094620 -0.006820
C66   C     C_1   0.252149 0.412276 0.900353 -0.006204
C67   C     C_1   0.242731 0.892804 0.094903 -0.008112
C68   C     C_1   0.752142 0.912332 0.900341 -0.008413
C69   C     C_R   0.737617 0.356179 0.363687 0.542301
C70   C     C_R   0.260749 0.362443 0.637891 0.533287
C71   C     C_R   0.237617 0.856178 0.363687 0.542352
C72   C     C_R   0.760749 0.862443 0.637891 0.533537
C73   C     C_R   0.704546 0.997592 0.154926 0.562245
C74   C     C_R   0.278282 0.953586 0.836258 0.540891
C75   C     C_R   0.204552 0.497570 0.154925 0.562219
C76   C     C_R   0.778128 0.453271 0.836103 0.539717
C77   C     C_R   0.528492 0.178038 0.142077 0.540974
C78   C     C_R   0.437214 0.182981 0.863123 0.566534
C79   C     C_R   0.029895 0.678208 0.140996 0.543370
C80   C     C_R   0.936058 0.683018 0.862614 0.564183
C81   C     C_R   0.735604 0.358519 0.164088 0.538032
C82   C     C_R   0.263612 0.362482 0.834747 0.542626
C83   C     C_R   0.235681 0.858752 0.164200 0.538772
C84   C     C_R   0.763609 0.862497 0.834743 0.542851
C85   C     C_1   0.453191 0.173524 0.582613 -0.060451
C86   C     C_1   0.504090 0.171754 0.400046 -0.032784
C87   C     C_1   0.953192 0.673524 0.582614 -0.060325
C88   C     C_1   0.004090 0.671753 0.400046 -0.033092
C89   C     C_1   0.484727 0.167303 0.456145 -0.088339
C90   C     C_1   0.466864 0.167281 0.524091 -0.094456
C91   C     C_1   0.984729 0.667302 0.456146 -0.088390
C92   C     C_1   0.966866 0.667280 0.524091 -0.094420
C93   C     C_3   0.722726 0.341529 0.537023 0.022562
C94   C     C_3   0.308611 0.414018 0.477997 -0.008858
C95   C     C_3   0.222726 0.841529 0.537023 0.022613
C96   C     C_3   0.808612 0.914014 0.477996 -0.008881
Cr1   Cr    Cr6+3 0.765830 0.160660 0.268180 1.000460
Cr2   Cr    Cr6+3 0.234170 0.160660 0.731820 0.994687
Cr3   Cr    Cr6+3 0.265830 0.660660 0.268180 0.999506
Cr4   Cr    Cr6+3 0.734170 0.660660 0.731820 0.994661
Cr5   Cr    Cr6+3 0.612110 0.009150 0.248770 0.995620
Cr6   Cr    Cr6+3 0.387890 0.009150 0.751230 1.005559
Cr7   Cr    Cr6+3 0.112110 0.509150 0.248770 0.995772
Cr8   Cr    Cr6+3 0.887890 0.509150 0.751230 1.005978
Cr9   Cr    Cr6+3 0.615930 0.324050 0.248450 0.984563
Cr10  Cr    Cr6+3 0.384070 0.324050 0.751550 1.007978
Cr11  Cr    Cr6+3 0.115930 0.824050 0.248450 0.984042
Cr12  Cr    Cr6+3 0.884070 0.824050 0.751550 1.007719
H1    H     H_    0.794467 0.210856 0.475384 0.119323
H2    H     H_    0.311731 0.226095 0.527610 0.090971
H3    H     H_    0.294468 0.710855 0.475383 0.119346
H4    H     H_    0.811731 0.726093 0.527610 0.090983
H5    H     H_    0.636275 0.438558 0.459432 0.115300
H6    H     H_    0.315739 0.573736 0.562569 0.106003
H7    H     H_    0.136275 0.938558 0.459434 0.115260
H8    H     H_    0.815742 0.073733 0.562567 0.106083
H9    H     H_    0.219628 0.113087 0.532039 0.136450
H10   H     H_    0.687702 0.100214 0.467531 0.116645
H11   H     H_    0.719627 0.613086 0.532039 0.136443
H12   H     H_    0.187700 0.600214 0.467532 0.116597
H13   H     H_    0.824419 0.553390 0.434793 0.109094
H14   H     H_    0.135345 0.413261 0.539668 0.115047
H15   H     H_    0.324419 0.053389 0.434793 0.109052
H16   H     H_    0.635346 0.913264 0.539668 0.115047
H17   H     H_    0.599341 0.215593 0.027043 0.115587
H18   H     H_    0.354312 0.129192 0.979992 0.115164
H19   H     H_    0.063852 0.831207 0.031438 0.136474
H20   H     H_    0.891192 0.512900 0.972283 0.128882
H21   H     H_    0.500445 0.375112 0.961626 0.140812
H22   H     H_    0.414468 0.324246 0.063977 0.128582
H23   H     H_    0.927216 0.871252 0.972534 0.130919
H24   H     H_    0.881531 0.707000 0.069451 0.121921
H25   H     H_    0.454212 0.969826 0.048816 0.127488
H26   H     H_    0.539800 0.020081 0.944869 0.135221
H27   H     H_    0.027518 0.473158 0.033505 0.131518
H28   H     H_    0.073321 0.637507 0.937054 0.130878
O1    O     O_R   0.783230 0.287800 0.346510 -0.533094
O2    O     O_R   0.216770 0.287800 0.653490 -0.528241
O3    O     O_R   0.283230 0.787800 0.346510 -0.533236
O4    O     O_R   0.716770 0.787800 0.653490 -0.528348
O5    O     O_R   0.554500 0.081650 0.170370 -0.518068
O6    O     O_R   0.445500 0.081650 0.829630 -0.490353
O7    O     O_R   0.054500 0.581650 0.170370 -0.518783
O8    O     O_R   0.945500 0.581650 0.829630 -0.488102
O9    O     O_R   0.545430 0.285140 0.163100 -0.513320
O10   O     O_R   0.454570 0.285140 0.836900 -0.509178
O11   O     O_R   0.045430 0.785140 0.163100 -0.515853
O12   O     O_R   0.954570 0.785140 0.836900 -0.505129
O13   O     O_R   0.677850 0.374730 0.185500 -0.502837
O14   O     O_R   0.322150 0.374730 0.814500 -0.509373
O15   O     O_R   0.177850 0.874730 0.185500 -0.505645
O16   O     O_R   0.822150 0.874730 0.814500 -0.512602
O17   O     O_3   0.664630 0.164620 0.255130 -0.270002
O18   O     O_3   0.335370 0.164620 0.744870 -0.305190
O19   O     O_3   0.164630 0.664620 0.255130 -0.269561
O20   O     O_3   0.835370 0.664620 0.744870 -0.306438
O21   O     O_R   0.760130 0.037060 0.338610 -0.518326
O22   O     O_R   0.239870 0.037060 0.661390 -0.515535
O23   O     O_R   0.260130 0.537060 0.338610 -0.518383
O24   O     O_R   0.739870 0.537060 0.661390 -0.515597
O25   O     O_R   0.666620 0.921370 0.332440 -0.527195
O26   O     O_R   0.333380 0.921370 0.667560 -0.541138
O27   O     O_R   0.166620 0.421370 0.332440 -0.527046
O28   O     O_R   0.833380 0.421370 0.667560 -0.540693
O29   O     O_R   0.557170 0.082420 0.312350 -0.496914
O30   O     O_R   0.442830 0.082420 0.687650 -0.506390
O31   O     O_R   0.057170 0.582420 0.312350 -0.495979
O32   O     O_R   0.942830 0.582420 0.687650 -0.506420
O33   O     O_R   0.548310 0.285980 0.316250 -0.527029
O34   O     O_R   0.451690 0.285980 0.683750 -0.502948
O35   O     O_R   0.048310 0.785980 0.316250 -0.525936
O36   O     O_R   0.951690 0.785980 0.683750 -0.503123
O37   O     O_R   0.680520 0.375500 0.327470 -0.512797
O38   O     O_R   0.319480 0.375500 0.672530 -0.514609
O39   O     O_R   0.180520 0.875500 0.327470 -0.512681
O40   O     O_R   0.819480 0.875500 0.672530 -0.514291
O41   O     O_R   0.780350 0.286970 0.193350 -0.512744
O42   O     O_R   0.219650 0.286970 0.806650 -0.502225
O43   O     O_R   0.280350 0.786970 0.193350 -0.513025
O44   O     O_R   0.719650 0.786970 0.806650 -0.501502
O45   O     O_R   0.757460 0.036290 0.196640 -0.492801
O46   O     O_R   0.242540 0.036290 0.803360 -0.494536
O47   O     O_R   0.257460 0.536290 0.196640 -0.492969
O48   O     O_R   0.742540 0.536290 0.803360 -0.492741
O49   O     O_R   0.663740 0.920540 0.179290 -0.510992
O50   O     O_R   0.336260 0.920540 0.820710 -0.508676
O51   O     O_R   0.163740 0.420540 0.179290 -0.513714
O52   O     O_R   0.836260 0.420540 0.820710 -0.512458
C97   C     C_3   0.687383 0.267474 0.588902 -0.247796
C98   C     C_3   0.611609 0.296524 0.586564 -0.299026
C99   C     C_3   0.597998 0.420368 0.618107 -0.393967
H29   H     H_    0.621158 0.425279 0.673185 0.183200
H30   H     H_    0.618379 0.494969 0.588771 0.161619
H31   H     H_    0.542099 0.433330 0.615838 0.148180
H32   H     H_    0.586960 0.292405 0.532161 0.168481
H33   H     H_    0.588368 0.225677 0.616387 0.175398
H34   H     H_    0.692083 0.169699 0.578207 0.119888
H35   H     H_    0.713508 0.281605 0.642462 0.173307
C100  C     C_3   0.379438 0.409740 0.455204 -0.255440
C101  C     C_3   0.406636 0.534909 0.439669 -0.306021
C102  C     C_3   0.477856 0.525873 0.417948 -0.458703
H36   H     H_    0.514104 0.488061 0.460662 0.148817
H37   H     H_    0.476764 0.466763 0.371179 0.181383
H38   H     H_    0.495923 0.617604 0.405327 0.133489
H39   H     H_    0.372676 0.579548 0.397952 0.204100
H40   H     H_    0.409156 0.591311 0.487447 0.154284
H41   H     H_    0.414244 0.374098 0.499135 0.165101
H42   H     H_    0.378433 0.347817 0.409557 0.148245
C103  C     C_3   0.187384 0.767474 0.588903 -0.247871
C104  C     C_3   0.111609 0.796522 0.586564 -0.299147
C105  C     C_3   0.097998 0.920365 0.618107 -0.393875
H43   H     H_    0.121157 0.925276 0.673186 0.183202
H44   H     H_    0.118378 0.994966 0.588772 0.161659
H45   H     H_    0.042099 0.933326 0.615838 0.148317
H46   H     H_    0.086961 0.792403 0.532162 0.168500
H47   H     H_    0.088369 0.725674 0.616387 0.175264
H48   H     H_    0.192084 0.669699 0.578208 0.119873
H49   H     H_    0.213508 0.781607 0.642463 0.173125
C106  C     C_3   0.879438 0.909733 0.455201 -0.255476
C107  C     C_3   0.906637 0.034896 0.439661 -0.306047
C108  C     C_3   0.977852 0.025869 0.417942 -0.458642
H50   H     H_    0.014090 0.988066 0.460646 0.148734
H51   H     H_    0.976759 0.966777 0.371186 0.181715
H52   H     H_    0.995926 0.117587 0.405324 0.133587
H53   H     H_    0.872683 0.079516 0.397946 0.204224
H54   H     H_    0.909156 0.091299 0.487427 0.154288
H55   H     H_    0.914244 0.874096 0.499132 0.165113
H56   H     H_    0.878431 0.847807 0.409557 0.148356
C109  C     C_3   0.897875 0.371518 0.549045 -0.241218
C110  C     C_3   0.942555 0.346855 0.492680 -0.313783
C111  C     C_3   0.009373 0.291929 0.525451 -0.458722
H57   H     H_    0.043519 0.281897 0.485704 0.132823
H58   H     H_    0.033762 0.351899 0.567962 0.163730
H59   H     H_    0.000881 0.201028 0.547098 0.148899
H60   H     H_    0.916616 0.284923 0.452228 0.172054
H61   H     H_    0.953087 0.432583 0.466801 0.182095
H62   H     H_    0.920697 0.446024 0.582583 0.180674
H63   H     H_    0.896244 0.289466 0.581713 0.157438
C112  C     C_3   0.155978 0.234614 0.424021 -0.244765
C113  C     C_3   0.180644 0.171195 0.360719 -0.267755
C114  C     C_3   0.121216 0.137272 0.305432 -0.391882
H64   H     H_    0.086029 0.073207 0.326861 0.147432
H65   H     H_    0.092694 0.219628 0.286553 0.157880
H66   H     H_    0.140988 0.092543 0.260729 0.165759
H67   H     H_    0.218662 0.224701 0.336821 0.169634
H68   H     H_    0.207215 0.088570 0.376704 0.164723
H69   H     H_    0.135258 0.166967 0.457393 0.110284
H70   H     H_    0.111390 0.291490 0.405266 0.170807
C115  C     C_3   0.397875 0.871517 0.549045 -0.241224
C116  C     C_3   0.442555 0.846855 0.492679 -0.313776
C117  C     C_3   0.509375 0.791934 0.525450 -0.458780
H71   H     H_    0.533762 0.851905 0.567962 0.163646
H72   H     H_    0.500885 0.701030 0.547096 0.148819
H73   H     H_    0.543521 0.781908 0.485704 0.132837
H74   H     H_    0.416615 0.784919 0.452227 0.171994
H75   H     H_    0.453085 0.932584 0.466799 0.182051
H76   H     H_    0.420698 0.946023 0.582582 0.180640
H77   H     H_    0.396245 0.789465 0.581712 0.157320
C118  C     C_3   0.655977 0.734615 0.424022 -0.244726
C119  C     C_3   0.680642 0.671194 0.360719 -0.267693
C120  C     C_3   0.621212 0.637267 0.305435 -0.392091
H78   H     H_    0.586027 0.573200 0.326867 0.147237
H79   H     H_    0.592687 0.719621 0.286558 0.157612
H80   H     H_    0.640982 0.592539 0.260731 0.165973
H81   H     H_    0.718657 0.724701 0.336818 0.169580
H82   H     H_    0.707214 0.588571 0.376704 0.164719
H83   H     H_    0.635257 0.666969 0.457394 0.110277
H84   H     H_    0.611390 0.791492 0.405266 0.170780

loop_
_geom_bond_atom_site_label_1
_geom_bond_atom_site_label_2
_ccdc_geom_bond_type
C97   H35   S    
C58   C62   S    
Cr9   O17   S    
Cr2   O18   S    
C67   C83   S    
C98   C99   S    
Cr10  O14   S    
Cr3   O23   S    
C17   C29   S    
C102  H36   S    
C14   C18   S    
C19   C23   S    
C35   C36   S    
C8    C96   S    
C115  H77   S    
C75   O47   A    
C2    O26   A    
C20   H10   S    
C45   O29   A    
C117  H71   S    
C38   C49   S    
Cr11  O35   S    
C10   C22   S    
C15   C19   S    
C25   C109  S    
C115  C116  S    
C101  H39   S    
C27   C115  S    
Cr9   O33   S    
Cr2   O2    S    
C37   C41   S    
C73   O49   A    
C33   C42   S    
C9    C69   S    
C38   C42   S    
C108  H52   S    
C1    O21   A    
C36   H24   S    
C104  C105  S    
C15   C95   S    
C120  H78   S    
C11   C71   S    
C117  H72   S    
Cr8   O32   S    
C4    O28   A    
C109  H63   S    
C71   O3    A    
C43   C79   S    
C104  H46   S    
C40   H20   S    
C24   H16   S    
C7    C27   S    
C112  H69   S    
C94   C100  S    
C41   C49   S    
C57   C61   S    
C84   O44   A    
C9    C13   S    
C100  H42   S    
C34   H22   S    
C49   H25   S    
C118  H84   S    
Cr4   O4    S    
C59   C67   T    
C48   O36   A    
C55   C74   S    
C51   H27   S    
C26   C112  S    
C58   C66   T    
C79   O7    A    
C112  C113  S    
C7    H3    S    
C101  C102  S    
C6    C94   S    
C55   C63   T    
C56   C64   T    
C110  H61   S    
C9    C21   S    
C18   C30   S    
Cr1   O17   S    
C106  H56   S    
Cr2   O42   S    
Cr10  O18   S    
C73   O45   A    
Cr6   O18   S    
C40   C44   S    
C37   H17   S    
C4    C29   S    
C76   O52   A    
Cr6   O6    S    
C98   H33   S    
C46   C85   S    
Cr11  O15   S    
C5    C93   S    
C44   C52   S    
C72   O40   A    
C39   C52   S    
C12   C72   S    
C19   C31   S    
C100  C101  S    
Cr6   O30   S    
Cr12  O16   S    
C87   C92   T    
C25   C29   S    
C102  H37   S    
Cr3   O3    S    
C97   C98   S    
C34   C41   S    
C53   C61   T    
Cr5   O49   S    
C16   H8    S    
C28   C32   S    
Cr1   O1    S    
C107  C108  S    
C38   H18   S    
C22   H14   S    
C83   O15   A    
C23   C27   S    
C40   C51   S    
C69   O1    A    
Cr8   O52   S    
C16   C96   S    
C39   H19   S    
Cr10  O34   S    
C27   C31   S    
C99   H29   S    
C95   C103  S    
C12   C16   S    
C44   C80   S    
Cr7   O51   S    
C103  C104  S    
C50   H26   S    
C57   C65   T    
C106  C107  S    
C120  H79   S    
C29   C93   S    
C117  H73   S    
C23   H15   S    
C54   C62   T    
C80   O8    A    
Cr11  O11   S    
C14   H6    S    
C78   O6    A    
C113  H68   S    
C69   O37   A    
C33   C37   S    
C46   O34   A    
Cr3   O19   S    
C112  H70   S    
C114  H65   S    
C68   C84   S    
C6    H2    S    
C3    C30   S    
C35   C39   S    
Cr5   O25   S    
C99   H30   S    
Cr3   O43   S    
C109  C110  S    
C66   C82   S    
C108  H50   S    
C47   O31   A    
Cr4   O24   S    
Cr1   O41   S    
C105  H43   S    
Cr12  O20   S    
C88   C91   T    
C36   C40   S    
C16   C20   S    
C28   C118  S    
Cr9   O9    S    
C82   O42   A    
Cr7   O27   S    
C100  H41   S    
C33   C34   S    
Cr10  O38   S    
C48   C87   S    
C107  H54   S    
C110  H60   S    
C111  H58   S    
Cr12  O12   S    
Cr6   O50   S    
Cr7   O31   S    
Cr8   O20   S    
Cr5   O29   S    
C35   C44   S    
C70   O38   A    
C60   C68   T    
C82   O14   A    
C98   H32   S    
C42   C50   S    
C79   O11   A    
C10   C70   S    
Cr7   O19   S    
C105  H44   S    
C13   H5    S    
C80   O12   A    
C70   O2    A    
C11   C15   S    
Cr12  O36   S    
C10   C14   S    
C113  H67   S    
C52   H28   S    
C102  H38   S    
C15   H7    S    
C53   C76   S    
C103  H49   S    
Cr5   O17   S    
C119  H82   S    
C118  C119  S    
Cr4   O44   S    
C18   H12   S    
C91   C92   S    
C19   H9    S    
Cr9   O13   S    
Cr6   O26   S    
C5    C25   S    
C42   C78   S    
C20   C32   S    
C97   H34   S    
C116  H74   S    
C104  H47   S    
C21   C25   S    
C33   H21   S    
Cr5   O5    S    
C101  H40   S    
C56   C73   S    
C46   O30   A    
C116  H75   S    
C32   C96   S    
C34   C38   S    
Cr3   O47   S    
C84   O16   A    
C75   O51   A    
C24   C28   S    
C115  H76   S    
C119  C120  S    
C86   C89   T    
Cr7   O7    S    
C6    C10   S    
C120  H80   S    
C47   O35   A    
C85   C90   T    
Cr1   O45   S    
C6    C26   S    
C74   O46   A    
C93   C97   S    
Cr2   O46   S    
C96   C106  S    
C7    C95   S    
C12   C24   S    
C59   C63   S    
C83   O43   A    
Cr10  O10   S    
C13   C17   S    
C60   C64   S    
C114  H66   S    
C103  H48   S    
C3    O27   A    
C20   C24   S    
C18   C22   S    
C45   C86   S    
C116  C117  S    
C35   H23   S    
C81   O41   A    
C51   C52   S    
C30   C94   S    
C47   C88   S    
C17   H11   S    
C41   C77   S    
C37   C50   S    
Cr4   O20   S    
Cr8   O28   S    
C4    O24   A    
C77   O9    A    
Cr11  O39   S    
C43   C51   S    
C114  H64   S    
C81   O13   A    
Cr12  O40   S    
C11   C23   S    
C113  C114  S    
C8    H4    S    
C71   O39   A    
C107  H53   S    
C111  H59   S    
C1    C32   S    
C21   H13   S    
C110  C111  S    
Cr4   O48   S    
C77   O5    A    
C99   H31   S    
C118  H83   S    
C31   C95   S    
C78   O10   A    
C3    O23   A    
C1    O25   A    
C54   C75   S    
C119  H81   S    
Cr2   O22   S    
C72   O4    A    
C105  H45   S    
C2    O22   A    
C39   C43   S    
C8    C28   S    
C108  H51   S    
C49   C50   S    
C22   C26   S    
C7    C11   S    
C13   C93   S    
C111  H57   S    
C65   C81   S    
C2    C31   S    
C36   C43   S    
Cr9   O37   S    
C5    C9    S    
C5    H1    S    
C106  H55   S    
C89   C90   S    
C76   O48   A    
Cr8   O8    S    
C109  H62   S    
C48   O32   A    
C14   C94   S    
Cr11  O19   S    
C45   O33   A    
C8    C12   S    
Cr1   O21   S    
C74   O50   A    
C26   C30   S    
C17   C21   S    
