data_mof_unit_64669.cif
_audit_creation_date              2012-12-10T18:16:56-0500
_audit_creation_method            fapswitch 2.2
_symmetry_space_group_name_H-M    P1
_symmetry_Int_Tables_number       1
_space_group_crystal_system       triclinic
_cell_length_a                    29.181063
_cell_length_b                    29.181498
_cell_length_c                    38.821814
_cell_angle_alpha                 89.972465
_cell_angle_beta                  89.980876
_cell_angle_gamma                 89.990998
_cell_volume                      33058.598288

loop_
_atom_site_label
_atom_site_type_symbol
_atom_type_description
_atom_site_fract_x
_atom_site_fract_y
_atom_site_fract_z
_atom_type_partial_charge
C1    C     C_R   0.500003 0.913187 0.000002 0.908500
C2    C     C_1   0.229420 0.499991 0.000010 0.023010
C3    C     C_R   0.999514 0.499887 0.894294 -0.222053
C4    C     C_R   0.000345 0.498736 0.605704 -0.267448
C5    C     C_R   0.498355 0.999666 0.605752 -0.268686
C6    C     C_R   0.000023 0.499999 0.394317 -0.222933
C7    C     C_R   0.500455 0.000184 0.394292 -0.222338
C8    C     C_R   0.499334 0.003366 0.284654 0.418179
C9    C     C_R   0.000038 0.499970 0.284693 0.409488
C10   C     C_R   0.494305 0.999582 0.715334 0.336742
C11   C     C_R   0.001971 0.494159 0.715256 0.329649
C12   C     C_R   0.000573 0.496809 0.784659 0.418197
C13   C     C_1   0.499991 0.229420 0.000018 0.023460
C14   C     C_R   0.498917 0.002162 0.784627 0.338616
C15   C     C_R   0.000021 0.499953 0.215252 0.413213
C16   C     C_R   0.497927 0.005999 0.215249 0.329624
C17   C     C_1   0.500008 0.862553 0.999999 -0.194467
C18   C     C_1   0.137446 0.499991 0.000002 -0.191984
C19   C     C_1   0.499991 0.137446 0.000007 -0.194628
C20   C     C_1   0.862554 0.500008 0.999991 -0.190991
C21   C     C_1   0.000009 0.362554 0.499997 -0.193605
C22   C     C_1   0.637446 0.999993 0.499990 -0.192213
C23   C     C_1   0.999990 0.637447 0.500000 -0.192453
C24   C     C_1   0.770580 0.500007 0.999982 0.023639
C25   C     C_1   0.362554 0.000009 0.499995 -0.193943
C26   C     C_1   0.500009 0.820370 0.999994 0.022441
C27   C     C_1   0.179628 0.499990 0.000005 0.021939
C28   C     C_1   0.499990 0.179628 0.000013 0.022264
C29   C     C_1   0.820372 0.500008 0.999986 0.022597
C30   C     C_1   0.000010 0.320372 0.499991 0.022374
C31   C     C_1   0.679628 0.999994 0.499991 0.022406
C32   C     C_1   0.999988 0.679629 0.500004 0.022232
C33   C     C_1   0.320372 0.000010 0.499990 0.022061
C34   C     C_1   0.443434 0.937673 0.106147 0.192108
C35   C     C_1   0.000009 0.270579 0.499985 0.023660
C36   C     C_1   0.063775 0.443845 0.104797 0.192821
C37   C     C_1   0.556258 0.065050 0.104248 0.313645
C38   C     C_1   0.936189 0.556054 0.104819 0.193147
C39   C     C_1   0.443301 0.064215 0.895660 0.194083
C40   C     C_1   0.064866 0.554076 0.894678 0.190819
C41   C     C_1   0.558950 0.939271 0.893689 0.314523
C42   C     C_1   0.933783 0.446165 0.895765 0.190258
C43   C     C_1   0.943662 0.435022 0.604343 0.313796
C44   C     C_1   0.560552 0.941863 0.606463 0.193218
C45   C     C_1   0.056518 0.562372 0.606058 0.192150
C46   C     C_1   0.729421 0.999996 0.499996 0.023397
C47   C     C_1   0.435942 0.057830 0.604149 0.314984
C48   C     C_1   0.944236 0.564060 0.395179 0.192713
C49   C     C_1   0.566149 0.053950 0.395697 0.190147
C50   C     C_1   0.055810 0.435938 0.395225 0.192913
C51   C     C_1   0.435135 0.945955 0.394739 0.191019
C52   C     C_1   0.999989 0.729421 0.500011 0.023225
C53   C     C_1   0.270580 0.000009 0.499986 0.023332
C54   C     C_1   0.500006 0.728395 0.999983 0.021151
C55   C     C_1   0.271604 0.499993 0.000013 0.020530
C56   C     C_1   0.499993 0.271604 0.000022 0.020889
C57   C     C_R   0.086812 0.499997 0.999999 0.911116
C58   C     C_1   0.728396 0.500005 0.999981 0.021187
C59   C     C_1   0.000007 0.228396 0.499980 0.021105
C60   C     C_1   0.771604 0.999997 0.500003 0.020900
C61   C     C_1   0.999991 0.771604 0.500017 0.020679
C62   C     C_1   0.228396 0.000007 0.499984 0.020774
C63   C     C_1   0.500004 0.678601 0.999979 0.016417
C64   C     C_1   0.321398 0.499995 0.000015 0.015869
C65   C     C_1   0.499996 0.321398 0.000024 0.016220
C66   C     C_1   0.678602 0.500003 0.999981 0.016484
C67   C     C_1   0.000004 0.178602 0.499977 0.016373
C68   C     C_R   0.499997 0.086812 0.000001 0.908802
C69   C     C_1   0.821399 0.999998 0.500010 0.016240
C70   C     C_1   0.999994 0.821399 0.500021 0.015999
C71   C     C_1   0.178602 0.000004 0.499983 0.016058
C72   C     C_1   0.500002 0.636416 0.999980 -0.189363
C73   C     C_1   0.363583 0.499998 0.000014 -0.189758
C74   C     C_1   0.499998 0.363583 0.000021 -0.189509
C75   C     C_1   0.636417 0.500001 0.999985 -0.189231
C76   C     C_1   0.000002 0.136417 0.499980 -0.189414
C77   C     C_1   0.863584 0.999999 0.500012 -0.189471
C78   C     C_1   0.999997 0.863584 0.500020 -0.189704
C79   C     C_R   0.913188 0.500003 0.999999 0.911127
C80   C     C_1   0.136416 0.000002 0.499985 -0.189677
C81   C     C_R   0.414227 0.500000 0.000005 0.877907
C82   C     C_R   0.500000 0.414227 0.000007 0.877996
C83   C     C_R   0.585773 0.500000 0.999995 0.878155
C84   C     C_R   0.500000 0.585773 0.999993 0.878042
C85   C     C_R   0.914227 0.000000 0.500005 0.878136
C86   C     C_R   1.000000 0.914227 0.500007 0.877998
C87   C     C_R   0.085773 1.000000 0.499995 0.878016
C88   C     C_R   0.000000 0.085773 0.499993 0.878134
C89   C     C_R   0.499964 0.999805 0.068006 0.939457
C90   C     C_R   0.000003 0.413188 0.500003 0.907218
C91   C     C_R   0.999999 0.499989 0.067987 0.949687
C92   C     C_R   0.500026 0.000024 0.931978 0.938488
C93   C     C_R   0.999877 0.500000 0.932009 0.950100
C94   C     C_R   0.000021 0.500192 0.568006 0.938878
C95   C     C_R   0.500080 0.999965 0.568026 0.937931
C96   C     C_R   0.000007 0.500001 0.432015 0.950533
C97   C     C_R   0.500123 0.000021 0.432008 0.950627
C98   C     C_R   0.470302 0.971815 0.124305 -0.136133
C99   C     C_R   0.030645 0.471156 0.123662 -0.138592
C100  C     C_R   0.527443 0.033272 0.123090 -0.082111
C101  C     C_R   0.586812 0.999997 0.499993 0.912274
C102  C     C_R   0.969354 0.528765 0.123670 -0.138756
C103  C     C_R   0.471467 0.032138 0.876502 -0.134382
C104  C     C_R   0.031118 0.527287 0.876044 -0.140036
C105  C     C_R   0.529933 0.971928 0.875908 -0.083006
C106  C     C_R   0.967792 0.471998 0.876598 -0.136366
C107  C     C_R   0.972478 0.466809 0.623139 -0.082121
C108  C     C_R   0.527048 0.969708 0.624482 -0.133843
C109  C     C_R   0.029644 0.528243 0.624263 -0.136067
C110  C     C_R   0.467089 0.028427 0.623064 -0.081989
C111  C     C_R   0.971413 0.530804 0.376334 -0.139598
C112  C     C_R   0.999996 0.586812 0.499996 0.912061
C113  C     C_R   0.532140 0.028119 0.376564 -0.136392
C114  C     C_R   0.028642 0.469187 0.376356 -0.139531
C115  C     C_R   0.468852 0.972787 0.376072 -0.140043
C116  C     C_R   0.469051 0.974290 0.160603 0.416814
C117  C     C_R   0.030308 0.470769 0.159970 0.369684
C118  C     C_R   0.525787 0.036489 0.158949 0.368426
C119  C     C_R   0.969710 0.529142 0.159975 0.369675
C120  C     C_R   0.471567 0.032773 0.840134 0.413606
C121  C     C_R   0.030909 0.526920 0.839719 0.372337
C122  C     C_R   0.531547 0.973681 0.840001 0.369090
C123  C     C_R   0.413188 0.000003 0.500000 0.907319
C124  C     C_R   0.968364 0.470670 0.840293 0.368836
C125  C     C_R   0.974104 0.463637 0.659002 0.368494
C126  C     C_R   0.524578 0.968842 0.660793 0.414176
C127  C     C_R   0.030875 0.525805 0.660563 0.416860
C128  C     C_R   0.464004 0.027296 0.658948 0.368839
C129  C     C_R   0.970835 0.530277 0.340033 0.371024
C130  C     C_R   0.531537 0.029491 0.340260 0.368825
C131  C     C_R   0.029232 0.469696 0.340054 0.370886
C132  C     C_R   0.469034 0.973197 0.339747 0.372228
C133  C     C_R   0.497144 0.006271 0.177651 -0.112499
C134  C     C_1   0.500008 0.770578 0.999988 0.023764
C135  C     C_R   0.000007 0.499948 0.177636 -0.043912
C136  C     C_R   0.501455 0.003410 0.822176 -0.114999
C137  C     C_R   0.999872 0.498223 0.822310 -0.047631
C138  C     C_R   0.002753 0.493861 0.677658 -0.112478
C139  C     C_R   0.493530 0.998079 0.677749 -0.114585
C140  C     C_R   0.000035 0.499981 0.322346 -0.045192
C141  C     C_R   0.500042 0.001931 0.322307 -0.047610
C142  C     C_R   0.499607 0.001307 0.105703 -0.267675
C143  C     C_R   0.999998 0.499967 0.105691 -0.223049
C144  C     C_R   0.500222 0.001173 0.894246 -0.268561
H1    H     H_    0.422145 0.926241 0.165927 0.348344
H2    H     H_    0.570862 0.920239 0.666299 0.348486
H3    H     H_    0.077875 0.573764 0.665813 0.348374
H4    H     H_    0.424191 0.042505 0.697802 0.349110
H5    H     H_    0.920480 0.574890 0.335809 0.351988
H6    H     H_    0.578451 0.077779 0.336513 0.352147
H7    H     H_    0.079600 0.425096 0.335859 0.351856
H8    H     H_    0.422523 0.924701 0.335028 0.351973
H9    H     H_    0.076738 0.422144 0.164376 0.352222
H10   H     H_    0.539065 0.077234 0.197613 0.347421
H11   H     H_    0.923471 0.577934 0.164394 0.352303
H12   H     H_    0.420843 0.076999 0.836205 0.347892
H13   H     H_    0.077432 0.575407 0.834952 0.352022
H14   H     H_    0.569836 0.958847 0.800272 0.350659
H15   H     H_    0.921380 0.422450 0.836592 0.352165
H16   H     H_    0.960772 0.422948 0.697725 0.347484
N1    N     N_R   0.538269 0.002260 0.232306 -0.144364
N2    N     N_R   0.499972 0.040077 0.731888 -0.143925
N3    N     N_R   0.961634 0.497939 0.732331 -0.144294
N4    N     N_R   0.490893 0.960412 0.733922 -0.099371
N5    N     N_R   0.999193 0.459885 0.267083 -0.105697
N6    N     N_R   0.459002 0.007039 0.267556 -0.106656
N7    N     N_R   0.000878 0.540046 0.267042 -0.105850
N8    N     N_R   0.538961 0.001038 0.266500 -0.106208
N9    N     N_1   0.422056 0.910435 0.091622 -0.183844
N10   N     N_1   0.090207 0.422117 0.089714 -0.183892
N11   N     N_1   0.579231 0.090447 0.089198 -0.179928
N12   N     N_R   0.000851 0.540041 0.232845 -0.109654
N13   N     N_1   0.909727 0.577764 0.089748 -0.183406
N14   N     N_1   0.420885 0.089820 0.910977 -0.183770
N15   N     N_1   0.091790 0.575387 0.909586 -0.183721
N16   N     N_1   0.582089 0.913173 0.907890 -0.179468
N17   N     N_1   0.906654 0.425621 0.911094 -0.184521
N18   N     N_1   0.920686 0.409618 0.589331 -0.179869
N19   N     N_1   0.587287 0.919702 0.592054 -0.183558
N20   N     N_1   0.077900 0.589599 0.591495 -0.183932
N21   N     N_1   0.411043 0.081277 0.589046 -0.179855
N22   N     N_1   0.922617 0.590596 0.410245 -0.183311
N23   N     N_R   0.458298 0.008284 0.233367 -0.098743
N24   N     N_1   0.593279 0.074493 0.410997 -0.184381
N25   N     N_1   0.077422 0.409407 0.410311 -0.183512
N26   N     N_1   0.408234 0.924608 0.409669 -0.183639
N27   N     N_R   0.999203 0.459874 0.232885 -0.109398
N28   N     N_R   0.493054 0.961698 0.768075 -0.144614
N29   N     N_R   0.960946 0.499168 0.766524 -0.106048
N30   N     N_R   0.502139 0.041363 0.766048 -0.096729
N31   N     N_R   0.040900 0.493099 0.767541 -0.106607
N32   N     N_R   0.041600 0.491847 0.733354 -0.098638
O1    O     O_R   0.535610 0.936800 0.000040 -0.597303
O2    O     O_R   0.563200 0.035610 0.500040 -0.595240
O3    O     O_R   0.964390 0.563200 0.500040 -0.595461
O4    O     O_R   0.436800 0.964390 0.500040 -0.596079
O5    O     O_R   0.035610 0.563200 0.499960 -0.596893
O6    O     O_R   0.563200 0.964390 0.499960 -0.596994
O7    O     O_R   0.964390 0.436800 0.499960 -0.598046
O8    O     O_R   0.436800 0.035610 0.499960 -0.598188
O9    O     O_R   0.535610 0.999940 0.050970 -0.613541
O10   O     O_R   0.000060 0.535610 0.050970 -0.608462
O11   O     O_R   0.464390 0.000060 0.050970 -0.603930
O12   O     O_R   0.063200 0.535610 0.000040 -0.596710
O13   O     O_R   0.999940 0.464390 0.050970 -0.608343
O14   O     O_R   0.535610 0.000060 0.949030 -0.614689
O15   O     O_R   0.000060 0.464390 0.949030 -0.608732
O16   O     O_R   0.464390 0.999940 0.949030 -0.602760
O17   O     O_R   0.999940 0.535610 0.949030 -0.607961
O18   O     O_R   0.035610 0.499940 0.550970 -0.603924
O19   O     O_R   0.500060 0.035610 0.550970 -0.614325
O20   O     O_R   0.964390 0.500060 0.550970 -0.614148
O21   O     O_R   0.499940 0.964390 0.550970 -0.603664
O22   O     O_R   0.035610 0.500060 0.449030 -0.608433
O23   O     O_R   0.464390 0.063200 0.000040 -0.595771
O24   O     O_R   0.500060 0.964390 0.449030 -0.607896
O25   O     O_R   0.964390 0.499940 0.449030 -0.607835
O26   O     O_R   0.499940 0.035610 0.449030 -0.608093
O27   O     O_R   0.436800 0.499970 0.028810 -0.589976
O28   O     O_R   0.500030 0.436800 0.028810 -0.589851
O29   O     O_R   0.563200 0.500030 0.028810 -0.589808
O30   O     O_R   0.499970 0.563200 0.028810 -0.589920
O31   O     O_R   0.436800 0.500030 0.971190 -0.589677
O32   O     O_R   0.500030 0.563200 0.971190 -0.589497
O33   O     O_R   0.563200 0.499970 0.971190 -0.589511
O34   O     O_R   0.936800 0.464390 0.000040 -0.596622
O35   O     O_R   0.499970 0.436800 0.971190 -0.589654
O36   O     O_R   0.936800 0.999970 0.528810 -0.589813
O37   O     O_R   0.000030 0.936800 0.528810 -0.589893
O38   O     O_R   0.063200 0.000030 0.528810 -0.589822
O39   O     O_R   0.999970 0.063200 0.528810 -0.589703
O40   O     O_R   0.936800 0.000030 0.471190 -0.589654
O41   O     O_R   0.000030 0.063200 0.471190 -0.589750
O42   O     O_R   0.063200 0.999970 0.471190 -0.589794
O43   O     O_R   0.999970 0.936800 0.471190 -0.589721
O44   O     O_3   0.442305 0.945260 0.180527 -0.728301
O45   O     O_R   0.535610 0.063200 0.999960 -0.596943
O46   O     O_3   0.059912 0.443857 0.179257 -0.734718
O47   O     O_3   0.552027 0.069995 0.174704 -0.730565
O48   O     O_3   0.940124 0.556065 0.179264 -0.734423
O49   O     O_3   0.442651 0.060703 0.821070 -0.737215
O50   O     O_3   0.059921 0.554144 0.820164 -0.732563
O51   O     O_3   0.562951 0.945937 0.823268 -0.729522
O52   O     O_3   0.939488 0.442615 0.821328 -0.742025
O53   O     O_3   0.947833 0.430166 0.674807 -0.730446
O54   O     O_3   0.552874 0.941452 0.680810 -0.737005
O55   O     O_3   0.057630 0.554840 0.680442 -0.728215
O56   O     O_R   0.063200 0.464390 0.999960 -0.596812
O57   O     O_3   0.431355 0.054694 0.674638 -0.730935
O58   O     O_3   0.942119 0.558189 0.320785 -0.733885
O59   O     O_3   0.560376 0.057591 0.321267 -0.742105
O60   O     O_3   0.057954 0.441775 0.320825 -0.734082
O61   O     O_3   0.440027 0.945974 0.320220 -0.732651
O62   O     O_R   0.464390 0.936800 0.999960 -0.596064
O63   O     O_R   0.936800 0.535610 0.999960 -0.596798
O64   O     O_R   0.035610 0.436800 0.500040 -0.596121
Zn1   Zn    Zn3+2 0.547570 0.000000 0.000000 1.007445
Zn2   Zn    Zn3+2 0.500000 0.500000 0.961560 0.996105
Zn3   Zn    Zn3+2 0.000000 1.000000 0.538440 0.995018
Zn4   Zn    Zn3+2 1.000000 1.000000 0.461560 0.995411
Zn5   Zn    Zn3+2 0.000000 0.547570 0.000000 1.012313
Zn6   Zn    Zn3+2 0.452430 0.000000 0.000000 1.011710
Zn7   Zn    Zn3+2 0.000000 0.452430 0.000000 1.011781
Zn8   Zn    Zn3+2 0.047570 0.500000 0.500000 1.011512
Zn9   Zn    Zn3+2 0.500000 0.047570 0.500000 1.010013
Zn10  Zn    Zn3+2 0.952430 0.500000 0.500000 1.010449
Zn11  Zn    Zn3+2 0.500000 0.952430 0.500000 1.011805
Zn12  Zn    Zn3+2 0.500000 0.500000 0.038440 0.994869

loop_
_geom_bond_atom_site_label_1
_geom_bond_atom_site_label_2
_ccdc_geom_bond_type
C3    C104  A    
C61   C70   S    
C49   C113  S    
C4    C109  A    
C43   N18   T    
C94   O20   A    
C120  O49   S    
C36   N10   T    
C126  O54   S    
H7    O60   S    
C114  C131  A    
H15   O52   S    
C125  O53   S    
C103  C120  A    
H16   O53   S    
C47   N21   T    
C75   C83   S    
C103  C144  A    
C105  C144  A    
C16   N23   A    
C96   O22   A    
H6    O59   S    
C112  O3    A    
C130  O59   S    
C131  O60   S    
O42   Zn4   S    
C23   C112  S    
O2    Zn9   S    
H4    O57   S    
N5    N27   A    
C87   O42   A    
C41   C105  S    
H9    O46   S    
C97   O26   A    
C26   C134  S    
C17   C26   T    
C99   C143  A    
C11   C138  S    
O33   Zn2   S    
C80   C87   S    
C52   C61   T    
C57   O56   A    
C83   O33   A    
H8    O61   S    
C9    C140  S    
C45   C109  S    
C119  O48   S    
C70   C78   T    
C5    C110  A    
C42   N17   T    
C7    C115  A    
C56   C65   S    
C54   C134  T    
C9    N5    A    
C21   C30   T    
O19   Zn9   S    
O26   Zn9   S    
O16   Zn6   S    
C35   C59   T    
C11   N32   A    
C6    C111  A    
C121  C137  A    
C68   O23   A    
O3    Zn10  S    
C24   C29   S    
C6    C114  A    
C131  C140  A    
C8    N8    A    
O35   Zn2   S    
C59   C67   S    
C69   C77   T    
C111  C129  A    
C93   O15   A    
C32   C52   S    
O63   Zn5   S    
O43   Zn4   S    
C31   C46   S    
C15   N12   A    
O1    Zn1   S    
C64   C73   T    
C13   C28   S    
C8    C141  S    
C127  C138  A    
C124  O52   S    
C76   C88   S    
C79   O34   A    
C45   N20   T    
C115  C132  A    
O56   Zn7   S    
C118  C133  A    
C78   C86   S    
O20   Zn10  S    
C88   O39   A    
C10   N2    A    
C47   C110  S    
C98   C142  A    
O18   Zn8   S    
O23   Zn6   S    
C85   O40   A    
C74   C82   S    
C39   N14   T    
C16   C133  S    
C44   N19   T    
C73   C81   S    
C71   C80   T    
C91   O13   A    
C58   C66   S    
O41   Zn4   S    
C91   C143  S    
C21   C90   S    
C44   C108  S    
C3    C106  A    
C33   C53   S    
C121  O50   S    
C81   O31   A    
C4    C107  A    
C126  C139  A    
O11   Zn6   S    
O7    Zn10  S    
N6    N23   A    
N31   N32   A    
C91   O10   A    
C108  C126  A    
C124  C137  A    
C9    N7    A    
C92   O14   A    
C107  C125  A    
C3    C93   S    
C84   O32   A    
C101  O6    A    
C38   N13   T    
C43   C107  S    
C104  C121  A    
O13   Zn7   S    
O39   Zn3   S    
H10   O47   S    
C97   O24   A    
C119  C135  A    
C65   C74   T    
O27   Zn12  S    
C120  C136  A    
C14   N30   A    
C89   C142  S    
C100  C118  A    
C122  O51   S    
O36   Zn3   S    
H13   O50   S    
O24   Zn11  S    
C37   N11   T    
C92   O16   A    
C99   C117  A    
C49   N24   T    
O30   Zn12  S    
C53   C62   T    
C123  O8    A    
C18   C57   S    
C98   C116  A    
H12   O49   S    
H3    O55   S    
C101  O2    A    
C22   C31   T    
C116  O44   S    
C25   C33   T    
C11   N3    A    
C82   O28   A    
C19   C68   S    
N3    N29   A    
C85   O36   A    
C72   C84   S    
C63   C72   T    
C39   C103  S    
C19   C28   T    
C25   C123  S    
C122  C136  A    
C2    C27   S    
C34   N9    T    
C8    N6    A    
C132  O61   S    
C4    C94   S    
C30   C35   S    
O8    Zn9   S    
C89   O11   A    
C42   C106  S    
C117  O46   S    
C94   O18   A    
C22   C101  S    
C12   N29   A    
C93   O17   A    
C95   O21   A    
C123  O4    A    
C113  C130  A    
C127  O55   S    
C102  C143  A    
O40   Zn4   S    
C117  C135  A    
O10   Zn5   S    
O37   Zn3   S    
C112  O5    A    
N2    N30   A    
C1    O62   A    
O32   Zn2   S    
C82   O35   A    
O22   Zn8   S    
C132  C141  A    
C12   N31   A    
C90   O64   A    
C129  O58   S    
C10   N4    A    
O25   Zn10  S    
C7    C97   S    
C20   C79   S    
C46   C60   T    
C12   C137  S    
C86   O37   A    
C1    C17   S    
O14   Zn1   S    
O28   Zn12  S    
C18   C27   T    
C86   O43   A    
C125  C138  A    
N4    N28   A    
H11   O48   S    
C40   N15   T    
O12   Zn5   S    
O17   Zn5   S    
N7    N12   A    
C90   O7    A    
C55   C64   S    
C16   N1    A    
O5    Zn8   S    
C87   O38   A    
O15   Zn7   S    
C89   O9    A    
H2    O54   S    
C6    C96   S    
C128  O57   S    
C51   C115  S    
C88   O41   A    
C68   O45   A    
H5    O58   S    
C95   O19   A    
C23   C32   T    
C13   C56   T    
O64   Zn8   S    
C40   C104  S    
O6    Zn11  S    
C38   C102  S    
C51   N26   T    
C100  C142  A    
C48   N22   T    
C50   N25   T    
C7    C113  A    
C5    C95   S    
C129  C140  A    
C14   C136  S    
C60   C69   S    
C116  C133  A    
C66   C75   T    
C57   O12   A    
O21   Zn11  S    
C34   C98   S    
C109  C127  A    
C62   C71   S    
C36   C99   S    
H14   O51   S    
C118  O47   S    
C92   C144  S    
C128  C139  A    
O9    Zn1   S    
N1    N8    A    
C2    C55   T    
C10   C139  S    
C77   C85   S    
C41   N16   T    
C83   O29   A    
C48   C111  S    
C15   C135  S    
O38   Zn3   S    
O62   Zn6   S    
C20   C29   T    
C24   C58   T    
O31   Zn2   S    
C54   C63   S    
H1    O44   S    
C106  C124  A    
O29   Zn12  S    
C79   O63   A    
C1    O1    A    
O4    Zn11  S    
C84   O30   A    
C67   C76   T    
C50   C114  S    
C14   N28   A    
C105  C122  A    
O34   Zn7   S    
C37   C100  S    
C15   N27   A    
C102  C119  A    
C96   O25   A    
C110  C128  A    
O45   Zn1   S    
C130  C141  A    
C5    C108  A    
C81   O27   A    
