data_mof_unit_49898.cif
_audit_creation_date              2012-12-11T16:38:22-0500
_audit_creation_method            fapswitch 2.2
_symmetry_space_group_name_H-M    P1
_symmetry_Int_Tables_number       1
_space_group_crystal_system       triclinic
_cell_length_a                    23.035211
_cell_length_b                    7.242587
_cell_length_c                    20.9201
_cell_angle_alpha                 89.9997
_cell_angle_beta                  93.058948
_cell_angle_gamma                 90.002343
_cell_volume                      3485.22186787

loop_
_atom_site_label
_atom_site_type_symbol
_atom_type_description
_atom_site_fract_x
_atom_site_fract_y
_atom_site_fract_z
_atom_type_partial_charge
O1    O     O_R   0.188620 0.380490 0.689890 -0.532394
O2    O     O_R   0.811380 0.619510 0.310110 -0.509337
O3    O     O_R   0.311380 0.880490 0.810110 -0.532238
O4    O     O_R   0.688620 0.119510 0.189890 -0.509351
O5    O     O_R   0.306510 0.709050 0.686440 -0.523454
O6    O     O_R   0.693490 0.290950 0.313560 -0.539559
O7    O     O_R   0.193490 0.209050 0.813560 -0.523444
O8    O     O_R   0.806510 0.790950 0.186440 -0.539516
C1    C     C_R   0.325270 0.541931 0.671629 0.711505
C2    C     C_R   0.674667 0.458054 0.328285 0.696721
C3    C     C_R   0.174731 0.041924 0.828372 0.711359
C4    C     C_R   0.825332 0.958060 0.171714 0.696815
O9    O     O_R   0.188770 0.710120 0.682280 -0.528741
O10   O     O_R   0.811230 0.289880 0.317720 -0.509819
O11   O     O_R   0.311230 0.210120 0.817720 -0.528639
O12   O     O_R   0.688770 0.789880 0.182280 -0.509773
O13   O     O_R   0.192790 0.881680 0.805920 -0.539713
O14   O     O_R   0.807210 0.118320 0.194080 -0.534358
O15   O     O_R   0.307210 0.381680 0.694080 -0.539760
O16   O     O_R   0.692790 0.618320 0.305920 -0.534342
C5    C     C_R   0.169146 0.541463 0.666727 0.785369
C6    C     C_R   0.831363 0.458547 0.333485 0.722732
C7    C     C_R   0.330853 0.041467 0.833277 0.785284
C8    C     C_R   0.668634 0.958542 0.166519 0.722845
O17   O     O_3   0.251460 0.547440 0.790570 -0.382209
O18   O     O_3   0.748540 0.452560 0.209430 -0.367258
O19   O     O_3   0.248540 0.047440 0.709430 -0.382349
O20   O     O_3   0.751460 0.952560 0.290570 -0.367296
V1    V     V_3+5 0.249730 0.821800 0.742470 1.474404
V2    V     V_3+5 0.750270 0.178200 0.257530 1.511857
V3    V     V_3+5 0.250270 0.321800 0.757530 1.474441
V4    V     V_3+5 0.749730 0.678200 0.242470 1.511995
C9    C     C_R   0.473534 0.900413 0.919012 -0.233582
C10   C     C_R   0.541315 0.146765 0.060199 -0.235759
C11   C     C_R   0.026396 0.400672 0.581074 -0.233559
C12   C     C_R   0.958707 0.646734 0.439789 -0.235591
C13   C     C_R   0.426521 0.907878 0.873402 0.385665
C14   C     C_R   0.586779 0.136233 0.107535 0.418922
C15   C     C_R   0.073408 0.408163 0.626691 0.385716
C16   C     C_R   0.913238 0.636213 0.392458 0.419164
C17   C     C_R   0.379885 0.030460 0.882300 -0.228974
C18   C     C_R   0.618470 0.969209 0.117444 -0.266579
C19   C     C_R   0.120107 0.530445 0.617717 -0.228966
C20   C     C_R   0.881520 0.469222 0.382569 -0.266731
C21   C     C_R   0.379925 0.140227 0.938143 0.396411
C22   C     C_R   0.601037 0.813118 0.080037 0.409866
C23   C     C_R   0.120108 0.639944 0.561818 0.396219
C24   C     C_R   0.898921 0.313167 0.420012 0.409926
C25   C     C_R   0.425850 0.119994 0.985398 -0.254973
C26   C     C_R   0.552886 0.824274 0.035909 -0.243482
C27   C     C_R   0.074179 0.619755 0.514579 -0.254618
C28   C     C_R   0.947055 0.324322 0.464160 -0.243287
C29   C     C_R   0.473419 0.003539 0.975784 0.028364
C30   C     C_R   0.523138 0.991174 0.024641 0.014155
C31   C     C_R   0.026561 0.503537 0.524245 0.028243
C32   C     C_R   0.976842 0.491177 0.475388 0.013985
C33   C     C_R   0.021593 0.172536 0.982941 -0.307815
C34   C     C_R   0.981857 0.827367 0.021321 -0.315031
C35   C     C_R   0.478425 0.672540 0.517060 -0.307812
C36   C     C_R   0.518117 0.327340 0.478665 -0.315079
C37   C     C_R   0.046725 0.012398 0.958672 -0.052582
C38   C     C_R   0.956864 0.987504 0.045753 -0.050875
C39   C     C_R   0.453267 0.512414 0.541318 -0.052515
C40   C     C_R   0.543139 0.487459 0.454252 -0.050851
C41   C     C_R   0.027834 0.838607 0.979713 0.503360
C42   C     C_R   0.978319 0.161294 0.027888 0.503895
C43   C     C_R   0.472139 0.338608 0.520270 0.503317
C44   C     C_R   0.521713 0.661260 0.472130 0.503895
C45   C     C_1   0.091882 0.026079 0.912582 0.045145
C46   C     C_1   0.909849 0.973775 0.089545 0.035260
C47   C     C_1   0.408116 0.526117 0.587414 0.045067
C48   C     C_1   0.590151 0.473725 0.410456 0.035412
C49   C     C_1   0.871055 0.965919 0.126646 -0.190854
C50   C     C_1   0.129683 0.033949 0.874263 -0.154644
C51   C     C_1   0.628944 0.465890 0.373354 -0.190830
C52   C     C_1   0.370317 0.533976 0.625736 -0.154587
H1    H     H_    0.510739 0.815732 0.909196 0.138494
H2    H     H_    0.520330 0.278857 0.051453 0.140910
H3    H     H_    0.989146 0.316223 0.590932 0.138545
H4    H     H_    0.979725 0.778791 0.448505 0.140957
O21   O     O_3   0.429249 0.812020 0.816340 -0.546175
C53   C     C_3   0.422340 0.621596 0.828051 -0.168466
H5    H     H_    0.422068 0.547326 0.781666 0.148726
H6    H     H_    0.380101 0.592718 0.849474 0.140439
H7    H     H_    0.458936 0.565117 0.858896 0.110693
O22   O     O_3   0.601907 0.294188 0.141552 -0.509237
C54   C     C_3   0.562740 0.318062 0.190432 -0.140891
H8    H     H_    0.576322 0.441134 0.219052 0.143312
H9    H     H_    0.563517 0.197328 0.223442 0.084033
H10   H     H_    0.517776 0.343712 0.170315 0.100116
O23   O     O_3   0.070608 0.312774 0.683838 -0.546125
C55   C     C_3   0.077429 0.122224 0.672315 -0.169050
H11   H     H_    0.077518 0.048302 0.718755 0.148866
H12   H     H_    0.119721 0.092935 0.651078 0.140195
H13   H     H_    0.040886 0.065728 0.641393 0.110738
O24   O     O_3   0.898132 0.794162 0.358428 -0.509205
C56   C     C_3   0.937262 0.817824 0.309499 -0.141234
H14   H     H_    0.923724 0.940984 0.280904 0.143288
H15   H     H_    0.936375 0.697103 0.276479 0.084194
H16   H     H_    0.982262 0.843197 0.329560 0.100086
O25   O     O_3   0.331701 0.251281 0.947408 -0.549240
C57   C     C_3   0.347264 0.421119 0.976844 -0.243957
H17   H     H_    0.388823 0.478012 0.960279 0.114869
H18   H     H_    0.349540 0.406000 0.029749 0.134603
H19   H     H_    0.312746 0.523587 0.964167 0.158593
O26   O     O_3   0.628632 0.645036 0.089020 -0.514844
C58   C     C_3   0.665627 0.615884 0.038434 -0.122386
H20   H     H_    0.698019 0.729313 0.035506 0.096029
H21   H     H_    0.640412 0.599693 0.991931 0.105834
H22   H     H_    0.690061 0.485814 0.047756 0.163843
O27   O     O_3   0.168365 0.750715 0.552442 -0.549341
C59   C     C_3   0.152732 0.921222 0.523548 -0.243014
H23   H     H_    0.111301 0.977880 0.540521 0.114638
H24   H     H_    0.150152 0.907268 0.470611 0.134425
H25   H     H_    0.187355 0.023305 0.536262 0.158540
O28   O     O_3   0.871300 0.145108 0.411079 -0.514840
C60   C     C_3   0.834054 0.116680 0.461487 -0.122362
H26   H     H_    0.801639 0.230217 0.464050 0.095991
H27   H     H_    0.859067 0.101099 0.508153 0.105820
H28   H     H_    0.809649 0.986488 0.452233 0.163755
H29   H     H_    0.424081 0.192837 0.030354 0.124917
H30   H     H_    0.538806 0.700387 0.010574 0.133536
H31   H     H_    0.075995 0.692471 0.469601 0.125045
H32   H     H_    0.961085 0.200470 0.489547 0.133697
O29   O     O_3   0.955019 0.321684 0.051436 -0.539902
C61   C     C_3   0.984813 0.363896 0.110308 -0.278649
H33   H     H_    0.031818 0.388774 0.103980 0.125173
H34   H     H_    0.979371 0.253318 0.146430 0.130216
H35   H     H_    0.966212 0.492267 0.129668 0.155867
O30   O     O_3   0.051918 0.678228 0.957137 -0.539213
C62   C     C_3   0.101712 0.635606 0.996579 -0.263860
H36   H     H_    0.090256 0.610211 0.046817 0.121298
H37   H     H_    0.135157 0.746196 0.995191 0.133928
H38   H     H_    0.121525 0.507434 0.978569 0.165312
O31   O     O_3   0.545078 0.821595 0.448615 -0.539887
C63   C     C_3   0.515243 0.864155 0.389801 -0.278756
H39   H     H_    0.468349 0.890513 0.396315 0.125585
H40   H     H_    0.520223 0.753100 0.353736 0.129863
H41   H     H_    0.534169 0.991791 0.370254 0.156000
O32   O     O_3   0.448051 0.178227 0.542846 -0.539265
C64   C     C_3   0.398190 0.135783 0.503483 -0.263834
H42   H     H_    0.409533 0.110864 0.453178 0.120996
H43   H     H_    0.364729 0.246263 0.505073 0.134108
H44   H     H_    0.378452 0.007389 0.521417 0.165321
H45   H     H_    0.035679 0.306659 0.967287 0.202527
H46   H     H_    0.965956 0.693235 0.034742 0.201577
H47   H     H_    0.464355 0.806676 0.532719 0.202509
H48   H     H_    0.534000 0.193201 0.465233 0.201539

loop_
_geom_bond_atom_site_label_1
_geom_bond_atom_site_label_2
_ccdc_geom_bond_type
C34   C38   A    
C54   H8    S    
O1    C5    A    
C61   H33   S    
C33   H45   S    
O19   V1    S    
C60   H26   S    
C8    C18   S    
O3    C7    A    
O27   C59   S    
C26   H30   S    
C33   C42   A    
C31   C32   S    
C62   H38   S    
O15   V3    S    
C59   H24   S    
C56   H14   S    
O31   C63   S    
C29   C30   S    
O7    C3    A    
O25   C57   S    
C14   O22   S    
C40   C44   A    
O9    V1    S    
C16   O24   S    
C14   C18   A    
C60   H27   S    
C47   C52   T    
O4    C8    A    
C25   C29   A    
O26   C58   S    
O1    V3    S    
C27   H31   S    
O28   C60   S    
C38   C46   S    
C57   H19   S    
O2    V4    S    
C18   C22   A    
C11   H3    S    
O3    V1    S    
C5    C19   S    
C1    O15   A    
C6    C20   S    
C36   C43   A    
C2    O16   A    
O2    C6    A    
C58   H20   S    
O14   V2    S    
C1    C52   S    
C16   C20   A    
C54   H10   S    
C24   O28   S    
O11   C7    A    
O12   C8    A    
C4    C49   S    
C58   H21   S    
C13   O21   S    
O10   V2    S    
C48   C51   T    
C15   O23   S    
C59   H23   S    
C56   H15   S    
O21   C53   S    
O5    V1    S    
C9    C29   A    
C39   C43   A    
O7    V3    S    
C38   C42   A    
C11   C31   A    
O8    V4    S    
C12   C16   A    
O32   C64   S    
C63   H40   S    
C12   H4    S    
C64   H44   S    
O23   C55   S    
O22   C54   S    
C15   C19   A    
C61   H35   S    
C55   H13   S    
C9    C13   A    
C63   H41   S    
C11   C15   A    
O5    C1    A    
C12   C32   A    
C35   C44   A    
C2    C51   S    
C34   C41   A    
C21   C25   A    
O8    C4    A    
C25   H29   S    
O24   C56   S    
C46   C49   T    
C55   H12   S    
O9    C5    A    
C45   C50   T    
C26   C30   A    
C33   C37   A    
C43   O32   S    
C21   O25   S    
O6    V2    S    
C39   C47   S    
C10   C30   A    
C53   H6    S    
C54   H9    S    
O29   C61   S    
C58   H22   S    
C60   H28   S    
C62   H36   S    
C56   H16   S    
O16   V4    S    
C37   C45   S    
C3    O13   A    
C61   H34   S    
C10   C14   A    
O17   V3    S    
C44   O31   S    
C63   H39   S    
C62   H37   S    
C3    C50   S    
O6    C2    A    
C23   C27   A    
C34   H46   S    
O11   V3    S    
O18   V4    S    
O12   V4    S    
C53   H7    S    
C22   C26   A    
C35   C39   A    
C7    C17   S    
C42   O29   S    
C57   H18   S    
C36   C40   A    
O10   C6    A    
C64   H43   S    
O30   C62   S    
O13   V1    S    
C10   H2    S    
C28   H32   S    
C9    H1    S    
C28   C32   A    
C23   O27   S    
C22   O26   S    
O20   V2    S    
C55   H11   S    
C27   C31   A    
C40   C48   S    
C13   C17   A    
C57   H17   S    
C37   C41   A    
C24   C28   A    
C53   H5    S    
C41   O30   S    
C4    O14   A    
C17   C21   A    
C36   H48   S    
C64   H42   S    
C19   C23   A    
C59   H25   S    
O4    V2    S    
C20   C24   A    
C35   H47   S    
