data_mof_unit_57829.cif
_audit_creation_date              2012-10-26T20:06:11-0400
_audit_creation_method            fapswitch 2.2
_symmetry_space_group_name_H-M    P1
_symmetry_Int_Tables_number       1
_space_group_crystal_system       triclinic
_cell_length_a                    9.509058
_cell_length_b                    10.783353
_cell_length_c                    13.482325
_cell_angle_alpha                 89.840769
_cell_angle_beta                  72.457027
_cell_angle_gamma                 90.071047
_cell_volume                      1318.16588457

loop_
_atom_site_label
_atom_site_type_symbol
_atom_type_description
_atom_site_fract_x
_atom_site_fract_y
_atom_site_fract_z
_atom_type_partial_charge
C1    C     C_R   0.499299 0.737803 0.501749 0.558858
C2    C     C_R   0.375312 0.504913 0.814379 -0.035463
C3    C     C_R   0.581599 0.936534 0.558562 0.256375
C4    C     C_R   0.421402 0.496274 0.700198 0.531252
C5    C     C_R   0.585487 0.065178 0.553709 -0.114500
C6    C     C_R   0.498132 0.128480 0.503271 -0.029045
C7    C     C_R   0.407696 0.063806 0.456462 -0.157153
C8    C     C_R   0.408115 0.935644 0.456918 -0.185150
C9    C     C_R   0.496938 0.871648 0.505826 0.011847
C10   C     C_R   0.896173 0.570414 0.569459 0.020481
C11   C     C_R   0.044978 0.570367 0.569489 0.015493
C12   C     C_R   0.443016 0.519010 0.976037 0.031844
C13   C     C_R   0.103922 0.429532 0.430470 -0.002478
C14   C     C_R   0.955082 0.429771 0.430352 -0.006364
C15   C     C_R   0.499555 0.262169 0.500796 0.547271
C16   C     C_R   0.578730 0.499259 0.300069 0.546894
C17   C     C_R   0.801450 0.434239 0.023427 0.250133
C18   C     C_R   0.623894 0.491998 0.186624 -0.060271
C19   C     C_R   0.241760 0.563869 0.863010 -0.152519
C20   C     C_R   0.211058 0.606506 0.963865 -0.102222
C21   C     C_R   0.311422 0.589537 0.020778 0.251838
C22   C     C_3   0.970486 0.278155 0.991870 -0.001806
C23   C     C_R   0.472996 0.475349 0.872317 -0.029389
C24   C     C_3   0.128451 0.243452 0.930498 -0.248898
C25   C     C_3   0.162061 0.108639 0.949223 -0.494562
C26   C     C_3   0.155848 0.646323 0.184081 -0.006853
C27   C     C_3   0.076303 0.771277 0.204588 -0.273771
C28   C     C_3   0.925163 0.759208 0.285737 -0.446171
C29   C     C_3   0.571762 0.834690 0.710219 0.022691
C30   C     C_3   0.573990 0.928146 0.794957 -0.292578
C31   C     C_3   0.489149 0.878995 0.902737 -0.461700
C32   C     C_R   0.549386 0.493656 0.028980 -0.002583
C33   C     C_R   0.690386 0.445508 0.974079 0.046506
C34   C     C_R   0.713769 0.399830 0.873994 -0.137647
C35   C     C_R   0.602305 0.405602 0.827756 -0.146350
C36   C     C_R   0.516155 0.505590 0.136499 -0.118933
C37   C     C_R   0.768637 0.463335 0.129045 -0.135968
Cu1   Cu    Cu3+1 0.359340 0.499980 0.500000 0.924860
Cu2   Cu    Cu3+1 0.640660 0.500020 0.500000 0.921507
H1    H     H_    0.853812 0.455663 0.166912 0.114822
H2    H     H_    0.403688 0.516088 0.183596 0.177730
H3    H     H_    0.165589 0.586952 0.820074 0.149696
H4    H     H_    0.112769 0.661690 0.994786 0.125141
H5    H     H_    0.620485 0.355352 0.755807 0.148022
H6    H     H_    0.892844 0.213505 0.970393 0.128344
H7    H     H_    0.958172 0.267895 0.076352 0.122060
H8    H     H_    0.145239 0.257915 0.846003 0.180052
H9    H     H_    0.206517 0.304402 0.954659 0.174705
H10   H     H_    0.148597 0.092474 0.033006 0.144150
H11   H     H_    0.277648 0.087473 0.903843 0.147603
H12   H     H_    0.653287 0.115476 0.591858 0.131511
H13   H     H_    0.087508 0.045339 0.923699 0.145218
H14   H     H_    0.173877 0.614743 0.257772 0.150486
H15   H     H_    0.084131 0.574671 0.164082 0.115141
H16   H     H_    0.144222 0.838442 0.232873 0.171922
H17   H     H_    0.062075 0.808438 0.131316 0.154966
H18   H     H_    0.853662 0.695971 0.257248 0.167343
H19   H     H_    0.871580 0.851602 0.300479 0.149217
H20   H     H_    0.936540 0.722712 0.360053 0.180778
H21   H     H_    0.615840 0.745164 0.728649 0.159650
H22   H     H_    0.455549 0.815798 0.711822 0.112009
H23   H     H_    0.339638 0.112354 0.417428 0.132171
H24   H     H_    0.689977 0.946975 0.792429 0.172015
H25   H     H_    0.523488 0.016641 0.780686 0.148325
H26   H     H_    0.372833 0.858909 0.907066 0.159501
H27   H     H_    0.490048 0.949545 0.962368 0.150980
H28   H     H_    0.541447 0.792926 0.920152 0.175994
H29   H     H_    0.341075 0.886517 0.417484 0.140025
H30   H     H_    0.816732 0.626832 0.625064 0.132820
H31   H     H_    0.077528 0.626783 0.625111 0.110005
H32   H     H_    0.183615 0.372970 0.374831 0.104234
H33   H     H_    0.922581 0.373603 0.374570 0.105703
H34   H     H_    0.815438 0.353072 0.833137 0.149460
N1    N     N_R   0.147940 0.499970 0.499970 -0.224493
N2    N     N_R   0.852060 0.500060 0.499990 -0.231933
O1    O     O_R   0.381250 0.680340 0.500010 -0.513658
O2    O     O_3   0.296169 0.661515 0.108869 -0.588953
O3    O     O_3   0.664492 0.875600 0.612195 -0.570600
O4    O     O_R   0.618820 0.680370 0.500010 -0.463970
O5    O     O_R   0.323240 0.499950 0.650980 -0.502310
O6    O     O_R   0.560810 0.499980 0.650980 -0.515269
O7    O     O_R   0.381180 0.319630 0.499990 -0.497681
O8    O     O_R   0.618750 0.319660 0.499990 -0.507893
O9    O     O_R   0.439190 0.500020 0.349020 -0.510809
O10   O     O_R   0.676760 0.500050 0.349020 -0.514304
O11   O     O_3   0.943713 0.401462 0.967047 -0.585404

loop_
_geom_bond_atom_site_label_1
_geom_bond_atom_site_label_2
_ccdc_geom_bond_type
C31   H27   S    
C30   H25   S    
C19   C20   A    
C11   H31   S    
C7    C8    A    
Cu1   O1    S    
C28   H18   S    
C31   H28   S    
C12   C23   A    
C26   C27   S    
C32   C36   A    
C18   C37   A    
C4    O5    A    
C37   H1    S    
Cu1   Cu2   S    
C27   H16   S    
C16   O9    A    
C34   C35   A    
C25   H11   S    
C6    C15   S    
C29   O3    S    
C8    C9    A    
Cu2   N2    S    
C19   H3    S    
C30   H24   S    
C12   C32   A    
C1    O1    A    
C36   H2    S    
C17   C33   A    
C26   H15   S    
C15   O7    A    
C29   H22   S    
C26   O2    S    
C4    O6    A    
C17   O11   S    
C24   H9    S    
C1    C9    S    
C24   C25   S    
Cu2   O6    S    
C27   H17   S    
C15   O8    A    
C13   H32   S    
C12   C21   A    
Cu2   O4    S    
C2    C4    S    
C7    H23   S    
C29   C30   S    
C3    C9    A    
C10   N2    A    
C29   H21   S    
C30   C31   S    
C33   C34   A    
C17   C37   A    
C20   C21   A    
C35   H5    S    
C22   H7    S    
C8    H29   S    
C23   C35   A    
C16   O10   A    
C1    O4    A    
C22   C24   S    
Cu2   O10   S    
C26   H14   S    
C2    C23   A    
C20   H4    S    
Cu1   N1    S    
C28   H20   S    
C31   H26   S    
Cu1   O9    S    
C2    C19   A    
C24   H8    S    
C14   H33   S    
C3    C5    A    
C11   N1    A    
C6    C7    A    
C28   H19   S    
C14   N2    A    
C25   H13   S    
Cu2   O8    S    
C32   C33   A    
C5    C6    A    
Cu1   O5    S    
C22   O11   S    
C25   H10   S    
C10   C11   A    
C34   H34   S    
C10   H30   S    
C22   H6    S    
C13   N1    A    
C16   C18   S    
C21   O2    S    
C27   C28   S    
C5    H12   S    
C13   C14   A    
C3    O3    S    
C18   C36   A    
Cu1   O7    S    
