data_mof_unit_54614.cif
_audit_creation_date              2012-10-26T17:50:11-0400
_audit_creation_method            fapswitch 2.2
_symmetry_space_group_name_H-M    P1
_symmetry_Int_Tables_number       1
_space_group_crystal_system       triclinic
_cell_length_a                    21.837011
_cell_length_b                    21.972969
_cell_length_c                    30.406653
_cell_angle_alpha                 89.643986
_cell_angle_beta                  89.869778
_cell_angle_gamma                 88.456223
_cell_volume                      14584.2312961

loop_
_atom_site_label
_atom_site_type_symbol
_atom_type_description
_atom_site_fract_x
_atom_site_fract_y
_atom_site_fract_z
_atom_type_partial_charge
C1    C     C_R   0.499084 0.119147 0.500640 0.569329
C2    C     C_R   0.303123 0.375755 0.576143 -0.172902
C3    C     C_R   0.996615 0.500314 0.414325 0.601794
C4    C     C_R   0.000323 0.498418 0.085719 0.583915
C5    C     C_R   0.501371 0.999849 0.085856 0.601240
C6    C     C_R   0.999850 0.497605 0.914273 0.606315
C7    C     C_R   0.503668 0.999963 0.914348 0.580238
C8    C     C_R   0.527947 0.051581 0.841064 0.031189
C9    C     C_R   0.049765 0.469590 0.841796 0.024848
C10   C     C_R   0.495186 0.945385 0.842121 0.069128
C11   C     C_R   0.948422 0.520754 0.841710 0.034626
C12   C     C_R   0.515769 0.944992 0.159406 0.054468
C13   C     C_R   0.338425 0.713172 0.514639 -0.197803
C14   C     C_R   0.042604 0.528807 0.159160 0.041721
C15   C     C_R   0.496219 0.055718 0.158596 0.065910
C16   C     C_R   0.959659 0.456831 0.157179 0.034457
C17   C     C_R   0.005014 0.554440 0.340865 0.013269
C18   C     C_R   0.549606 0.969235 0.341365 0.046356
C19   C     C_R   0.973172 0.447735 0.342450 0.066832
C20   C     C_R   0.455245 0.031253 0.340059 0.061917
C21   C     C_R   0.021407 0.449933 0.659184 0.065549
C22   C     C_R   0.552518 0.020027 0.658460 0.067110
C23   C     C_R   0.964866 0.547486 0.657962 0.018597
C24   C     C_R   0.720717 0.569262 0.604684 -0.167224
C25   C     C_R   0.453349 0.970746 0.660386 0.033603
C26   C     C_R   0.509816 0.999190 0.865511 -0.029649
C27   C     C_R   0.999159 0.495303 0.865372 -0.021100
C28   C     C_R   0.504398 0.999978 0.134993 -0.008141
C29   C     C_R   0.001154 0.494280 0.134471 -0.027329
C30   C     C_R   0.991395 0.500865 0.365392 -0.017110
C31   C     C_R   0.501392 0.999739 0.364931 -0.011285
C32   C     C_R   0.993831 0.498689 0.634755 -0.022426
C33   C     C_R   0.501567 0.996517 0.635206 -0.014908
C34   C     C_R   0.481144 0.950522 0.797213 0.004482
C35   C     C_R   0.666796 0.708302 0.483627 -0.186492
C36   C     C_R   0.955551 0.533662 0.796625 -0.013120
C37   C     C_R   0.534795 0.046466 0.795070 -0.010117
C38   C     C_R   0.047947 0.468176 0.795517 0.004654
C39   C     C_R   0.483903 0.052544 0.203942 -0.008862
C40   C     C_R   0.962278 0.453090 0.203380 0.002367
C41   C     C_R   0.528237 0.949266 0.204680 -0.009473
C42   C     C_R   0.028595 0.540222 0.203408 -0.008658
C43   C     C_R   0.968787 0.449264 0.296182 0.021795
C44   C     C_R   0.467464 0.043141 0.295500 -0.011121
C45   C     C_R   0.013190 0.550476 0.295032 -0.028143
C46   C     C_R   0.264307 0.642470 0.435565 -0.174569
C47   C     C_R   0.540296 0.958106 0.296501 -0.006159
C48   C     C_R   0.962692 0.545374 0.704270 0.005696
C49   C     C_R   0.463618 0.960050 0.705607 -0.019155
C50   C     C_R   0.036222 0.459992 0.703472 -0.005850
C51   C     C_R   0.544388 0.033836 0.703148 -0.011112
C52   C     C_R   0.506311 0.998578 0.773362 0.016262
C53   C     C_R   0.002812 0.503304 0.773164 0.038623
C54   C     C_R   0.505468 0.000827 0.227060 0.019549
C55   C     C_R   0.993595 0.497884 0.226489 0.029087
C56   C     C_R   0.991968 0.499131 0.272757 0.031137
C57   C     C_R   0.337241 0.292364 0.464324 -0.168364
C58   C     C_R   0.504374 0.000660 0.272981 0.022122
C59   C     C_R   0.001778 0.504035 0.726858 0.031122
C60   C     C_R   0.504468 0.997786 0.727351 0.012848
C61   C     C_R   0.445027 0.908418 0.774988 -0.091059
C62   C     C_R   0.914925 0.573098 0.773703 -0.127024
C63   C     C_R   0.569390 0.087442 0.770026 -0.098024
C64   C     C_R   0.088576 0.430841 0.770884 -0.106608
C65   C     C_R   0.453207 0.099556 0.227325 -0.101328
C66   C     C_R   0.935848 0.405419 0.226988 -0.100327
C67   C     C_R   0.559467 0.903039 0.228879 -0.100787
C68   C     C_R   0.719071 0.400731 0.399819 -0.131752
C69   C     C_R   0.051315 0.590363 0.225688 -0.096335
C70   C     C_R   0.941652 0.402063 0.272488 -0.084246
C71   C     C_R   0.441932 0.093060 0.272355 -0.110766
C72   C     C_R   0.040948 0.597010 0.270481 -0.117224
C73   C     C_R   0.568556 0.909350 0.274002 -0.093048
C74   C     C_R   0.920837 0.581454 0.728585 -0.101752
C75   C     C_R   0.433341 0.915447 0.730144 -0.111372
C76   C     C_R   0.081041 0.424845 0.725773 -0.098614
C77   C     C_R   0.577058 0.078962 0.724871 -0.105519
C78   C     C_R   0.595409 0.197257 0.549668 0.068076
C79   C     C_R   0.163891 0.778805 0.992611 -0.085788
C80   C     C_R   0.200698 0.400694 0.551034 0.066884
C81   C     C_R   0.386640 0.808959 0.514147 0.066002
C82   C     C_R   0.792200 0.594098 0.546250 0.095355
C83   C     C_R   0.614763 0.805360 0.476885 0.071900
C84   C     C_R   0.181284 0.574743 0.442059 0.075251
C85   C     C_R   0.387357 0.194020 0.469184 0.064562
C86   C     C_R   0.798098 0.475300 0.412352 0.090309
C87   C     C_R   0.108947 0.699454 0.030304 0.072173
C88   C     C_R   0.696199 0.886683 0.036771 0.069936
C89   C     C_R   0.899620 0.298089 0.043734 0.142451
C90   C     C_R   0.797049 0.844327 0.049890 -0.187172
C91   C     C_R   0.304257 0.028119 0.081181 0.051349
C92   C     C_R   0.094890 0.295694 0.951584 0.108978
C93   C     C_R   0.701602 0.052085 0.929329 0.089043
C94   C     C_R   0.906506 0.687959 0.954028 0.073346
C95   C     C_R   0.309629 0.998580 0.918794 0.041735
C96   C     C_R   0.633539 0.237761 0.572392 -0.021191
C97   C     C_R   0.242998 0.358549 0.570820 -0.045026
C98   C     C_R   0.334931 0.774829 0.504056 -0.033574
C99   C     C_R   0.762584 0.609386 0.586749 -0.007973
C100  C     C_R   0.669395 0.771343 0.484731 -0.040304
C101  C     C_R   0.913065 0.221618 0.101469 -0.105031
C102  C     C_R   0.201525 0.633845 0.434239 -0.011848
C103  C     C_R   0.332624 0.229928 0.470442 -0.028480
C104  C     C_R   0.766236 0.435853 0.383524 -0.003183
C105  C     C_R   0.164253 0.730182 0.022099 -0.020703
C106  C     C_R   0.735793 0.835100 0.040773 -0.042992
C107  C     C_R   0.875874 0.266212 0.080851 0.025329
C108  C     C_R   0.274826 0.011800 0.120918 -0.021737
C109  C     C_R   0.110114 0.267228 0.910848 0.013402
C110  C     C_R   0.730010 0.105363 0.912529 -0.026087
C111  C     C_R   0.846060 0.710851 0.953063 -0.007732
C112  C     C_R   0.118701 0.498572 0.502012 0.582731
C113  C     C_R   0.225807 0.972636 0.119468 -0.160593
C114  C     C_R   0.285026 0.033631 0.883552 -0.030266
C115  C     C_2   0.540678 0.111070 0.861827 0.588396
C116  C     C_2   0.101319 0.438729 0.865069 0.581531
C117  C     C_2   0.504824 0.883629 0.861931 0.617896
C118  C     C_2   0.885443 0.519595 0.860660 0.602241
C119  C     C_2   0.503451 0.884063 0.140926 0.594541
C120  C     C_2   0.108069 0.530939 0.146057 0.605327
C121  C     C_2   0.511334 0.115584 0.138611 0.628118
C122  C     C_2   0.916188 0.419763 0.132942 0.579450
C123  C     C_2   0.003481 0.615637 0.361520 0.595726
C124  C     C_R   0.067928 0.228045 0.892043 -0.119855
C125  C     C_2   0.614088 0.969843 0.356448 0.600748
C126  C     C_2   0.955305 0.391433 0.366003 0.586481
C127  C     C_2   0.390202 0.031508 0.353696 0.578001
C128  C     C_2   0.016712 0.385826 0.643952 0.604590
C129  C     C_2   0.616565 0.012633 0.641899 0.613543
C130  C     C_2   0.931670 0.596893 0.634294 0.584660
C131  C     C_2   0.389689 0.968170 0.643690 0.586836
C132  C     C_R   0.271124 0.202485 0.470386 0.057823
C133  C     C_R   0.256686 0.158406 0.502228 -0.049280
C134  C     C_R   0.199963 0.130432 0.501420 -0.112004
C135  C     C_R   0.774225 0.133648 0.938014 -0.120221
C136  C     C_R   0.156541 0.147360 0.469661 -0.102692
C137  C     C_R   0.170037 0.191783 0.438300 -0.092533
C138  C     C_R   0.227119 0.219113 0.438453 -0.071610
C139  C     C_R   0.158583 0.684005 0.420942 0.084417
C140  C     C_R   0.104535 0.694749 0.445244 -0.051330
C141  C     C_R   0.064501 0.743096 0.434052 -0.097879
C142  C     C_R   0.077982 0.781056 0.398501 -0.082412
C143  C     C_R   0.131696 0.770962 0.374253 -0.078717
C144  C     C_R   0.171978 0.722793 0.385408 -0.033318
C145  C     C_R   0.730159 0.800019 0.485799 0.061764
C146  C     C_R   0.836824 0.773353 0.959077 -0.150069
C147  C     C_R   0.741764 0.845157 0.516983 -0.057006
C148  C     C_R   0.798992 0.872092 0.518498 -0.097113
C149  C     C_R   0.844965 0.854324 0.488845 -0.081141
C150  C     C_R   0.833628 0.809918 0.457418 -0.094245
C151  C     C_R   0.776426 0.782919 0.455764 -0.055838
C152  C     C_R   0.774510 0.433149 0.335225 0.089475
C153  C     C_R   0.796175 0.379093 0.315493 -0.079241
C154  C     C_R   0.795725 0.373328 0.269723 -0.130876
C155  C     C_R   0.774246 0.421584 0.243351 -0.091447
C156  C     C_R   0.752082 0.475309 0.262715 -0.087513
C157  C     C_R   0.230049 0.065828 0.889632 -0.172842
C158  C     C_R   0.751124 0.480738 0.308497 -0.033600
C159  C     C_R   0.275800 0.804853 0.491224 0.066516
C160  C     C_R   0.275238 0.850111 0.458299 -0.057202
C161  C     C_R   0.220379 0.879854 0.446253 -0.102014
C162  C     C_R   0.165669 0.864957 0.467066 -0.094395
C163  C     C_R   0.165650 0.820027 0.499767 -0.098727
C164  C     C_R   0.220329 0.789902 0.511796 -0.067148
C165  C     C_R   0.222784 0.304656 0.596335 0.052674
C166  C     C_R   0.194187 0.256482 0.575251 -0.045454
C167  C     C_R   0.172839 0.207286 0.599769 -0.094077
C168  C     C_R   0.549220 0.309137 0.572810 0.060100
C169  C     C_R   0.180675 0.205427 0.645351 -0.079365
C170  C     C_R   0.209464 0.252993 0.666597 -0.083913
C171  C     C_R   0.230321 0.302512 0.642279 -0.064179
C172  C     C_R   0.694427 0.218358 0.589902 0.059970
C173  C     C_R   0.742995 0.205780 0.560758 -0.036555
C174  C     C_R   0.800362 0.186904 0.576925 -0.096577
C175  C     C_R   0.809518 0.180364 0.622215 -0.083969
C176  C     C_R   0.761321 0.192689 0.651432 -0.075561
C177  C     C_R   0.703920 0.211686 0.635421 -0.059529
C178  C     C_R   0.774563 0.665181 0.612484 0.076926
C179  C     C_R   0.317912 0.434554 0.564916 -0.002489
C180  C     C_R   0.763814 0.723402 0.594368 -0.058234
C181  C     C_R   0.772395 0.775370 0.619784 -0.095512
C182  C     C_R   0.790788 0.769669 0.663594 -0.088549
C183  C     C_R   0.800010 0.712000 0.682279 -0.105872
C184  C     C_R   0.791439 0.660033 0.657010 -0.072736
C185  C     C_R   0.795796 0.671865 0.938001 0.071132
C186  C     C_R   0.791566 0.612250 0.954637 -0.050326
C187  C     C_R   0.745176 0.574561 0.940319 -0.095022
C188  C     C_R   0.702814 0.595820 0.909096 -0.090720
C189  C     C_R   0.706711 0.654856 0.892187 -0.099605
C190  C     C_R   0.395030 0.687182 0.526749 -0.045347
C191  C     C_R   0.752904 0.692822 0.906506 -0.055001
C192  C     C_R   0.717535 0.132815 0.868820 0.091650
C193  C     C_R   0.681593 0.186551 0.865224 -0.055704
C194  C     C_R   0.673467 0.215074 0.824329 -0.107216
C195  C     C_R   0.702264 0.190926 0.786963 -0.116139
C196  C     C_R   0.739570 0.138447 0.790508 -0.100207
C197  C     C_R   0.747947 0.109938 0.831386 -0.016193
C198  C     C_R   0.169786 0.273640 0.888205 0.076184
C199  C     C_R   0.224150 0.252713 0.908610 -0.055233
C200  C     C_R   0.279924 0.254341 0.886010 -0.105603
C201  C     C_R   0.699419 0.520887 0.580222 0.030459
C202  C     C_R   0.281796 0.276364 0.842820 -0.095046
C203  C     C_R   0.227825 0.296393 0.822055 -0.112911
C204  C     C_R   0.171941 0.294501 0.844477 -0.078661
C205  C     C_R   0.315463 0.039906 0.840441 0.065613
C206  C     C_R   0.293162 0.009285 0.803649 -0.060132
C207  C     C_R   0.317482 0.020581 0.761897 -0.104523
C208  C     C_R   0.363294 0.063221 0.756597 -0.100586
C209  C     C_R   0.385641 0.093805 0.793127 -0.109715
C210  C     C_R   0.362212 0.081892 0.835049 -0.082279
C211  C     C_R   0.812330 0.274947 0.097620 0.059214
C212  C     C_R   0.611058 0.681533 0.474823 -0.030109
C213  C     C_R   0.762037 0.264159 0.070180 -0.038606
C214  C     C_R   0.702309 0.268854 0.086683 -0.099021
C215  C     C_R   0.692234 0.283497 0.130795 -0.084162
C216  C     C_R   0.741896 0.293093 0.158552 -0.106776
C217  C     C_R   0.801727 0.288387 0.142205 -0.101338
C218  C     C_R   0.713082 0.772019 0.040881 0.062469
C219  C     C_R   0.679455 0.751386 0.004812 -0.048983
C220  C     C_R   0.658951 0.691699 0.004007 -0.094306
C221  C     C_R   0.672697 0.651833 0.038778 -0.096458
C222  C     C_R   0.706548 0.671755 0.074613 -0.099090
C223  C     C_R   0.500604 0.880836 0.499168 0.558009
C224  C     C_R   0.303688 0.593485 0.446678 -0.036200
C225  C     C_R   0.726661 0.731606 0.075774 -0.072559
C226  C     C_R   0.223134 0.713214 0.043758 0.067861
C227  C     C_R   0.274823 0.696665 0.018477 -0.066751
C228  C     C_R   0.330649 0.682312 0.039001 -0.095397
C229  C     C_R   0.335353 0.684679 0.084789 -0.093144
C230  C     C_R   0.284256 0.701488 0.110142 -0.083890
C231  C     C_R   0.228361 0.715921 0.089762 -0.030425
C232  C     C_R   0.287743 0.040319 0.163706 0.061380
C233  C     C_R   0.273281 0.102398 0.169834 -0.037809
C234  C     C_R   0.277522 0.128182 0.211514 -0.104211
C235  C     C_R   0.394999 0.317089 0.460050 -0.035937
C236  C     C_R   0.295300 0.092068 0.247419 -0.102481
C237  C     C_R   0.310416 0.030376 0.241567 -0.100649
C238  C     C_R   0.306693 0.004473 0.199817 -0.087998
C239  C     C_2   0.604256 0.134755 0.564880 0.620765
C240  C     C_2   0.137895 0.395620 0.566503 0.626158
C241  C     C_2   0.375446 0.853744 0.549892 0.646552
C242  C     C_2   0.830079 0.639808 0.523258 0.595024
C243  C     C_2   0.619579 0.855983 0.444791 0.636872
C244  C     C_2   0.151068 0.543654 0.404840 0.603463
C245  C     C_2   0.386031 0.140628 0.440064 0.641607
C246  C     C_R   0.694669 0.411273 0.441335 0.016113
C247  C     C_2   0.839477 0.522126 0.393377 0.586993
C248  C     C_2   0.111473 0.646227 0.059895 0.608132
C249  C     C_2   0.637223 0.882153 0.060047 0.636026
C250  C     C_2   0.858065 0.337473 0.016760 0.606336
C251  C     C_2   0.346689 0.079310 0.080881 0.580198
C252  C     C_2   0.141018 0.330311 0.976274 0.617328
C253  C     C_2   0.667969 0.010010 0.899630 0.607568
C254  C     C_2   0.930886 0.662047 0.912109 0.607344
C255  C     C_2   0.347998 0.943394 0.909559 0.596206
C256  C     C_2   0.504478 0.333672 0.605750 0.586301
C257  C     C_R   0.108589 0.805645 0.978813 0.034462
C258  C     C_2   0.335514 0.471420 0.603531 0.657290
C259  C     C_2   0.395940 0.649047 0.567335 0.645094
C260  C     C_2   0.664974 0.473226 0.603800 0.619441
C261  C     C_2   0.612321 0.637919 0.437485 0.621439
C262  C     C_2   0.358219 0.589265 0.417725 0.631947
C263  C     C_2   0.402551 0.360662 0.422984 0.627051
C264  C     C_2   0.646342 0.370191 0.457330 0.580078
C265  C     C_2   0.111335 0.849575 0.941573 0.608878
C266  C     C_2   0.860661 0.916804 0.087364 0.636832
C267  C     C_2   0.010895 0.161344 0.105570 0.624549
C268  C     C_R   0.818940 0.903169 0.050326 -0.025858
C269  C     C_2   0.149843 0.913308 0.080266 0.616781
C270  C     C_2   0.970517 0.170165 0.896775 0.650220
C271  C     C_2   0.839836 0.137813 0.004815 0.557829
C272  C     C_2   0.886789 0.864023 0.934102 0.611005
C273  C     C_2   0.141752 0.098787 0.932514 0.583184
C274  C     C_R   0.964821 0.197606 0.079785 0.043478
C275  C     C_R   0.197166 0.960367 0.079551 0.019911
C276  C     C_R   0.021766 0.202721 0.918177 0.081512
C277  C     C_R   0.799603 0.103779 0.974763 0.024758
C278  C     C_R   0.887822 0.810388 0.964158 -0.034368
C279  C     C_R   0.880673 0.501875 0.496343 0.576279
C280  C     C_R   0.196206 0.058910 0.928281 0.031104
C281  C     C_R   0.527545 0.282490 0.533599 0.030781
C282  C     C_R   0.285379 0.463895 0.530026 -0.026183
C283  C     C_R   0.448858 0.716880 0.512178 -0.014901
C284  C     C_R   0.720583 0.512899 0.536492 -0.042481
C285  C     C_R   0.556155 0.714276 0.486811 -0.003124
C286  C     C_R   0.279479 0.543740 0.472088 -0.031708
C287  C     C_R   0.445650 0.284704 0.479535 -0.003633
C288  C     C_R   0.720000 0.456802 0.467852 -0.043626
C289  C     C_R   0.052855 0.782431 0.995313 -0.030781
C290  C     C_R   0.999834 0.619116 0.002008 0.589901
C291  C     C_R   0.785350 0.949760 0.026995 -0.028806
C292  C     C_R   0.978185 0.220405 0.037276 0.010620
C293  C     C_R   0.220599 0.986633 0.040004 -0.007809
C294  C     C_R   0.019025 0.220521 0.962963 0.010517
C295  C     C_R   0.778472 0.045541 0.985467 -0.054523
C296  C     C_R   0.943544 0.782911 0.981181 -0.054782
C297  C     C_R   0.219792 0.021850 0.963121 0.012241
C298  C     C_R   0.540618 0.220254 0.527297 -0.026523
C299  C     C_R   0.222358 0.452770 0.526521 -0.033048
C300  C     C_R   0.446180 0.780792 0.508053 -0.016751
C301  C     C_R   0.619016 0.998012 0.000096 0.584824
C302  C     C_R   0.776674 0.538609 0.524840 -0.041069
C303  C     C_R   0.557056 0.778752 0.487464 -0.017469
C304  C     C_R   0.215245 0.538016 0.472349 -0.026906
C305  C     C_R   0.443699 0.220344 0.483147 -0.015222
C306  C     C_R   0.779488 0.477670 0.457731 -0.029411
C307  C     C_R   0.053159 0.721760 0.010346 -0.025062
C308  C     C_R   0.720875 0.943624 0.022464 -0.024315
C309  C     C_R   0.959159 0.280369 0.027952 0.004505
C310  C     C_R   0.281508 0.005484 0.040946 -0.027488
C311  C     C_R   0.039718 0.278551 0.972522 -0.037649
C312  C     C_R   0.000445 0.381059 0.000313 0.577706
C313  C     C_R   0.719776 0.031351 0.972107 -0.035797
C314  C     C_R   0.948683 0.718382 0.980619 -0.038324
C315  C     C_R   0.282001 0.004879 0.960806 -0.009535
C316  C     C_R   0.490788 0.315350 0.503001 0.042401
C317  C     C_R   0.314558 0.504793 0.500598 -0.032026
C318  C     C_R   0.502531 0.684150 0.499834 0.022569
C319  C     C_R   0.687304 0.482613 0.503555 -0.016625
C320  C     C_R   0.996335 0.815063 0.994103 -0.012914
C321  C     C_R   0.814292 0.999723 0.006025 0.005384
C322  C     C_R   0.999072 0.186162 0.000053 0.068926
C323  C     C_R   0.381566 0.000805 0.000723 0.544443
C324  C     C_R   0.186547 0.001706 0.000899 0.036286
C325  C     C_R   0.495961 0.186850 0.502341 -0.006949
C326  C     C_R   0.186210 0.494962 0.500164 0.008352
C327  C     C_R   0.501422 0.812950 0.497985 -0.003102
C328  C     C_R   0.811934 0.508992 0.491200 0.040773
C329  C     C_R   0.999960 0.687129 0.000173 0.004661
C330  C     C_R   0.686808 0.990768 0.998775 0.014081
C331  C     C_R   0.000615 0.313821 0.000851 0.026053
C332  C     C_R   0.314706 0.002879 0.000847 0.033232
C333  C     C_R   0.381496 0.504236 0.500045 0.488916
C334  C     C_R   0.606999 0.291536 0.587721 -0.107597
C335  C     C_R   0.501737 0.618050 0.499925 0.507638
C336  C     C_R   0.618997 0.492907 0.500672 0.539444
C337  C     C_R   0.495799 0.381817 0.500522 0.552152
C338  C     C_R   0.881312 0.000057 0.001012 0.533678
C339  C     C_R   0.999477 0.118917 0.999928 0.594204
C340  C     C_R   0.119003 0.000122 0.000167 0.582683
C341  C     C_R   0.996270 0.881648 0.999136 0.518968
C342  C     C_R   0.500171 0.998262 0.585982 0.608224
C343  C     C_R   0.997360 0.499633 0.585726 0.604979
C344  C     C_R   0.500233 0.999821 0.414047 0.601501
Cu1   Cu    Cu3+1 0.438180 0.000000 0.500000 1.069256
Cu2   Cu    Cu3+1 0.500000 0.500000 0.544440 1.101042
Cu3   Cu    Cu3+1 0.000000 0.000000 0.955560 1.189478
Cu4   Cu    Cu3+1 0.000000 0.000000 0.044440 1.162476
Cu5   Cu    Cu3+1 1.000000 0.561820 0.500000 1.071129
Cu6   Cu    Cu3+1 0.561820 0.000000 0.500000 1.076791
Cu7   Cu    Cu3+1 1.000000 0.438180 0.500000 1.084285
Cu8   Cu    Cu3+1 0.938180 0.500000 0.000000 1.055877
Cu9   Cu    Cu3+1 0.500000 0.061820 0.000000 1.055810
Cu10  Cu    Cu3+1 0.061820 0.500000 0.000000 1.132561
Cu11  Cu    Cu3+1 0.500000 0.938180 0.000000 1.078153
Cu12  Cu    Cu3+1 0.500000 0.500000 0.455560 1.223551
H1    H     H_    0.422575 0.872091 0.792139 0.194639
H2    H     H_    0.415718 0.128379 0.289136 0.176519
H3    H     H_    0.321621 0.238044 0.901851 0.125129
H4    H     H_    0.324979 0.277413 0.825326 0.131320
H5    H     H_    0.229182 0.312830 0.788441 0.114674
H6    H     H_    0.130258 0.308847 0.827745 0.115740
H7    H     H_    0.256499 0.977398 0.807288 0.134774
H8    H     H_    0.300313 0.996865 0.733572 0.142153
H9    H     H_    0.381572 0.072493 0.724198 0.145356
H10   H     H_    0.420943 0.126949 0.788868 0.165314
H11   H     H_    0.379191 0.106550 0.863043 0.129421
H12   H     H_    0.769009 0.251421 0.036162 0.142282
H13   H     H_    0.057928 0.637536 0.285505 0.180319
H14   H     H_    0.663836 0.260642 0.065342 0.113464
H15   H     H_    0.645964 0.286923 0.143552 0.130493
H16   H     H_    0.733991 0.303808 0.192809 0.117475
H17   H     H_    0.839762 0.295603 0.164202 0.115001
H18   H     H_    0.669278 0.781532 0.977304 0.127084
H19   H     H_    0.632759 0.676223 0.976263 0.116667
H20   H     H_    0.657181 0.605491 0.037920 0.117948
H21   H     H_    0.717147 0.640824 0.101541 0.125316
H22   H     H_    0.752477 0.746446 0.103928 0.125197
H23   H     H_    0.271789 0.694700 0.982967 0.122388
H24   H     H_    0.594609 0.874237 0.291350 0.187865
H25   H     H_    0.370299 0.669445 0.019399 0.121937
H26   H     H_    0.378626 0.673645 0.100611 0.126395
H27   H     H_    0.288019 0.703573 0.145583 0.132059
H28   H     H_    0.189280 0.729550 0.109746 0.143732
H29   H     H_    0.257104 0.130379 0.142569 0.149364
H30   H     H_    0.265865 0.175902 0.216139 0.137624
H31   H     H_    0.297231 0.112110 0.279715 0.173949
H32   H     H_    0.324413 0.002498 0.269423 0.148524
H33   H     H_    0.317178 0.956371 0.195773 0.129009
H34   H     H_    0.655919 0.056914 0.562236 0.357535
H35   H     H_    0.889598 0.613496 0.712818 0.136560
H36   H     H_    0.059453 0.348293 0.564317 0.359661
H37   H     H_    0.321722 0.923105 0.572898 0.359697
H38   H     H_    0.855311 0.676868 0.465463 0.344835
H39   H     H_    0.659547 0.936232 0.431261 0.363370
H40   H     H_    0.134097 0.543442 0.339635 0.343953
H41   H     H_    0.347360 0.058900 0.429812 0.366556
H42   H     H_    0.878009 0.557926 0.338939 0.356980
H43   H     H_    0.152939 0.563974 0.070842 0.364211
H44   H     H_    0.555118 0.841331 0.062896 0.364530
H45   H     H_    0.828672 0.361044 0.955977 0.339124
H46   H     H_    0.403808 0.883227 0.714809 0.190895
H47   H     H_    0.370214 0.159238 0.053519 0.351954
H48   H     H_    0.176789 0.350396 0.035419 0.347922
H49   H     H_    0.642564 0.988625 0.837973 0.344325
H50   H     H_    0.925157 0.662401 0.845938 0.343463
H51   H     H_    0.373134 0.857784 0.927811 0.362247
H52   H     H_    0.564265 0.388770 0.635615 0.351336
H53   H     H_    0.417177 0.428459 0.610746 0.348463
H54   H     H_    0.318842 0.603780 0.552852 0.287666
H55   H     H_    0.610652 0.533050 0.637537 0.308645
H56   H     H_    0.688748 0.591376 0.457759 0.294282
H57   H     H_    0.111956 0.394019 0.708531 0.175920
H58   H     H_    0.389718 0.671382 0.435151 0.289398
H59   H     H_    0.326306 0.411636 0.437229 0.293256
H60   H     H_    0.682855 0.360649 0.518138 0.323717
H61   H     H_    0.044140 0.809555 0.907306 0.324003
H62   H     H_    0.916707 0.842802 0.078043 0.294033
H63   H     H_    0.948235 0.111349 0.137978 0.313523
H64   H     H_    0.105968 0.946167 0.134332 0.301575
H65   H     H_    0.019905 0.136622 0.844597 0.310248
H66   H     H_    0.816837 0.091514 0.060381 0.322628
H67   H     H_    0.801727 0.893682 0.952034 0.292746
H68   H     H_    0.605824 0.109896 0.706978 0.168083
H69   H     H_    0.104817 0.066960 0.876455 0.297647
H70   H     H_    0.628215 0.314614 0.614796 0.150306
H71   H     H_    0.332465 0.350034 0.598623 0.170481
H72   H     H_    0.296742 0.688323 0.518338 0.112547
H73   H     H_    0.879402 0.599295 0.790241 0.169133
H74   H     H_    0.703718 0.576660 0.637775 0.119771
H75   H     H_    0.709243 0.682141 0.481457 0.144888
H76   H     H_    0.282543 0.684186 0.422359 0.117838
H77   H     H_    0.296420 0.319249 0.456513 0.115667
H78   H     H_    0.698143 0.367636 0.378621 0.153931
H79   H     H_    0.206869 0.797902 0.982107 0.164138
H80   H     H_    0.825236 0.806358 0.061616 0.118998
H81   H     H_    0.899685 0.203482 0.133148 0.115016
H82   H     H_    0.207522 0.954951 0.150009 0.120205
H83   H     H_    0.074265 0.214484 0.858203 0.106646
H84   H     H_    0.593360 0.123987 0.785429 0.168857
H85   H     H_    0.791043 0.177521 0.927776 0.189048
H86   H     H_    0.792292 0.793379 0.951473 0.108415
H87   H     H_    0.212899 0.095698 0.863603 0.120086
H88   H     H_    0.525554 0.202043 0.861141 0.331521
H89   H     H_    0.192651 0.429766 0.873692 0.364873
H90   H     H_    0.563461 0.825293 0.892956 0.332151
H91   H     H_    0.820029 0.468596 0.888353 0.329119
H92   H     H_    0.442490 0.830439 0.111315 0.332387
H93   H     H_    0.181997 0.484002 0.122816 0.336511
H94   H     H_    0.574315 0.164750 0.106455 0.329605
H95   H     H_    0.124091 0.403060 0.786313 0.139182
H96   H     H_    0.827771 0.404204 0.119220 0.361384
H97   H     H_    0.953021 0.680851 0.392320 0.327176
H98   H     H_    0.682055 0.019804 0.381297 0.334724
H99   H     H_    0.972204 0.301900 0.376619 0.333730
H100  H     H_    0.319896 0.982136 0.376295 0.320707
H101  H     H_    0.963719 0.322853 0.616075 0.328466
H102  H     H_    0.679582 0.957801 0.612187 0.320059
H103  H     H_    0.917867 0.687267 0.625256 0.365121
H104  H     H_    0.317770 0.014889 0.617093 0.320808
H105  H     H_    0.289726 0.145172 0.527278 0.134956
H106  H     H_    0.433974 0.139339 0.210941 0.185188
H107  H     H_    0.189546 0.095867 0.525611 0.108108
H108  H     H_    0.112486 0.125957 0.469294 0.114084
H109  H     H_    0.136438 0.204669 0.413594 0.131897
H110  H     H_    0.237224 0.252378 0.413230 0.129808
H111  H     H_    0.093732 0.666287 0.473200 0.121409
H112  H     H_    0.023060 0.751148 0.452974 0.092076
H113  H     H_    0.046946 0.818438 0.389865 0.106964
H114  H     H_    0.142153 0.800512 0.346796 0.111344
H115  H     H_    0.213101 0.715455 0.365997 0.122385
H116  H     H_    0.706439 0.859336 0.540104 0.122035
H117  H     H_    0.913138 0.368913 0.210376 0.126548
H118  H     H_    0.807705 0.906670 0.542722 0.106753
H119  H     H_    0.889289 0.875121 0.490108 0.108891
H120  H     H_    0.869174 0.796398 0.434320 0.106491
H121  H     H_    0.768120 0.748999 0.430945 0.148522
H122  H     H_    0.812264 0.341095 0.335596 0.133157
H123  H     H_    0.812268 0.331480 0.254697 0.102174
H124  H     H_    0.774138 0.417091 0.207956 0.158689
H125  H     H_    0.734650 0.512341 0.242279 0.127766
H126  H     H_    0.731865 0.521772 0.323208 0.149232
H127  H     H_    0.317336 0.862366 0.441967 0.133468
H128  H     H_    0.580254 0.863660 0.213283 0.187541
H129  H     H_    0.220329 0.914589 0.420856 0.110324
H130  H     H_    0.123238 0.888119 0.457779 0.108114
H131  H     H_    0.123199 0.808583 0.515874 0.113594
H132  H     H_    0.219291 0.756099 0.537797 0.122151
H133  H     H_    0.187458 0.257721 0.539999 0.146517
H134  H     H_    0.149783 0.170756 0.583539 0.105870
H135  H     H_    0.164150 0.167287 0.664228 0.113682
H136  H     H_    0.215196 0.251739 0.701948 0.105607
H137  H     H_    0.251559 0.339581 0.659307 0.127115
H138  H     H_    0.736360 0.210639 0.525604 0.137165
H139  H     H_    0.074765 0.626060 0.208376 0.183088
H140  H     H_    0.837712 0.177291 0.554341 0.111849
H141  H     H_    0.853933 0.165679 0.634664 0.117353
H142  H     H_    0.768428 0.187411 0.686473 0.107588
H143  H     H_    0.666788 0.220528 0.658384 0.106890
H144  H     H_    0.748258 0.728322 0.560835 0.115471
H145  H     H_    0.764293 0.820184 0.605832 0.110003
H146  H     H_    0.797255 0.809941 0.683182 0.132082
H147  H     H_    0.813500 0.707538 0.716402 0.125343
H148  H     H_    0.797962 0.615585 0.672090 0.118827
H149  H     H_    0.823955 0.595036 0.978898 0.119206
H150  H     H_    0.923012 0.362867 0.288858 0.143276
H151  H     H_    0.742162 0.528808 0.953386 0.106060
H152  H     H_    0.666992 0.566539 0.897980 0.119599
H153  H     H_    0.673987 0.671185 0.867872 0.122441
H154  H     H_    0.755678 0.737985 0.892360 0.129695
H155  H     H_    0.659938 0.206280 0.894081 0.129639
H156  H     H_    0.645035 0.256029 0.821638 0.125901
H157  H     H_    0.695814 0.212976 0.755320 0.113760
H158  H     H_    0.762320 0.120096 0.761644 0.122859
H159  H     H_    0.777849 0.069934 0.833924 0.153033
H160  H     H_    0.223168 0.234265 0.941714 0.150304
O1    O     O_R   0.447800 0.090110 0.500010 -0.508425
O2    O     O_R   0.590110 0.052200 0.000010 -0.497285
O3    O     O_R   0.596290 0.837366 0.047892 -0.685183
O4    O     O_2   0.823582 0.374876 0.034239 -0.538468
O5    O     O_R   0.858664 0.331688 0.970971 -0.654891
O6    O     O_2   0.385436 0.082765 0.109399 -0.511196
O7    O     O_R   0.339351 0.126023 0.049734 -0.672404
O8    O     O_2   0.176646 0.363228 0.956995 -0.497483
O9    O     O_R   0.143806 0.324704 0.022089 -0.661081
O10   O     O_2   0.650960 0.960845 0.913321 -0.492739
O11   O     O_R   0.660487 0.023426 0.855009 -0.701307
O12   O     O_2   0.979866 0.633905 0.911106 -0.533535
O13   O     O_R   0.052200 0.409890 0.000010 -0.477173
O14   O     O_R   0.900993 0.676557 0.872633 -0.653896
O15   O     O_2   0.375821 0.938816 0.874954 -0.525192
O16   O     O_R   0.346791 0.893516 0.938326 -0.659951
O17   O     O_2   0.451551 0.317186 0.604542 -0.515429
O18   O     O_R   0.521235 0.373741 0.638892 -0.637767
O19   O     O_2   0.299989 0.510719 0.617330 -0.401872
O20   O     O_R   0.390337 0.459986 0.625971 -0.598430
O21   O     O_2   0.436085 0.656107 0.594609 -0.409051
O22   O     O_R   0.349498 0.608795 0.577256 -0.599256
O23   O     O_2   0.675084 0.419770 0.595117 -0.513705
O24   O     O_R   0.409890 0.947800 0.000010 -0.479127
O25   O     O_R   0.621492 0.488012 0.636150 -0.668221
O26   O     O_2   0.574135 0.643692 0.408362 -0.402398
O27   O     O_R   0.659850 0.594676 0.431919 -0.653191
O28   O     O_2   0.363577 0.546583 0.392335 -0.377407
O29   O     O_R   0.399558 0.636563 0.414530 -0.635374
O30   O     O_2   0.445725 0.353490 0.397760 -0.398248
O31   O     O_R   0.358982 0.406797 0.413795 -0.609560
O32   O     O_2   0.608445 0.351380 0.431643 -0.438550
O33   O     O_R   0.645123 0.349843 0.500892 -0.688136
O34   O     O_2   0.151501 0.887132 0.940559 -0.465712
O35   O     O_R   0.947800 0.409890 0.999990 -0.478764
O36   O     O_R   0.071835 0.845748 0.905594 -0.613687
O37   O     O_2   0.850708 0.962330 0.109397 -0.436471
O38   O     O_R   0.909185 0.877329 0.099428 -0.629390
O39   O     O_2   0.065376 0.167874 0.098345 -0.437448
O40   O     O_R   0.993669 0.119362 0.137784 -0.654408
O41   O     O_2   0.148654 0.876502 0.050725 -0.494140
O42   O     O_R   0.106312 0.909864 0.113978 -0.633218
O43   O     O_2   0.920051 0.171773 0.913949 -0.441665
O44   O     O_R   0.976917 0.139360 0.856760 -0.659240
O45   O     O_2   0.863872 0.183777 0.991496 -0.478231
O46   O     O_R   0.590110 0.947800 0.999990 -0.481522
O47   O     O_R   0.847211 0.121912 0.049171 -0.687998
O48   O     O_2   0.927090 0.868440 0.906492 -0.411865
O49   O     O_R   0.836064 0.904030 0.931259 -0.655326
O50   O     O_2   0.135551 0.131739 0.964471 -0.505984
O51   O     O_R   0.096654 0.098397 0.900153 -0.697485
O52   O     O_R   0.052200 0.590110 0.999990 -0.487123
O53   O     O_R   0.409890 0.052200 0.999990 -0.501514
O54   O     O_R   0.447790 0.999910 0.564880 -0.466006
O55   O     O_R   0.999910 0.552210 0.564880 -0.482352
O56   O     O_R   0.552210 0.000090 0.564880 -0.476309
O57   O     O_R   0.090110 0.552200 0.500010 -0.546560
O58   O     O_R   0.000090 0.447790 0.564880 -0.481310
O59   O     O_R   0.447790 0.000090 0.435120 -0.487207
O60   O     O_R   0.999910 0.447790 0.435120 -0.471010
O61   O     O_R   0.552210 0.999910 0.435120 -0.477552
O62   O     O_R   0.000090 0.552210 0.435120 -0.479760
O63   O     O_R   0.947790 0.499910 0.064880 -0.494237
O64   O     O_R   0.499910 0.052210 0.064880 -0.469929
O65   O     O_R   0.052210 0.500090 0.064880 -0.482724
O66   O     O_R   0.500090 0.947790 0.064880 -0.490210
O67   O     O_R   0.947790 0.500090 0.935120 -0.483249
O68   O     O_R   0.552200 0.909890 0.500010 -0.507282
O69   O     O_R   0.499910 0.947790 0.935120 -0.466438
O70   O     O_R   0.052210 0.499910 0.935120 -0.466198
O71   O     O_R   0.500090 0.052210 0.935120 -0.494963
O72   O     O_R   0.409850 0.499950 0.462440 -0.465799
O73   O     O_R   0.499950 0.590150 0.462440 -0.451005
O74   O     O_R   0.590150 0.500050 0.462440 -0.471173
O75   O     O_R   0.500050 0.409850 0.462440 -0.447383
O76   O     O_R   0.409850 0.500050 0.537560 -0.510812
O77   O     O_R   0.499950 0.409850 0.537560 -0.533146
O78   O     O_R   0.590150 0.499950 0.537560 -0.513904
O79   O     O_R   0.909890 0.447800 0.500010 -0.504755
O80   O     O_R   0.500050 0.590150 0.537560 -0.492942
O81   O     O_R   0.909850 0.999950 0.962440 -0.464368
O82   O     O_R   0.999950 0.090150 0.962440 -0.470975
O83   O     O_R   0.090150 0.000050 0.962440 -0.477724
O84   O     O_R   0.000050 0.909850 0.962440 -0.464507
O85   O     O_R   0.909850 0.000050 0.037560 -0.495648
O86   O     O_R   0.999950 0.909850 0.037560 -0.460127
O87   O     O_R   0.090150 0.999950 0.037560 -0.508939
O88   O     O_R   0.000050 0.090150 0.037560 -0.499932
O89   O     O_2   0.576490 0.114072 0.892456 -0.503081
O90   O     O_R   0.447800 0.909890 0.499990 -0.513046
O91   O     O_R   0.512785 0.164238 0.844967 -0.738445
O92   O     O_2   0.090792 0.399018 0.891948 -0.518672
O93   O     O_R   0.161609 0.454591 0.855899 -0.676295
O94   O     O_2   0.464015 0.846659 0.862279 -0.515139
O95   O     O_R   0.561848 0.868070 0.880241 -0.650609
O96   O     O_2   0.852818 0.565505 0.862104 -0.510637
O97   O     O_R   0.863195 0.464345 0.876189 -0.671674
O98   O     O_2   0.541830 0.842667 0.143174 -0.519932
O99   O     O_R   0.446107 0.873585 0.122460 -0.689878
O100  O     O_2   0.138410 0.575518 0.153960 -0.509699
O101  O     O_R   0.090110 0.447800 0.499990 -0.473063
O102  O     O_R   0.136558 0.478929 0.128114 -0.676032
O103  O     O_2   0.474851 0.158717 0.139673 -0.501867
O104  O     O_R   0.568676 0.122314 0.118846 -0.675882
O105  O     O_2   0.935390 0.382810 0.106215 -0.529824
O106  O     O_R   0.853399 0.428395 0.140158 -0.717574
O107  O     O_2   0.049471 0.645801 0.362744 -0.507088
O108  O     O_R   0.948604 0.638938 0.379131 -0.657841
O109  O     O_2   0.648989 0.926513 0.349469 -0.500882
O110  O     O_R   0.636601 0.023094 0.374665 -0.675306
O111  O     O_2   0.910930 0.392236 0.390577 -0.526015
O112  O     O_R   0.552200 0.090110 0.499990 -0.482084
O113  O     O_R   0.988890 0.337261 0.359154 -0.694575
O114  O     O_2   0.357040 0.076393 0.347496 -0.535502
O115  O     O_R   0.365527 0.977953 0.370384 -0.707692
O116  O     O_2   0.058289 0.348441 0.650245 -0.525994
O117  O     O_R   0.962353 0.367487 0.624386 -0.683431
O118  O     O_2   0.654241 0.051666 0.648597 -0.529036
O119  O     O_R   0.634837 0.958398 0.621204 -0.691710
O120  O     O_2   0.893983 0.584118 0.606623 -0.505554
O121  O     O_R   0.943229 0.657665 0.643852 -0.684708
O122  O     O_2   0.359469 0.922822 0.649452 -0.515810
O123  O     O_R   0.909890 0.552200 0.499990 -0.448863
O124  O     O_R   0.362348 0.020441 0.624953 -0.693144
O125  O     O_2   0.567794 0.114548 0.591207 -0.527747
O126  O     O_R   0.655128 0.100099 0.550583 -0.676301
O127  O     O_2   0.117912 0.432957 0.592681 -0.517844
O128  O     O_R   0.102372 0.347694 0.551899 -0.692240
O129  O     O_2   0.411633 0.856746 0.580379 -0.471940
O130  O     O_R   0.323982 0.892974 0.548024 -0.692268
O131  O     O_2   0.865757 0.670908 0.543644 -0.504174
O132  O     O_R   0.825003 0.647037 0.477782 -0.679833
O133  O     O_2   0.582601 0.861256 0.414802 -0.498706
O134  O     O_R   0.947800 0.590110 0.000010 -0.537303
O135  O     O_R   0.664558 0.899268 0.450675 -0.686974
O136  O     O_2   0.133457 0.491588 0.408951 -0.523522
O137  O     O_R   0.149811 0.571264 0.363294 -0.652835
O138  O     O_2   0.426736 0.132302 0.412955 -0.492455
O139  O     O_R   0.339872 0.098379 0.445658 -0.688252
O140  O     O_2   0.853802 0.565938 0.415071 -0.447373
O141  O     O_R   0.858285 0.519293 0.349527 -0.714436
O142  O     O_2   0.070912 0.638455 0.086945 -0.516726
O143  O     O_R   0.159181 0.603148 0.054369 -0.677612
O144  O     O_2   0.624179 0.918238 0.089222 -0.498464

loop_
_geom_bond_atom_site_label_1
_geom_bond_atom_site_label_2
_ccdc_geom_bond_type
C172  C177  A    
C101  C107  A    
Cu9   O53   S    
C200  H3    S    
C174  H140  S    
C8    C26   A    
C116  O93   S    
C18   C47   A    
C267  O40   S    
C41   C67   A    
C183  H147  S    
Cu11  O69   S    
C126  O113  S    
C270  C276  S    
C250  O4    D    
C49   C60   A    
C50   C59   A    
C301  O46   A    
C177  H143  S    
C282  C317  A    
C207  H8    S    
C230  H27   S    
C94   C254  S    
C18   C125  S    
C149  H119  S    
C92   C109  A    
C291  C321  A    
C143  C144  A    
C295  C313  A    
C94   C111  A    
C126  O111  D    
C260  O23   D    
C46   C224  A    
C209  H10   S    
C82   C242  S    
C248  O143  S    
C176  H142  S    
C16   C122  S    
C182  C183  A    
C220  C221  A    
C233  H29   S    
C36   C53   A    
C169  H135  S    
C118  O96   D    
C263  O31   S    
C294  C322  A    
C45   C56   A    
C78   C96   A    
C223  O68   A    
H92   O99   S    
C270  O43   D    
C1    O112  A    
C103  C132  S    
Cu5   O62   S    
C85   C103  A    
C255  O16   S    
C213  H12   S    
C199  C200  A    
C57   H77   S    
C17   C30   A    
C39   C65   A    
Cu2   O78   S    
C292  C322  A    
C234  C236  A    
C36   C62   A    
C190  C259  S    
Cu2   Cu12  S    
C228  C229  A    
Cu9   Cu11  S    
C179  C258  S    
C194  H156  S    
C342  O54   A    
C38   C64   A    
C212  C261  S    
C202  C203  A    
C324  C340  S    
C48   C74   A    
C318  C335  S    
C257  C265  S    
C140  C141  A    
C297  C315  A    
H47   O7    S    
C68   H78   S    
C258  O19   D    
Cu4   O88   S    
C206  C207  A    
C68   C246  A    
C3    O60   A    
C135  H85   S    
C34   C61   A    
C243  O133  D    
C23   C130  S    
C261  O27   S    
C108  C113  A    
C215  C216  A    
C114  C157  A    
C229  C230  A    
C221  H20   S    
C130  O120  D    
C42   C55   A    
C276  C294  A    
C178  C180  A    
C175  C176  A    
C277  C295  A    
C11   C27   A    
C212  C285  A    
C40   C55   A    
C278  C296  A    
C254  O14   S    
Cu3   O81   S    
C241  O129  D    
C216  C217  A    
Cu2   O80   S    
C288  C306  A    
C154  C155  A    
H52   O18   S    
C99   C178  S    
C310  C332  A    
C293  C310  A    
C256  O18   S    
C285  C303  A    
C163  H131  S    
C83   C100  A    
C198  C204  A    
C51   C60   A    
C133  H105  S    
C130  O121  S    
C154  H123  S    
C285  C318  A    
C272  C278  S    
C335  O73   A    
C9    C116  S    
C96   C334  A    
H48   O9    S    
C288  C319  A    
C196  C197  A    
C296  C320  A    
C281  C298  A    
C116  O92   D    
C4    O63   A    
C139  C140  A    
C83   C303  A    
C289  C307  A    
C260  O25   S    
C222  C225  A    
C104  C152  S    
C156  C158  A    
Cu1   O59   S    
C249  O144  D    
H96   O106  S    
H45   O5    S    
C240  O128  S    
C266  O37   D    
H42   O141  S    
C155  H124  S    
C66   C70   A    
C38   C53   A    
C217  H17   S    
C203  H5    S    
C46   H76   S    
C102  C139  S    
C180  H144  S    
H104  O124  S    
H59   O31   S    
C201  C260  S    
C127  O115  S    
C195  C196  A    
C245  O138  D    
C86   C306  A    
C200  C202  A    
C193  C194  A    
C155  C156  A    
C136  H108  S    
C173  H138  S    
C188  C189  A    
C18   C31   A    
C186  C187  A    
H44   O3    S    
C170  H136  S    
C344  O61   A    
C265  O36   S    
H89   O93   S    
C151  H121  S    
C233  C234  A    
C137  H109  S    
C165  C171  A    
C33   C342  S    
C179  C282  A    
C86   C247  S    
Cu5   O57   S    
C80   C97   A    
C69   C72   A    
C84   C102  A    
C246  C288  A    
C128  O117  S    
C147  H116  S    
C242  O131  D    
C86   C104  A    
H37   O130  S    
C301  O2    A    
C257  C289  A    
C167  C169  A    
C23   C48   A    
C196  H158  S    
C141  H112  S    
C162  H130  S    
C7    C26   S    
H53   O20   S    
C17   C45   A    
C168  C281  A    
C39   C54   A    
C170  C171  A    
H90   O95   S    
C168  C256  S    
C293  C324  A    
C190  C283  A    
C300  C327  A    
C139  C144  A    
C333  O76   A    
Cu1   Cu6   S    
C189  C191  A    
C174  C175  A    
C63   H84   S    
C52   C60   A    
C47   C58   A    
C84   C304  A    
C146  H86   S    
C259  O22   S    
C294  C311  A    
C272  O48   D    
Cu6   O56   S    
C244  O136  D    
C93   C313  A    
Cu8   O67   S    
C341  O86   A    
C49   C75   A    
C248  O142  D    
C338  O81   A    
Cu1   O54   S    
C302  C328  A    
H91   O97   S    
C121  O104  S    
C125  O110  S    
C305  C325  A    
C237  C238  A    
H98   O110  S    
C85   C245  S    
C295  C321  A    
C166  C167  A    
C67   H128  S    
C253  O11   S    
C5    O64   A    
C4    O65   A    
C20   C44   A    
C282  C299  A    
C25   C49   A    
C92   C252  S    
C6    O67   A    
C24   C201  A    
C273  C280  S    
C296  C314  A    
C79   C257  A    
C323  O53   A    
C250  O5    S    
C20   C127  S    
C111  C146  A    
C234  H30   S    
C37   C52   A    
C150  H120  S    
C117  O95   S    
C224  C262  S    
Cu10  O65   S    
C120  O102  S    
C273  O50   D    
C298  C325  A    
C13   C190  A    
C77   H68   S    
C208  H9    S    
C167  H134  S    
C35   C212  A    
C221  C222  A    
C247  O140  D    
Cu10  O13   S    
C344  O59   A    
C12   C119  S    
C87   C105  A    
C340  O83   A    
C271  C277  S    
C100  C145  S    
C197  H159  S    
C24   H74   S    
C209  C210  A    
C145  C151  A    
C21   C128  S    
C339  O88   A    
C303  C327  A    
C338  O85   A    
C266  C268  S    
Cu9   O71   S    
Cu12  O75   S    
C88   C308  A    
C299  C326  A    
Cu10  O52   S    
C269  O42   S    
C181  H145  S    
C252  O9    S    
H99   O113  S    
C14   C29   A    
C35   C100  A    
C320  C341  S    
C291  C308  A    
C246  C264  S    
C312  O35   A    
C48   C59   A    
H50   O14   S    
C108  C232  S    
C188  H152  S    
C272  O49   S    
C238  H33   S    
C235  C263  S    
Cu7   O101  S    
C199  H160  S    
C129  O118  D    
C279  C328  S    
C307  C329  A    
C304  C326  A    
C136  C137  A    
C236  H31   S    
H62   O38   S    
C267  O39   D    
C66   H117  S    
C93   C110  A    
C239  O126  S    
C114  C205  S    
C2    H71   S    
H34   O126  S    
C166  H133  S    
C311  C331  A    
C10   C117  S    
H60   O33   S    
Cu8   O134  S    
C19   C30   A    
C321  C338  S    
C195  H157  S    
C274  C292  A    
C205  C210  A    
C289  C320  A    
C74   H35   S    
C9    C38   A    
C287  C316  A    
C138  H110  S    
C101  C274  A    
C122  O105  D    
C118  O97   S    
C15   C28   A    
H93   O102  S    
C78   C298  A    
C152  C153  A    
C124  H83   S    
C202  H4    S    
C123  O108  S    
C286  C317  A    
C150  C151  A    
C204  H6    S    
C65   H106  S    
C336  O78   A    
C146  C278  A    
C11   C118  S    
C82   C302  A    
C314  C329  A    
C25   C33   A    
C88   C249  S    
C92   C311  A    
C128  O116  D    
C70   H150  S    
C55   C56   A    
Cu5   O123  S    
H36   O128  S    
C78   C239  S    
Cu1   O90   S    
C247  O141  S    
C82   C99   A    
C224  C286  A    
C113  H82   S    
Cu12  O73   S    
C73   H24   S    
C113  C275  A    
C161  C162  A    
C134  H107  S    
C91   C251  S    
C181  C182  A    
C249  O3    S    
Cu12  O72   S    
C251  O6    D    
C12   C28   A    
C143  H114  S    
H100  O115  S    
C286  C304  A    
C258  O20   S    
Cu4   O85   S    
C93   C253  S    
C107  C211  S    
C81   C98   A    
C95   C114  A    
C132  C138  A    
C222  H21   S    
C83   C243  S    
C201  C284  A    
C261  O26   D    
C341  O84   A    
C81   C241  S    
C175  H141  S    
C306  C328  A    
C131  O124  S    
C265  O34   D    
C292  C309  A    
C275  C293  A    
C80   C299  A    
C57   C235  A    
C220  H19   S    
C178  C184  A    
C147  C148  A    
C2    C97   A    
C44   C58   A    
C208  C209  A    
Cu8   Cu10  S    
C144  H115  S    
C336  O74   A    
Cu3   O84   S    
C67   C73   A    
C281  C316  A    
Cu12  O74   S    
C4    C29   S    
C164  H132  S    
C35   H75   S    
Cu11  O24   S    
C237  H32   S    
C194  C195  A    
C312  C331  S    
C40   C66   A    
C210  H11   S    
C280  C297  A    
C109  C198  S    
C309  C331  A    
C211  C217  A    
Cu9   O64   S    
C115  O91   S    
C145  C147  A    
C19   C43   A    
C185  C191  A    
C319  C336  S    
C57   C103  A    
H97   O108  S    
C152  C158  A    
C223  O90   A    
C207  C208  A    
C333  O72   A    
C90   C106  A    
C223  C327  S    
C89   C250  S    
C81   C300  A    
C219  C220  A    
C206  H7    S    
C7    O71   A    
C205  C206  A    
Cu8   O63   S    
C61   C75   A    
C94   C314  A    
C140  H111  S    
C90   C268  A    
C51   C77   A    
C290  O52   A    
C12   C41   A    
C266  O38   S    
C159  C160  A    
C213  C214  A    
C37   C63   A    
C89   C107  A    
H102  O119  S    
C3    O62   A    
C192  C197  A    
C268  C291  A    
H101  O117  S    
C47   C73   A    
C279  O79   A    
Cu9   O2    S    
C106  C218  S    
Cu6   O68   S    
H41   O139  S    
C22   C129  S    
C133  C134  A    
C1    O1    A    
H54   O22   S    
Cu1   O1    S    
C8    C37   A    
C64   H95   S    
Cu3   Cu4   S    
C180  C181  A    
C9    C27   A    
C162  C163  A    
C264  O32   D    
C91   C310  A    
C337  O77   A    
C158  H126  S    
C343  O55   A    
C69   H139  S    
C135  C277  A    
C91   C108  A    
C252  O8    D    
C13   H72   S    
H69   O51   S    
C68   C104  A    
H103  O121  S    
C216  H16   S    
Cu4   O87   S    
C189  H153  S    
C225  H22   S    
C340  O87   A    
C271  O47   S    
Cu6   O61   S    
C19   C126  S    
C34   C52   A    
C23   C32   A    
C131  O122  D    
C95   C315  A    
C187  C188  A    
C149  C150  A    
C192  C193  A    
C231  H28   S    
C184  H148  S    
C185  C186  A    
Cu10  O70   S    
C343  O58   A    
C97   C165  S    
Cu5   O55   S    
C232  C233  A    
Cu3   O82   S    
C241  O130  S    
C75   H46   S    
C230  C231  A    
C168  C334  A    
C76   H57   S    
C191  H154  S    
C290  C329  S    
C284  C319  A    
C256  O17   D    
C259  O21   D    
H40   O137  S    
C312  O13   A    
H39   O135  S    
C142  C143  A    
C62   C74   A    
H51   O16   S    
C171  H137  S    
C72   H13   S    
C115  O89   D    
H56   O27   S    
H94   O104  S    
C121  O103  D    
C313  C330  A    
C61   H1    S    
C203  C204  A    
H88   O91   S    
C267  C274  S    
C125  O109  D    
C165  C166  A    
C24   C99   A    
C219  H18   S    
C169  C170  A    
C262  O28   D    
C163  C164  A    
C253  O10   D    
C214  H14   S    
C244  O137  S    
C53   C59   A    
C87   C248  S    
C7    O69   A    
C173  C174  A    
C236  C237  A    
C46   C102  A    
C284  C302  A    
H67   O49   S    
C3    C30   S    
C44   C71   A    
C161  H129  S    
C11   C36   A    
C71   H2    S    
C308  C330  A    
C269  O41   D    
C240  O127  D    
Cu6   O112  S    
C263  O30   D    
C79   H79   S    
C117  O94   D    
C264  O33   S    
C87   C307  A    
C226  C231  A    
C251  O7    S    
C334  H70   S    
C101  H81   S    
C79   C105  A    
Cu11  O46   S    
C279  O123  A    
C13   C98   A    
C242  O132  S    
C8    C115  S    
C322  C339  S    
C283  C300  A    
C17   C123  S    
C227  C228  A    
C142  H113  S    
H38   O132  S    
C132  C133  A    
C245  O139  S    
C235  C287  A    
C129  O119  S    
C198  C199  A    
C31   C344  S    
C119  O99   S    
H55   O25   S    
C15   C39   A    
C218  C225  A    
C262  O29   S    
C14   C42   A    
C120  O100  D    
C63   C77   A    
C153  H122  S    
Cu5   Cu7   S    
C45   C72   A    
C232  C238  A    
C110  C135  A    
H49   O11   S    
Cu7   O60   S    
C287  C305  A    
Cu2   O76   S    
C254  O12   D    
C21   C50   A    
C6    O70   A    
C297  C324  A    
C271  O45   D    
C187  H151  S    
C21   C32   A    
C111  C185  S    
C269  C275  S    
C157  H87   S    
C339  O82   A    
C148  C149  A    
C84   C244  S    
C317  C333  S    
C214  C215  A    
C134  C136  A    
C119  O98   D    
C16   C29   A    
C65   C71   A    
C148  H118  S    
C239  O125  D    
C42   C69   A    
C301  C330  S    
C156  H125  S    
Cu2   O77   S    
C183  C184  A    
H64   O42   S    
C5    O66   A    
C283  C318  A    
C5    C28   S    
C88   C106  A    
C316  C337  S    
C215  H15   S    
C6    C27   S    
C337  O75   A    
Cu7   O79   S    
C64   C76   A    
C10   C34   A    
C105  C226  S    
C323  O24   A    
H43   O143  S    
C122  O106  S    
C193  H155  S    
Cu11  O66   S    
C112  C326  S    
C176  C177  A    
C211  C213  A    
C16   C40   A    
C226  C227  A    
C43   C70   A    
C123  O107  D    
C182  H146  S    
C335  O80   A    
H61   O36   S    
C2    C179  A    
C228  H25   S    
C25   C131  S    
C95   C255  S    
C172  C173  A    
C85   C305  A    
C54   C58   A    
C22   C33   A    
C157  C280  A    
C186  H149  S    
H66   O47   S    
C15   C121  S    
C159  C164  A    
C89   C309  A    
C270  O44   S    
C160  H127  S    
C109  C124  A    
C342  O56   A    
C323  C332  S    
C137  C138  A    
C273  O51   S    
C14   C120  S    
Cu7   O58   S    
C160  C161  A    
C80   C240  S    
C229  H26   S    
C112  O57   A    
Cu8   O35   S    
C127  O114  D    
C141  C142  A    
H65   O44   S    
Cu4   O86   S    
H63   O40   S    
C32   C343  S    
C10   C26   A    
C218  C219  A    
C110  C192  S    
C243  O135  S    
C124  C276  A    
C90   H80   S    
C41   C54   A    
C112  O101  A    
C43   C56   A    
C98   C159  S    
C227  H23   S    
C96   C172  S    
C255  O15   D    
Cu3   O83   S    
H58   O29   S    
C153  C154  A    
C62   H73   S    
C315  C332  A    
C290  O134  A    
C1    C325  S    
C22   C51   A    
C20   C31   A    
C50   C76   A    
