data_mof_unit_37499.cif
_audit_creation_date              2012-10-26T17:11:13-0400
_audit_creation_method            fapswitch 2.2
_symmetry_space_group_name_H-M    P1
_symmetry_Int_Tables_number       1
_space_group_crystal_system       monoclinic
_cell_length_a                    28.071927
_cell_length_b                    18.747138
_cell_length_c                    16.849366
_cell_angle_alpha                 90.0
_cell_angle_beta                  62.547184
_cell_angle_gamma                 90.0
_cell_volume                      7868.74883403

loop_
_atom_site_label
_atom_site_type_symbol
_atom_type_description
_atom_site_fract_x
_atom_site_fract_y
_atom_site_fract_z
_atom_type_partial_charge
C1    C     C_R   0.294921 0.728182 0.329714 0.806988
C2    C     C_R   0.705057 0.271772 0.670291 0.807207
C3    C     C_R   0.705079 0.728182 0.670286 0.806988
C4    C     C_R   0.294943 0.271772 0.329709 0.807207
C5    C     C_R   0.794943 0.228228 0.329709 0.807207
C6    C     C_R   0.205079 0.771818 0.670286 0.806988
C7    C     C_R   0.205057 0.228228 0.670291 0.807207
C8    C     C_R   0.794921 0.771818 0.329714 0.806988
C9    C     C_R   0.538507 0.871255 0.537229 -0.220766
C10   C     C_R   0.442594 0.123731 0.525587 -0.225268
C11   C     C_R   0.461493 0.871255 0.462771 -0.220766
C12   C     C_R   0.557406 0.123731 0.474412 -0.225268
C13   C     C_R   0.057406 0.376269 0.474412 -0.225268
C14   C     C_R   0.961493 0.628745 0.462771 -0.220766
C15   C     C_R   0.942594 0.376269 0.525587 -0.225268
C16   C     C_R   0.038507 0.628745 0.537229 -0.220766
C17   C     C_R   0.222080 0.769436 0.951907 0.041474
C18   C     C_R   0.777847 0.230555 0.048215 0.041473
C19   C     C_R   0.777920 0.769436 0.048093 0.041474
C20   C     C_R   0.222152 0.230555 0.951785 0.041473
C21   C     C_R   0.722152 0.269445 0.951785 0.041473
C22   C     C_R   0.277920 0.730564 0.048093 0.041474
C23   C     C_R   0.277847 0.269445 0.048215 0.041473
C24   C     C_R   0.722080 0.730564 0.951907 0.041474
C25   C     C_R   0.273652 0.797922 0.927431 0.189426
C26   C     C_R   0.725832 0.203201 0.073704 0.191172
C27   C     C_R   0.726348 0.797922 0.072569 0.189426
C28   C     C_R   0.274167 0.203201 0.926296 0.191172
C29   C     C_R   0.774167 0.296799 0.926296 0.191172
C30   C     C_R   0.226348 0.702078 0.072569 0.189426
C31   C     C_R   0.225832 0.296799 0.073704 0.191172
C32   C     C_R   0.773652 0.702078 0.927431 0.189426
C33   C     C_R   0.301077 0.777797 0.975650 -0.222618
C34   C     C_R   0.698502 0.223335 0.025339 -0.222825
C35   C     C_R   0.698922 0.777797 0.024350 -0.222618
C36   C     C_R   0.301498 0.223335 0.974661 -0.222825
C37   C     C_R   0.801498 0.276665 0.974661 -0.222825
C38   C     C_R   0.198922 0.722203 0.024350 -0.222618
C39   C     C_R   0.198502 0.276665 0.025339 -0.222825
C40   C     C_R   0.801078 0.722203 0.975650 -0.222618
C41   C     C_R   0.145477 0.830851 0.943536 -0.204794
C42   C     C_R   0.854428 0.169026 0.056575 -0.204767
C43   C     C_R   0.854523 0.830851 0.056464 -0.204794
C44   C     C_R   0.145572 0.169026 0.943424 -0.204767
C45   C     C_R   0.645572 0.330974 0.943424 -0.204767
C46   C     C_R   0.354523 0.669148 0.056464 -0.204794
C47   C     C_R   0.354428 0.330974 0.056575 -0.204767
C48   C     C_R   0.645477 0.669148 0.943536 -0.204794
C49   C     C_R   0.118308 0.852424 0.895090 -0.063092
C50   C     C_R   0.881638 0.147496 0.104970 -0.063865
C51   C     C_R   0.881692 0.852424 0.104910 -0.063092
C52   C     C_R   0.118362 0.147496 0.895030 -0.063865
C53   C     C_R   0.618362 0.352504 0.895030 -0.063865
C54   C     C_R   0.381692 0.647576 0.104910 -0.063092
C55   C     C_R   0.381638 0.352504 0.104970 -0.063865
C56   C     C_R   0.618308 0.647576 0.895090 -0.063092
C57   C     C_R   0.136782 0.829809 0.806987 -0.228966
C58   C     C_R   0.863186 0.170126 0.193060 -0.225797
C59   C     C_R   0.863218 0.829809 0.193013 -0.228966
C60   C     C_R   0.136814 0.170126 0.806940 -0.225797
C61   C     C_R   0.636814 0.329874 0.806940 -0.225797
C62   C     C_R   0.363218 0.670191 0.193013 -0.228966
C63   C     C_R   0.363186 0.329874 0.193060 -0.225797
C64   C     C_R   0.636782 0.670191 0.806987 -0.228966
C65   C     C_R   0.182763 0.787815 0.765834 -0.066852
C66   C     C_R   0.817244 0.212194 0.234190 -0.066979
C67   C     C_R   0.817237 0.787815 0.234166 -0.066852
C68   C     C_R   0.182756 0.212194 0.765810 -0.066980
C69   C     C_R   0.682756 0.287806 0.765810 -0.066980
C70   C     C_R   0.317237 0.712185 0.234166 -0.066852
C71   C     C_R   0.317244 0.287806 0.234190 -0.066979
C72   C     C_R   0.682763 0.712185 0.765834 -0.066852
C73   C     C_R   0.209681 0.766205 0.814472 -0.189588
C74   C     C_R   0.790342 0.233856 0.185564 -0.192149
C75   C     C_R   0.790319 0.766205 0.185528 -0.189587
C76   C     C_R   0.209658 0.233856 0.814436 -0.192149
C77   C     C_R   0.709658 0.266144 0.814436 -0.192149
C78   C     C_R   0.290319 0.733794 0.185528 -0.189587
C79   C     C_R   0.290342 0.266144 0.185564 -0.192149
C80   C     C_R   0.709681 0.733794 0.814472 -0.189588
C81   C     C_R   0.191579 0.788387 0.902958 0.090425
C82   C     C_R   0.808344 0.211539 0.097157 0.092172
C83   C     C_R   0.808421 0.788387 0.097042 0.090425
C84   C     C_R   0.191656 0.211539 0.902843 0.092172
C85   C     C_R   0.691656 0.288461 0.902843 0.092172
C86   C     C_R   0.308421 0.711613 0.097042 0.090425
C87   C     C_R   0.308344 0.288461 0.097157 0.092172
C88   C     C_R   0.691579 0.711613 0.902958 0.090425
C89   C     C_R   0.196949 0.631757 0.526470 0.811010
C90   C     C_R   0.800186 0.369048 0.483773 0.815924
C91   C     C_R   0.803051 0.631757 0.473529 0.811011
C92   C     C_R   0.199814 0.369048 0.516227 0.815923
C93   C     C_R   0.699814 0.130952 0.516227 0.815923
C94   C     C_R   0.303051 0.868243 0.473529 0.811011
C95   C     C_R   0.300186 0.130952 0.483773 0.815924
C96   C     C_R   0.696949 0.868243 0.526470 0.811010
C97   C     C_R   0.926344 0.903302 0.066694 0.804709
C98   C     C_R   0.073679 0.096665 0.933284 0.805807
C99   C     C_R   0.073656 0.903302 0.933305 0.804710
C100  C     C_R   0.926320 0.096665 0.066716 0.805806
C101  C     C_R   0.426320 0.403335 0.066716 0.805806
C102  C     C_R   0.573656 0.596698 0.933305 0.804710
C103  C     C_R   0.573679 0.403335 0.933284 0.805807
C104  C     C_R   0.426344 0.596698 0.066694 0.804709
C105  C     C_R   0.047926 0.502224 0.507538 0.024410
C106  C     C_R   0.952074 0.502224 0.492462 0.024410
C107  C     C_R   0.547926 0.997776 0.507538 0.024410
C108  C     C_R   0.452074 0.997776 0.492462 0.024410
C109  C     C_R   0.021788 0.567099 0.510259 0.042735
C110  C     C_R   0.974111 0.437796 0.503289 0.045103
C111  C     C_R   0.978212 0.567099 0.489740 0.042735
C112  C     C_R   0.025889 0.437796 0.496711 0.045103
C113  C     C_R   0.525889 0.062204 0.496711 0.045103
C114  C     C_R   0.478212 0.932900 0.489740 0.042735
C115  C     C_R   0.474111 0.062204 0.503289 0.045103
C116  C     C_R   0.521788 0.932900 0.510259 0.042736
C117  C     C_R   0.125675 0.437417 0.500657 0.062017
C118  C     C_R   0.884809 0.565279 0.464422 0.061303
C119  C     C_R   0.874325 0.437417 0.499343 0.062017
C120  C     C_R   0.115191 0.565279 0.535578 0.061303
C121  C     C_R   0.615191 0.934721 0.535578 0.061303
C122  C     C_R   0.374325 0.062583 0.499343 0.062017
C123  C     C_R   0.384809 0.934721 0.464422 0.061303
C124  C     C_R   0.625675 0.062583 0.500657 0.062017
C125  C     C_R   0.171907 0.436089 0.515423 -0.121977
C126  C     C_R   0.833703 0.565255 0.465121 -0.123648
C127  C     C_R   0.828093 0.436089 0.484577 -0.121977
C128  C     C_R   0.166297 0.565255 0.534879 -0.123648
C129  C     C_R   0.666297 0.934745 0.534879 -0.123649
C130  C     C_R   0.328093 0.063911 0.484577 -0.121976
C131  C     C_R   0.333703 0.934745 0.465121 -0.123648
C132  C     C_R   0.671907 0.063911 0.515423 -0.121977
C133  C     C_R   0.191973 0.500304 0.529903 -0.276676
C134  C     C_R   0.808027 0.500304 0.470097 -0.276676
C135  C     C_R   0.691972 0.999696 0.529903 -0.276676
C136  C     C_R   0.308027 0.999696 0.470097 -0.276676
C137  C     C_R   0.096231 0.501575 0.515221 0.072730
C138  C     C_R   0.903769 0.501575 0.484779 0.072730
C139  C     C_R   0.596231 0.998425 0.515221 0.072730
C140  C     C_R   0.403769 0.998425 0.484779 0.072730
C141  C     C_R   0.582234 0.873404 0.555019 -0.178189
C142  C     C_R   0.392101 0.122298 0.529989 -0.181835
C143  C     C_R   0.417766 0.873404 0.444981 -0.178189
C144  C     C_R   0.607899 0.122298 0.470011 -0.181835
C145  C     C_R   0.107899 0.377702 0.470011 -0.181835
C146  C     C_R   0.917766 0.626596 0.444981 -0.178189
C147  C     C_R   0.892101 0.377702 0.529989 -0.181835
C148  C     C_R   0.082234 0.626596 0.555019 -0.178189
Cu1   Cu    Cu3+1 0.209920 0.785290 0.495070 0.933223
Cu2   Cu    Cu3+1 0.790080 0.214710 0.504930 0.930682
Cu3   Cu    Cu3+1 0.790080 0.785290 0.504930 0.933224
Cu4   Cu    Cu3+1 0.209920 0.214710 0.495070 0.930681
Cu5   Cu    Cu3+1 0.709920 0.285290 0.495070 0.930681
Cu6   Cu    Cu3+1 0.290080 0.714710 0.504930 0.933224
Cu7   Cu    Cu3+1 0.290080 0.285290 0.504930 0.930682
Cu8   Cu    Cu3+1 0.709920 0.714710 0.495070 0.933223
Cu9   Cu    Cu3+1 0.495240 0.500000 0.924150 0.939025
Cu10  Cu    Cu3+1 0.504760 0.500000 0.075850 0.939025
Cu11  Cu    Cu3+1 0.995240 0.000000 0.924150 0.939025
Cu12  Cu    Cu3+1 0.004760 0.000000 0.075850 0.939025
H1    H     H_    0.229215 0.500008 0.534500 0.191542
H2    H     H_    0.770785 0.500008 0.465500 0.191541
H3    H     H_    0.729215 0.999992 0.534500 0.191541
H4    H     H_    0.270785 0.999992 0.465500 0.191542
H5    H     H_    0.588395 0.826557 0.586228 0.171803
H6    H     H_    0.367580 0.168166 0.561143 0.177554
H7    H     H_    0.411605 0.826557 0.413772 0.171803
H8    H     H_    0.632420 0.168166 0.438857 0.177554
H9    H     H_    0.132420 0.331834 0.438857 0.177554
H10   H     H_    0.911605 0.673443 0.413772 0.171803
H11   H     H_    0.867580 0.331834 0.561143 0.177554
H12   H     H_    0.088395 0.673443 0.586228 0.171803
H13   H     H_    0.516032 0.822014 0.550083 0.142055
H14   H     H_    0.455143 0.172008 0.545969 0.144130
H15   H     H_    0.483968 0.822014 0.449917 0.142055
H16   H     H_    0.544857 0.172008 0.454031 0.144130
H17   H     H_    0.044857 0.327991 0.454031 0.144130
H18   H     H_    0.983968 0.677986 0.449917 0.142055
H19   H     H_    0.955143 0.327991 0.545969 0.144130
H20   H     H_    0.016032 0.677986 0.550083 0.142055
H21   H     H_    0.159435 0.700471 0.042556 0.148592
H22   H     H_    0.841318 0.297538 0.955689 0.149314
H23   H     H_    0.840565 0.700471 0.957444 0.148592
H24   H     H_    0.158682 0.297538 0.044311 0.149314
H25   H     H_    0.658682 0.202462 0.044311 0.149314
H26   H     H_    0.340565 0.799529 0.957444 0.148592
H27   H     H_    0.341318 0.202462 0.955689 0.149314
H28   H     H_    0.659434 0.799529 0.042556 0.148592
H29   H     H_    0.132112 0.848882 0.011619 0.153809
H30   H     H_    0.867760 0.150946 0.988520 0.153931
H31   H     H_    0.867888 0.848882 0.988381 0.153809
H32   H     H_    0.132240 0.150946 0.011480 0.153931
H33   H     H_    0.632240 0.349054 0.011480 0.153932
H34   H     H_    0.367888 0.651118 0.988381 0.153809
H35   H     H_    0.367760 0.349054 0.988520 0.153931
H36   H     H_    0.632112 0.651118 0.011619 0.153809
H37   H     H_    0.116467 0.847239 0.769147 0.174848
H38   H     H_    0.883500 0.152684 0.230894 0.176213
H39   H     H_    0.883533 0.847239 0.230853 0.174848
H40   H     H_    0.116500 0.152684 0.769105 0.176213
H41   H     H_    0.616500 0.347316 0.769105 0.176213
H42   H     H_    0.383533 0.652761 0.230853 0.174848
H43   H     H_    0.383500 0.347316 0.230894 0.176213
H44   H     H_    0.616467 0.652761 0.769147 0.174848
H45   H     H_    0.245531 0.733643 0.783209 0.152123
H46   H     H_    0.754593 0.266607 0.216779 0.150676
H47   H     H_    0.754468 0.733643 0.216790 0.152123
H48   H     H_    0.245407 0.266607 0.783220 0.150676
H49   H     H_    0.745407 0.233393 0.783220 0.150676
H50   H     H_    0.254468 0.766357 0.216790 0.152123
H51   H     H_    0.254593 0.233393 0.216779 0.150676
H52   H     H_    0.745531 0.766357 0.783209 0.152123
O1    O     O_R   0.255040 0.869590 0.478480 -0.582139
O2    O     O_R   0.744960 0.130410 0.521520 -0.582911
O3    O     O_R   0.744960 0.869590 0.521520 -0.582138
O4    O     O_R   0.255040 0.130410 0.478480 -0.582912
O5    O     O_R   0.755040 0.369590 0.478480 -0.582912
O6    O     O_R   0.244960 0.630410 0.521520 -0.582138
O7    O     O_R   0.244960 0.369590 0.521520 -0.582911
O8    O     O_R   0.755040 0.630410 0.478480 -0.582139
O9    O     O_R   0.182050 0.796550 0.624440 -0.592380
O10   O     O_R   0.817950 0.203450 0.375560 -0.585987
O11   O     O_R   0.817950 0.796550 0.375560 -0.592380
O12   O     O_R   0.182050 0.203450 0.624440 -0.585987
O13   O     O_R   0.682050 0.296550 0.624440 -0.585987
O14   O     O_R   0.317950 0.703450 0.375560 -0.592381
O15   O     O_R   0.317950 0.296550 0.375560 -0.585987
O16   O     O_R   0.682050 0.703450 0.624440 -0.592380
O17   O     O_R   0.250530 0.763330 0.367210 -0.590208
O18   O     O_R   0.749470 0.236670 0.632790 -0.599094
O19   O     O_R   0.749470 0.763330 0.632790 -0.590208
O20   O     O_R   0.250530 0.236670 0.367210 -0.599094
O21   O     O_R   0.750530 0.263330 0.367210 -0.599094
O22   O     O_R   0.249470 0.736670 0.632790 -0.590208
O23   O     O_R   0.249470 0.263330 0.632790 -0.599094
O24   O     O_R   0.750530 0.736670 0.367210 -0.590208
O25   O     O_R   0.177260 0.690030 0.513710 -0.597061
O26   O     O_R   0.822740 0.309970 0.486290 -0.599963
O27   O     O_R   0.822740 0.690030 0.486290 -0.597061
O28   O     O_R   0.177260 0.309970 0.513710 -0.599963
O29   O     O_R   0.677260 0.190030 0.513710 -0.599963
O30   O     O_R   0.322740 0.809970 0.486290 -0.597061
O31   O     O_R   0.322740 0.190030 0.486290 -0.599963
O32   O     O_R   0.677260 0.809970 0.513710 -0.597061
O33   O     O_R   0.051640 0.926880 0.885090 -0.589259
O34   O     O_R   0.948360 0.073120 0.114910 -0.588612
O35   O     O_R   0.948360 0.926880 0.114910 -0.589259
O36   O     O_R   0.051640 0.073120 0.885090 -0.588612
O37   O     O_R   0.551640 0.426880 0.885090 -0.588612
O38   O     O_R   0.448360 0.573120 0.114910 -0.589259
O39   O     O_R   0.448360 0.426880 0.114910 -0.588612
O40   O     O_R   0.551640 0.573120 0.885090 -0.589259
O41   O     O_R   0.940620 0.926560 0.986760 -0.592130
O42   O     O_R   0.059380 0.073440 0.013240 -0.591635
O43   O     O_R   0.059380 0.926560 0.013240 -0.592131
O44   O     O_R   0.940620 0.073440 0.986760 -0.591635
O45   O     O_R   0.440620 0.426560 0.986760 -0.591635
O46   O     O_R   0.559380 0.573440 0.013240 -0.592131
O47   O     O_R   0.559380 0.426560 0.013240 -0.591635
O48   O     O_R   0.440620 0.573440 0.986760 -0.592130
C149  C     C_3   0.299155 0.851050 0.852246 -0.856910
H53   H     H_    0.307497 0.825637 0.787691 0.233600
H54   H     H_    0.271827 0.897180 0.864445 0.239297
H55   H     H_    0.337756 0.871618 0.846375 0.226914
C150  C     C_3   0.699735 0.151177 0.150066 -0.862348
H56   H     H_    0.726566 0.104650 0.138968 0.240050
H57   H     H_    0.691554 0.177374 0.214114 0.227669
H58   H     H_    0.660952 0.131028 0.156281 0.228153
C151  C     C_3   0.700845 0.851050 0.147753 -0.856910
H59   H     H_    0.692503 0.825637 0.212308 0.233600
H60   H     H_    0.728173 0.897180 0.135555 0.239297
H61   H     H_    0.662244 0.871618 0.153625 0.226914
C152  C     C_3   0.300265 0.151177 0.849934 -0.862348
H62   H     H_    0.273434 0.104650 0.861032 0.240050
H63   H     H_    0.308446 0.177374 0.785886 0.227669
H64   H     H_    0.339048 0.131028 0.843719 0.228153
C153  C     C_3   0.800265 0.348823 0.849934 -0.862348
H65   H     H_    0.808446 0.322626 0.785886 0.227669
H66   H     H_    0.773434 0.395349 0.861032 0.240050
H67   H     H_    0.839048 0.368972 0.843719 0.228153
C154  C     C_3   0.200845 0.648950 0.147753 -0.856910
H68   H     H_    0.228173 0.602820 0.135555 0.239297
H69   H     H_    0.192503 0.674363 0.212308 0.233600
H70   H     H_    0.162244 0.628382 0.153625 0.226915
C155  C     C_3   0.199735 0.348822 0.150066 -0.862348
H71   H     H_    0.191554 0.322626 0.214114 0.227669
H72   H     H_    0.226566 0.395349 0.138968 0.240050
H73   H     H_    0.160952 0.368972 0.156281 0.228153
C156  C     C_3   0.799155 0.648950 0.852246 -0.856910
H74   H     H_    0.771827 0.602820 0.864445 0.239297
H75   H     H_    0.807497 0.674363 0.787691 0.233600
H76   H     H_    0.837756 0.628382 0.846375 0.226914

loop_
_geom_bond_atom_site_label_1
_geom_bond_atom_site_label_2
_ccdc_geom_bond_type
C10   H14   S    
C51   C97   S    
Cu9   Cu10  S    
C64   C72   A    
C79   C87   A    
C154  H70   S    
C38   H21   S    
C4    O20   A    
C47   H35   S    
C13   C112  A    
Cu9   O48   S    
C29   C153  S    
Cu10  O47   S    
C152  H64   S    
C62   C70   A    
C96   O32   A    
C90   O5    A    
C7    C68   S    
C75   H47   S    
C147  H11   S    
C101  O45   A    
Cu1   O25   S    
Cu8   O16   S    
C64   H44   S    
Cu3   O3    S    
Cu11  O44   S    
C73   C81   A    
C16   C109  A    
C104  O38   A    
C90   O26   A    
Cu10  O39   S    
C57   C65   A    
C20   C28   A    
C27   C35   A    
C21   C29   A    
C21   C85   S    
C23   C31   A    
C24   C32   A    
C42   H30   S    
Cu6   O22   S    
Cu8   O8    S    
C8    O11   A    
C105  C112  A    
C63   C71   A    
C120  C148  A    
C151  H60   S    
C108  C140  A    
C136  H4    S    
Cu5   O13   S    
C57   H37   S    
C93   O2    A    
C9    C116  A    
C135  H3    S    
Cu9   O37   S    
C97   O35   A    
C50   C100  S    
C1    C70   S    
Cu2   O18   S    
C41   H29   S    
C60   C68   A    
C17   C25   A    
C3    C72   S    
C155  H72   S    
C44   H32   S    
C28   C152  S    
C52   C98   S    
C18   C82   S    
Cu1   O1    S    
C60   H40   S    
C12   C144  A    
C126  C134  A    
C80   C88   A    
C23   C36   A    
C100  O44   A    
C119  C147  A    
C3    O16   A    
C4    C71   S    
C76   H48   S    
C96   C129  S    
C113  C115  A    
C1    O14   A    
C15   H19   S    
C43   C83   A    
C124  C139  A    
C69   C77   A    
C127  C134  A    
C13   C145  A    
C43   C51   A    
C92   C125  S    
C71   C79   A    
Cu4   O4    S    
Cu7   O15   S    
C63   H43   S    
C108  C115  A    
C109  C111  A    
C104  O48   A    
C149  H53   S    
C142  H6    S    
C108  C114  A    
C66   C74   A    
C49   C57   A    
C124  C132  A    
C4    O15   A    
C52   C60   A    
C59   C67   A    
C129  C135  A    
C53   C61   A    
Cu9   O45   S    
C35   H28   S    
C55   C63   A    
C95   C130  S    
C56   C64   A    
C9    H13   S    
C33   H26   S    
C2    C69   S    
C78   H50   S    
Cu5   O5    S    
C39   H24   S    
C80   H52   S    
C40   H23   S    
C32   C156  S    
C44   C52   A    
C5    O10   A    
C6    O22   A    
C77   C85   A    
C153  H65   S    
C95   O4    A    
C19   C83   S    
C46   H34   S    
C106  C111  A    
C103  O37   A    
C107  C113  A    
C131  C136  A    
C3    O19   A    
C130  C136  A    
C102  O46   A    
C47   C87   A    
C92   O7    A    
C98   O36   A    
C49   C99   S    
C156  H74   S    
C150  H57   S    
C143  H7    S    
C14   H18   S    
C42   C50   A    
C27   C151  S    
C20   C84   S    
C67   C75   A    
C97   O41   A    
C105  C109  A    
C92   O28   A    
C22   C30   A    
C119  C138  A    
C5    C66   S    
C149  H55   S    
C114  C116  A    
C154  H69   S    
C141  H5    S    
Cu1   O17   S    
C121  C139  A    
C153  H66   S    
C56   C102  S    
C72   C80   A    
C93   O29   A    
C11   C143  A    
Cu8   O24   S    
C152  H63   S    
Cu3   O11   S    
C17   C38   A    
C107  C139  A    
C110  C112  A    
Cu11  O36   S    
C100  O34   A    
C19   C40   A    
C2    O18   A    
C105  C137  A    
C8    C67   S    
C153  H67   S    
C117  C125  A    
C16   H20   S    
C25   C33   A    
Cu4   O20   S    
Cu7   O31   S    
C18   C26   A    
C76   C84   A    
C31   C155  S    
C79   H51   S    
Cu6   O14   S    
C54   C104  S    
Cu5   O29   S    
C106  C110  A    
C61   C69   A    
C156  H76   S    
C117  C145  A    
C10   C142  A    
Cu12  O42   S    
C91   O8    A    
C62   H42   S    
C73   H45   S    
C89   O6    A    
C6    C65   S    
Cu2   Cu5   S    
C90   C127  S    
C48   C88   A    
Cu7   O7    S    
C99   O33   A    
C151  H59   S    
Cu2   O10   S    
C15   C110  A    
C101  O39   A    
C74   C82   A    
C7    O23   A    
C45   H33   S    
C145  H9    S    
C50   C58   A    
C89   O25   A    
C20   C39   A    
C21   C34   A    
C54   C62   A    
Cu10  O46   S    
C30   C154  S    
C34   H25   S    
Cu1   Cu6   S    
C155  H71   S    
C121  C141  A    
C25   C149  S    
Cu11  Cu12  S    
Cu4   Cu7   S    
C41   C81   A    
C46   C54   A    
Cu5   O21   S    
Cu3   Cu8   S    
C24   C88   S    
C8    O24   A    
Cu4   O12   S    
C68   C76   A    
Cu11  O41   S    
Cu12  O35   S    
Cu12  O43   S    
C14   C146  A    
C94   O1    A    
C123  C131  A    
C103  O47   A    
Cu10  O38   S    
C121  C129  A    
C44   C84   A    
C120  C128  A    
C41   C49   A    
Cu3   O27   S    
C11   H15   S    
C94   C131  S    
C36   H27   S    
C15   C147  A    
C7    O12   A    
C75   C83   A    
C53   C103  S    
C13   H17   S    
C37   H22   S    
C17   C81   S    
C22   C86   S    
C122  C140  A    
Cu11  O33   S    
C28   C36   A    
C151  H61   S    
C29   C37   A    
C156  H75   S    
C120  C137  A    
C2    O13   A    
C89   C128  S    
Cu6   O30   S    
C91   C126  S    
C70   C78   A    
C42   C82   A    
C95   O31   A    
C96   O3    A    
C144  H8    S    
C102  O40   A    
C18   C37   A    
C155  H73   S    
C106  C138  A    
C65   C73   A    
C11   C114  A    
C99   O43   A    
C61   H41   S    
C58   C66   A    
C59   H39   S    
Cu2   O26   S    
Cu6   O6    S    
Cu8   O32   S    
C150  H56   S    
C118  C138  A    
C77   H49   S    
C26   C150  S    
C78   C86   A    
C32   C40   A    
C43   H31   S    
C5    O21   A    
C48   H36   S    
Cu1   O9    S    
C26   C34   A    
C14   C111  A    
C107  C116  A    
Cu3   O19   S    
C24   C35   A    
C118  C146  A    
C149  H54   S    
C9    C141  A    
C154  H68   S    
C123  C140  A    
C134  H2    S    
C45   C85   A    
Cu4   O28   S    
Cu7   O23   S    
C152  H62   S    
C146  H10   S    
C51   C59   A    
C122  C142  A    
C123  C143  A    
C93   C132  S    
Cu9   O40   S    
C98   O42   A    
C19   C27   A    
C47   C55   A    
C12   C113  A    
C74   H46   S    
C125  C133  A    
C48   C56   A    
C22   C33   A    
C58   H38   S    
C117  C137  A    
Cu12  O34   S    
C133  H1    S    
C55   C101  S    
C12   H16   S    
C16   C148  A    
C6    O9    A    
C94   O30   A    
C128  C133  A    
C132  C135  A    
C148  H12   S    
C31   C39   A    
Cu2   O2    S    
C150  H58   S    
C45   C53   A    
C1    O17   A    
C91   O27   A    
C124  C144  A    
C23   C87   S    
C118  C126  A    
C30   C38   A    
C122  C130  A    
C10   C115  A    
C119  C127  A    
C46   C86   A    
