data_mof_unit_45586.cif
_audit_creation_date              2012-12-10T18:49:59-0500
_audit_creation_method            fapswitch 2.2
_symmetry_space_group_name_H-M    P1
_symmetry_Int_Tables_number       1
_space_group_crystal_system       triclinic
_cell_length_a                    10.621307
_cell_length_b                    9.890926
_cell_length_c                    10.679719
_cell_angle_alpha                 91.336934
_cell_angle_beta                  91.430353
_cell_angle_gamma                 89.484398
_cell_volume                      1121.25851579

loop_
_atom_site_label
_atom_site_type_symbol
_atom_type_description
_atom_site_fract_x
_atom_site_fract_y
_atom_site_fract_z
_atom_type_partial_charge
C1    C     C_R   0.260240 0.500473 0.497945 0.834813
C2    C     C_3   0.623381 0.445172 0.928817 -0.392386
C3    C     C_R   0.063747 0.414002 0.411738 -0.203425
C4    C     C_R   0.065471 0.592365 0.573762 -0.217211
C5    C     C_R   0.934218 0.415359 0.409773 -0.213078
C6    C     C_R   0.936529 0.591274 0.573525 -0.192881
C7    C     C_R   0.872089 0.501022 0.493720 -0.005510
C8    C     C_R   0.127877 0.501932 0.494555 0.014602
C9    C     C_R   0.600686 0.072430 0.548547 0.390048
C10   C     C_R   0.594089 0.928339 0.561056 0.398324
C11   C     C_R   0.403728 0.927828 0.443904 -0.178186
C12   C     C_R   0.401928 0.071253 0.447233 -0.199381
C13   C     C_R   0.498646 0.499345 0.257612 0.809035
C14   C     C_R   0.739670 0.499737 0.497141 0.847860
C15   C     C_R   0.497768 0.501166 0.742099 0.879665
C16   C     C_3   0.466060 0.646662 0.070943 0.308428
C17   C     C_3   0.391573 0.403443 0.067112 0.350943
C18   C     C_3   0.477084 0.648368 0.929309 -0.487348
C19   C     C_3   0.386264 0.413906 0.922624 -0.472347
C20   C     C_3   0.625277 0.445078 0.072485 -0.408652
C21   C     C_3   0.497449 0.499812 0.121044 -0.018493
C22   C     C_3   0.495956 0.502390 0.878248 0.054757
H1    H     H_    0.326862 0.873557 0.398066 0.172610
H2    H     H_    0.322954 0.124738 0.405258 0.166092
H3    H     H_    0.363839 0.662014 0.088273 0.091949
H4    H     H_    0.299688 0.438923 0.105716 -0.004904
H5    H     H_    0.557263 0.710364 0.903103 0.206167
H6    H     H_    0.391551 0.310984 0.878505 0.216379
H7    H     H_    0.702848 0.506604 0.896323 0.147243
H8    H     H_    0.638081 0.339914 0.892442 0.204999
N1    N     N_R   0.499970 0.857200 0.499970 -0.118044
N2    N     N_R   0.499970 0.142800 0.499970 -0.118713
O1    O     O_R   0.316750 0.614620 0.499990 -0.630951
O2    O     O_R   0.316750 0.385380 0.499990 -0.629793
O3    O     O_R   0.499970 0.614670 0.314790 -0.592463
O4    O     O_R   0.499970 0.385330 0.314790 -0.580664
O5    O     O_R   0.683220 0.614710 0.500010 -0.574498
O6    O     O_R   0.683220 0.385290 0.500010 -0.572882
O7    O     O_R   0.500010 0.614660 0.685200 -0.607513
O8    O     O_R   0.500010 0.385340 0.685200 -0.606219
Zn1   Zn    Zn3+2 0.499980 0.653120 0.500000 0.982760
Zn2   Zn    Zn3+2 0.499980 0.346880 0.500000 0.980947
O9    O     O_3   0.522366 0.762498 0.131287 -0.585395
C23   C     C_3   0.655413 0.761556 0.138806 0.177212
H9    H     H_    0.699176 0.723148 0.051964 0.121352
H10   H     H_    0.689661 0.700175 0.218481 0.159739
C24   C     C_3   0.699825 0.905593 0.164683 -0.879754
H11   H     H_    0.661900 0.944580 0.254737 0.254881
H12   H     H_    0.804313 0.907715 0.170895 0.196609
H13   H     H_    0.666538 0.972198 0.088113 0.261588
O10   O     O_3   0.418550 0.267437 0.099528 -0.577126
C25   C     C_3   0.306932 0.191493 0.105526 0.076839
H14   H     H_    0.241256 0.210548 0.024713 0.123822
H15   H     H_    0.258426 0.216994 0.194157 0.130849
C26   C     C_3   0.340916 0.041723 0.103360 -0.770945
H16   H     H_    0.409466 0.019554 0.180390 0.288986
H17   H     H_    0.255033 0.980570 0.115108 0.189242
H18   H     H_    0.383850 0.012939 0.012655 0.252296
H19   H     H_    0.390618 0.695153 0.887034 0.155252
H20   H     H_    0.294352 0.458984 0.892339 0.114459
H21   H     H_    0.706732 0.502830 0.110765 0.119170
H22   H     H_    0.642395 0.340006 0.104311 0.224359
H23   H     H_    0.113722 0.346424 0.348542 0.120173
H24   H     H_    0.116392 0.660788 0.637150 0.140949
H25   H     H_    0.882851 0.350834 0.343518 0.124524
H26   H     H_    0.886919 0.658656 0.636251 0.185254
O11   O     O_3   0.705438 0.143194 0.591213 -0.602704
C27   C     C_3   0.811436 0.105674 0.519904 0.120324
H27   H     H_    0.807639 0.159383 0.429958 0.143557
H28   H     H_    0.818244 0.995695 0.496726 0.153548
C28   C     C_3   0.930870 0.143978 0.593574 -0.817561
H29   H     H_    0.014222 0.127835 0.534101 0.207764
H30   H     H_    0.926644 0.251635 0.624900 0.272714
H31   H     H_    0.941324 0.080209 0.677457 0.240032
O12   O     O_3   0.686642 0.857891 0.626866 -0.592708
C29   C     C_3   0.691746 0.902960 0.753762 0.130929
H32   H     H_    0.600000 0.887636 0.798395 0.125918
H33   H     H_    0.714888 0.011324 0.765581 0.185192
C30   C     C_3   0.795930 0.827168 0.823182 -0.918597
H34   H     H_    0.887210 0.843205 0.777547 0.252446
H35   H     H_    0.805088 0.866798 0.920780 0.218166
H36   H     H_    0.775098 0.717587 0.823519 0.244567

loop_
_geom_bond_atom_site_label_1
_geom_bond_atom_site_label_2
_ccdc_geom_bond_type
C26   H16   S    
C16   C21   S    
C1    C8    S    
O4    Zn2   S    
O2    Zn2   S    
C29   C30   S    
C4    C8    A    
C17   O10   S    
C1    O1    A    
C24   H12   S    
C23   H9    S    
C2    H7    S    
C17   H4    S    
C29   H33   S    
O6    Zn2   S    
C20   H21   S    
C28   H31   S    
C10   N1    A    
C15   C22   S    
C23   H10   S    
C27   H27   S    
C2    C22   S    
C9    C10   A    
C9    N2    A    
C23   C24   S    
O8    Zn2   S    
C11   N1    A    
C12   N2    A    
C20   H22   S    
C25   H15   S    
C1    O2    A    
C24   H13   S    
C5    C7    A    
C7    C14   S    
C2    C20   S    
O11   C27   S    
C19   C22   S    
C29   H32   S    
C13   O4    A    
C4    C6    A    
C3    C8    A    
C30   H35   S    
C17   C21   S    
O10   C25   S    
O12   C29   S    
C9    O11   S    
C14   O6    A    
C10   O12   S    
C24   H11   S    
C13   C21   S    
C19   H6    S    
C16   O9    S    
C15   O7    A    
C5    H25   S    
C26   H17   S    
O9    C23   S    
C25   H14   S    
C28   H30   S    
C16   H3    S    
C4    H24   S    
N1    Zn1   S    
C18   C22   S    
C18   H5    S    
C3    C5    A    
C30   H36   S    
C11   C12   A    
C25   C26   S    
C13   O3    A    
C6    C7    A    
C3    H23   S    
C19   H20   S    
C12   H2    S    
C2    H8    S    
O1    Zn1   S    
C28   H29   S    
C14   O5    A    
C27   C28   S    
C11   H1    S    
C17   C19   S    
O5    Zn1   S    
O3    Zn1   S    
C15   O8    A    
C30   H34   S    
C18   H19   S    
C6    H26   S    
C20   C21   S    
O7    Zn1   S    
C16   C18   S    
C26   H18   S    
C27   H28   S    
N2    Zn2   S    
