data_mof_unit_11851.cif
_audit_creation_date              2012-10-26T19:21:03-0400
_audit_creation_method            fapswitch 2.2
_symmetry_space_group_name_H-M    P1
_symmetry_Int_Tables_number       1
_space_group_crystal_system       triclinic
_cell_length_a                    9.831122
_cell_length_b                    11.015883
_cell_length_c                    13.420316
_cell_angle_alpha                 95.405075
_cell_angle_beta                  79.897021
_cell_angle_gamma                 111.108472
_cell_volume                      1334.0913982

loop_
_atom_site_label
_atom_site_type_symbol
_atom_type_description
_atom_site_fract_x
_atom_site_fract_y
_atom_site_fract_z
_atom_type_partial_charge
C1    C     C_R   0.557755 0.745413 0.503393 0.542015
C2    C     C_R   0.374464 0.475587 0.802026 0.008834
C3    C     C_2   0.588997 0.885186 0.502422 -0.125914
C4    C     C_R   0.421991 0.490498 0.691325 0.540021
C5    C     C_2   0.509980 0.935072 0.457023 -0.042539
C6    C     C_2   0.420101 0.116721 0.474843 -0.115119
C7    C     C_2   0.530372 0.072709 0.475384 -0.150296
C8    C     C_2   0.920218 0.486518 0.487477 0.087640
C9    C     C_2   0.044460 0.460852 0.521545 0.327857
C10   C     C_R   0.445018 0.254862 0.490322 0.560740
C11   C     C_R   0.579429 0.513916 0.309498 0.545080
C12   C     C_R   0.439205 0.488962 0.973000 0.037896
C13   C     C_R   0.797016 0.673597 0.068025 -0.117189
C14   C     C_R   0.629161 0.538437 0.201315 0.010712
C15   C     C_R   0.236258 0.383774 0.836256 -0.081101
C16   C     C_R   0.195152 0.350615 0.936904 -0.130382
C17   C     C_R   0.295023 0.400988 0.004579 -0.114573
C18   C     C_1   0.407385 0.858194 0.389409 0.248362
C19   C     C_1   0.870902 0.415917 0.396630 0.253926
C20   C     C_R   0.474771 0.534259 0.872483 0.024820
C21   C     C_R   0.548953 0.533517 0.038011 0.036414
C22   C     C_R   0.687967 0.628897 0.004578 0.052384
C23   C     C_R   0.715291 0.681262 0.909398 -0.127596
C24   C     C_R   0.609764 0.636403 0.845057 -0.117592
C25   C     C_R   0.524829 0.486410 0.135685 -0.115730
C26   C     C_R   0.767327 0.629354 0.166367 -0.120929
Cu1   Cu    Cu3+1 0.362000 0.479240 0.482530 1.060527
Cu2   Cu    Cu3+1 0.638000 0.520760 0.517470 0.983919
H1    H     H_    0.848927 0.671153 0.216499 0.138315
H2    H     H_    0.254980 0.369030 0.081030 0.113027
H3    H     H_    0.086717 0.280805 0.961854 0.138655
H4    H     H_    0.635015 0.684469 0.774030 0.144657
H5    H     H_    0.636463 0.138046 0.493858 0.185469
H6    H     H_    0.793540 0.398975 0.726843 0.356211
H7    H     H_    0.312185 0.051347 0.459978 0.126670
H8    H     H_    0.673595 0.948707 0.545163 0.122416
H9    H     H_    0.157532 0.473499 0.383686 0.188987
H10   H     H_    0.881395 0.593749 0.610739 0.222735
H11   H     H_    0.818906 0.757787 0.884512 0.121618
H12   H     H_    0.903351 0.746478 0.042809 0.121525
H13   H     H_    0.423457 0.411493 0.164696 0.116759
H14   H     H_    0.161317 0.332119 0.784778 0.217987
N1    N     N_2   0.845330 0.551960 0.543750 -0.356703
N2    N     N_2   0.154690 0.448120 0.456210 -0.339033
N3    N     N_1   0.325845 0.797230 0.335557 -0.303651
N4    N     N_1   0.833473 0.357970 0.323684 -0.309147
O1    O     O_R   0.426290 0.668220 0.490680 -0.482952
O2    O     O_2   0.069142 0.494223 0.717927 -0.337152
O3    O     O_3   0.815742 0.334481 0.676295 -0.522298
O4    O     O_R   0.659360 0.703290 0.520190 -0.500723
O5    O     O_R   0.326580 0.473880 0.629020 -0.410414
O6    O     O_R   0.559660 0.508940 0.658530 -0.515446
O7    O     O_R   0.340640 0.296710 0.479810 -0.464793
O8    O     O_R   0.573710 0.331780 0.509320 -0.475123
O9    O     O_R   0.440340 0.491060 0.341470 -0.515348
O10   O     O_R   0.673420 0.526120 0.370980 -0.489113
O11   O     O_2   0.055094 0.280585 0.634881 -0.267675
S1    S     S_3+6 0.000156 0.392294 0.641186 0.012351

loop_
_geom_bond_atom_site_label_1
_geom_bond_atom_site_label_2
_ccdc_geom_bond_type
C12   C17   A    
C6    C10   S    
C2    C4    S    
C23   C24   A    
Cu1   O7    S    
O2    S1    D    
C6    C7    D    
C2    C15   A    
C7    H5    S    
C1    O4    A    
Cu2   N1    S    
C8    N1    D    
C12   C20   A    
H9    N2    S    
C24   H4    S    
Cu2   O10   S    
C19   N4    T    
H10   N1    S    
C21   C22   A    
C14   C26   A    
C16   H3    S    
C17   H2    S    
Cu2   O6    S    
O11   S1    D    
C16   C17   A    
C3    H8    S    
C4    O6    A    
C23   H11   S    
Cu1   N2    S    
Cu1   O1    S    
Cu1   O5    S    
C13   C22   A    
C14   C25   A    
C10   O8    A    
C11   C14   S    
Cu1   O9    S    
C13   C26   A    
C8    C19   S    
O3    S1    S    
C4    O5    A    
C2    C20   A    
C15   C16   A    
C13   H12   S    
C18   N3    T    
C3    C5    D    
C11   O9    A    
C6    H7    S    
C26   H1    S    
C9    S1    S    
C25   H13   S    
Cu1   Cu2   S    
C5    C7    S    
C10   O7    A    
Cu2   O8    S    
C22   C23   A    
C1    O1    A    
H6    O3    S    
C21   C25   A    
C5    C18   S    
C1    C3    S    
Cu2   O4    S    
C12   C21   A    
C11   O10   A    
C20   C24   A    
C15   H14   S    
C8    C9    S    
C9    N2    D    
