data_mof_unit_45852.cif
_audit_creation_date              2012-12-10T18:50:46-0500
_audit_creation_method            fapswitch 2.2
_symmetry_space_group_name_H-M    P1
_symmetry_Int_Tables_number       1
_space_group_crystal_system       triclinic
_cell_length_a                    10.585568
_cell_length_b                    9.95598
_cell_length_c                    15.714473
_cell_angle_alpha                 91.389961
_cell_angle_beta                  90.991685
_cell_angle_gamma                 88.125578
_cell_volume                      1654.5443978

loop_
_atom_site_label
_atom_site_type_symbol
_atom_type_description
_atom_site_fract_x
_atom_site_fract_y
_atom_site_fract_z
_atom_type_partial_charge
C1    C     C_R   0.260781 0.501872 0.499233 0.867497
C2    C     C_3   0.624134 0.441371 0.949356 -0.430223
C3    C     C_3   0.636483 0.453889 0.048595 0.304478
C4    C     C_1   0.495600 0.505587 0.825766 -0.078791
C5    C     C_1   0.499009 0.494933 0.174499 -0.131303
C6    C     C_1   0.499943 0.495404 0.249804 -0.209496
C7    C     C_R   0.067338 0.437945 0.431831 -0.192469
C8    C     C_R   0.066304 0.565905 0.565927 -0.236811
C9    C     C_R   0.936929 0.431209 0.431737 0.124607
C10   C     C_R   0.936974 0.558178 0.569979 0.163513
C11   C     C_R   0.873010 0.493665 0.501391 -0.102952
C12   C     C_R   0.128740 0.505346 0.497841 -0.084989
C13   C     C_R   0.582802 0.070453 0.550262 -0.129542
C14   C     C_R   0.586572 0.927313 0.547281 -0.127570
C15   C     C_R   0.500241 0.498521 0.338584 0.886757
C16   C     C_R   0.408847 0.931525 0.455264 0.203572
C17   C     C_R   0.421075 0.072650 0.445931 0.199181
C18   C     C_R   0.739576 0.497985 0.500559 0.865700
C19   C     C_R   0.499038 0.501518 0.661496 0.907925
C20   C     C_3   0.463658 0.645607 0.052714 -0.021549
C21   C     C_3   0.394569 0.400253 0.043857 -0.000710
C22   C     C_3   0.386554 0.416541 0.946235 -0.426763
C23   C     C_3   0.474898 0.648105 0.954081 -0.429300
C24   C     C_1   0.496917 0.504821 0.750410 -0.192236
C25   C     C_3   0.497328 0.497649 0.082822 0.165798
C26   C     C_3   0.495667 0.503265 0.917254 0.225824
H1    H     H_    0.389043 0.695510 0.924049 0.185571
H2    H     H_    0.294624 0.464848 0.926631 0.183106
H3    H     H_    0.428409 0.297517 0.053540 0.200397
H4    H     H_    0.534348 0.713443 0.081536 0.160383
H5    H     H_    0.391926 0.315562 0.914087 0.162308
H6    H     H_    0.554943 0.711026 0.936631 0.154389
H7    H     H_    0.702609 0.491708 0.917980 0.172364
H8    H     H_    0.632006 0.334744 0.927160 0.174416
H9    H     H_    0.123247 0.392205 0.381252 0.140558
H10   H     H_    0.119464 0.613292 0.617460 0.135251
H11   H     H_    0.649241 0.123072 0.590958 0.146141
H12   H     H_    0.656301 0.873127 0.585374 0.136579
N1    N     N_R   0.499970 0.857200 0.499980 -0.099357
N2    N     N_R   0.499970 0.142800 0.499980 -0.104485
O1    O     O_R   0.316750 0.614620 0.499990 -0.628254
O2    O     O_R   0.316750 0.385380 0.499990 -0.632845
O3    O     O_R   0.499990 0.614720 0.377140 -0.600821
O4    O     O_R   0.499990 0.385280 0.377140 -0.621566
O5    O     O_R   0.683220 0.614710 0.500000 -0.619630
O6    O     O_R   0.683220 0.385290 0.500000 -0.630243
O7    O     O_R   0.499980 0.614620 0.622860 -0.613368
O8    O     O_R   0.499980 0.385380 0.622860 -0.610356
Zn1   Zn    Zn3+2 0.499980 0.653120 0.500000 0.936752
Zn2   Zn    Zn3+2 0.499980 0.346880 0.500000 0.924889
C27   C     C_3   0.282077 0.874351 0.429480 -0.344884
C28   C     C_3   0.281516 0.800467 0.342710 -0.764577
H13   H     H_    0.371837 0.810920 0.309048 0.258579
H14   H     H_    0.263655 0.692341 0.350071 0.249803
H15   H     H_    0.204485 0.842730 0.301487 0.216907
H16   H     H_    0.242489 0.818663 0.481416 0.220304
H17   H     H_    0.207202 0.954761 0.428363 0.141022
C29   C     C_3   0.361376 0.139332 0.368127 -0.367206
C30   C     C_3   0.450590 0.127096 0.292813 -0.845461
H18   H     H_    0.459466 0.020967 0.270058 0.238174
H19   H     H_    0.411511 0.188928 0.240100 0.244992
H20   H     H_    0.546527 0.161203 0.310503 0.280297
H21   H     H_    0.271714 0.095860 0.346027 0.177915
H22   H     H_    0.333012 0.244226 0.381225 0.247413
C31   C     C_3   0.335153 0.708950 0.082837 -0.379175
C32   C     C_3   0.336935 0.862611 0.088422 -0.933985
H23   H     H_    0.408597 0.895743 0.136196 0.259202
H24   H     H_    0.359000 0.904003 0.025570 0.267425
H25   H     H_    0.242883 0.903547 0.108315 0.257356
H26   H     H_    0.257713 0.682812 0.037747 0.210335
H27   H     H_    0.311578 0.673103 0.146807 0.216875
C33   C     C_3   0.261440 0.404401 0.085341 -0.418867
C34   C     C_3   0.193824 0.271829 0.071601 -0.927480
H28   H     H_    0.182429 0.248095 0.002538 0.267832
H29   H     H_    0.248087 0.188413 0.102510 0.263683
H30   H     H_    0.098656 0.280203 0.100278 0.258059
H31   H     H_    0.268791 0.423469 0.155054 0.218464
H32   H     H_    0.198429 0.483756 0.058460 0.216885
C35   C     C_3   0.734116 0.568099 0.071618 -0.432274
C36   C     C_3   0.875349 0.533580 0.058627 -0.933693
H33   H     H_    0.913052 0.467096 0.109412 0.259413
H34   H     H_    0.892234 0.485411 0.995258 0.261186
H35   H     H_    0.929617 0.627200 0.062896 0.254971
H36   H     H_    0.715248 0.657296 0.032016 0.202477
H37   H     H_    0.723404 0.601282 0.139227 0.209391
C37   C     C_3   0.697277 0.320599 0.087693 -0.340194
C38   C     C_3   0.631517 0.186093 0.079961 -0.989819
H38   H     H_    0.557701 0.180061 0.128605 0.267215
H39   H     H_    0.593346 0.166168 0.014919 0.258529
H40   H     H_    0.701422 0.103571 0.094031 0.258485
H41   H     H_    0.789406 0.298904 0.056771 0.226857
H42   H     H_    0.717892 0.339584 0.156391 0.217810
C39   C     C_3   0.865044 0.360310 0.359149 -0.362413
C40   C     C_3   0.945909 0.299620 0.287058 -0.939818
H43   H     H_    0.996639 0.379468 0.254816 0.260687
H44   H     H_    0.014459 0.222678 0.311917 0.261282
H45   H     H_    0.884378 0.248761 0.239326 0.252357
H46   H     H_    0.812285 0.276735 0.385634 0.230090
H47   H     H_    0.795394 0.432991 0.330741 0.192355
C41   C     C_3   0.871945 0.612005 0.649887 -0.421418
C42   C     C_3   0.836881 0.497601 0.707052 -0.873791
H48   H     H_    0.771373 0.428800 0.673391 0.258473
H49   H     H_    0.923293 0.439466 0.726995 0.259168
H50   H     H_    0.789763 0.539648 0.764863 0.243334
H51   H     H_    0.935330 0.679033 0.687255 0.197320
H52   H     H_    0.786765 0.674673 0.634236 0.219815

loop_
_geom_bond_atom_site_label_1
_geom_bond_atom_site_label_2
_ccdc_geom_bond_type
C32   H24   S    
C38   H38   S    
C11   C18   S    
C39   C40   S    
C36   H33   S    
C34   H28   S    
C16   C27   S    
C3    C35   S    
O7    Zn1   S    
C20   H4    S    
C41   H51   S    
C42   H48   S    
C15   O4    A    
C37   H41   S    
C5    C6    T    
C4    C24   T    
C19   O7    A    
C32   H25   S    
C20   C25   S    
C31   H26   S    
C27   H16   S    
C8    H10   S    
C23   C26   S    
C13   N2    A    
C33   H32   S    
C14   N1    A    
C16   C17   A    
C27   H17   S    
C23   H1    S    
C39   H47   S    
C13   H11   S    
C28   H15   S    
C17   C29   S    
C2    H8    S    
O8    Zn2   S    
C32   H23   S    
C6    C15   S    
C30   H18   S    
C42   H49   S    
C22   H2    S    
C21   C22   S    
C3    C37   S    
C34   H29   S    
C1    C12   S    
C36   H35   S    
C18   O6    A    
O1    Zn1   S    
C28   H14   S    
C29   H22   S    
C7    C12   A    
C30   H19   S    
C22   H5    S    
C21   C33   S    
C27   C28   S    
C20   C31   S    
C3    C25   S    
C36   H34   S    
C19   O8    A    
O3    Zn1   S    
C40   H45   S    
C29   C30   S    
C31   H27   S    
C21   H3    S    
C17   N2    A    
C10   C41   S    
C33   H31   S    
C14   H12   S    
C20   C23   S    
O5    Zn1   S    
C8    C12   A    
C2    C26   S    
C40   H44   S    
C9    C11   A    
O2    Zn2   S    
C5    C25   S    
C2    H7    S    
C1    O1    A    
N1    Zn1   S    
C42   H50   S    
C38   H39   S    
C34   H30   S    
C18   O5    A    
C9    C39   S    
C35   H37   S    
C28   H13   S    
O4    Zn2   S    
C29   H21   S    
C7    C9    A    
C21   C25   S    
C30   H20   S    
C37   C38   S    
C7    H9    S    
C33   C34   S    
C4    C26   S    
O6    Zn2   S    
C41   H52   S    
C23   H6    S    
C19   C24   S    
C15   O3    A    
C37   H42   S    
C35   H36   S    
N2    Zn2   S    
C41   C42   S    
C2    C3    S    
C40   H43   S    
C10   C11   A    
C16   N1    A    
C35   C36   S    
C1    O2    A    
C8    C10   A    
C31   C32   S    
C22   C26   S    
C38   H40   S    
C13   C14   A    
C39   H46   S    
