data_mof_unit_19464.cif
_audit_creation_date              2012-10-26T19:40:05-0400
_audit_creation_method            fapswitch 2.2
_symmetry_space_group_name_H-M    P1
_symmetry_Int_Tables_number       1
_space_group_crystal_system       triclinic
_cell_length_a                    15.027738
_cell_length_b                    8.611757
_cell_length_c                    7.462381
_cell_angle_alpha                 103.062316
_cell_angle_beta                  93.164639
_cell_angle_gamma                 90.772537
_cell_volume                      938.987640288

loop_
_atom_site_label
_atom_site_type_symbol
_atom_type_description
_atom_site_fract_x
_atom_site_fract_y
_atom_site_fract_z
_atom_type_partial_charge
C1    C     C_R   0.489979 0.200645 0.454527 0.532242
C2    C     C_R   0.186228 0.369021 0.428617 -0.167461
C3    C     C_R   0.767749 0.493193 0.484174 -0.003566
C4    C     C_R   0.233876 0.507468 0.514234 -0.001251
C5    C     C_R   0.811163 0.359923 0.383025 0.252195
C6    C     C_R   0.190285 0.646143 0.597628 0.232790
C7    C     C_R   0.906022 0.362694 0.388426 -0.030241
C8    C     C_R   0.096189 0.644858 0.589173 -0.024320
C9    C     C_R   0.954044 0.501587 0.488111 -0.035823
C10   C     C_R   0.047872 0.505137 0.496199 -0.034719
C11   C     C_R   0.908691 0.636158 0.581494 0.028508
C12   C     C_R   0.500299 0.800137 0.546924 0.544110
C13   C     C_R   0.093617 0.365993 0.419523 0.029437
C14   C     C_R   0.954469 0.228655 0.305255 -0.131443
C15   C     C_R   0.049896 0.779144 0.674575 -0.117641
C16   C     C_3   0.769203 0.089753 0.318561 -0.031234
C17   C     C_3   0.682014 0.033741 0.374773 -0.358380
C18   C     C_3   0.253322 0.887913 0.593101 -0.024534
C19   C     C_3   0.287326 0.044803 0.718017 -0.358811
C20   C     C_3   0.090394 0.994985 0.138959 -0.035900
C21   C     C_3   0.147307 0.849329 0.135000 -0.362894
C22   C     C_3   0.937784 0.050942 0.741517 -0.035679
C23   C     C_R   0.046844 0.225117 0.334445 0.244535
C24   C     C_3   0.867528 0.173968 0.805222 -0.361622
C25   C     C_R   0.956343 0.776599 0.673215 0.257362
C26   C     C_2   0.479000 0.032582 0.431116 -0.187810
C27   C     C_2   0.498020 0.968498 0.573855 -0.172480
C28   C     C_R   0.329567 0.505750 0.505249 0.560219
C29   C     C_R   0.670989 0.494088 0.494489 0.572754
C30   C     C_R   0.815998 0.628061 0.582133 -0.166216
Cu1   Cu    Cu3+1 0.510010 0.517380 0.684380 0.972048
Cu2   Cu    Cu3+1 0.489990 0.482620 0.315620 0.967480
H1    H     H_    0.922090 0.120685 0.228451 0.125848
H2    H     H_    0.630991 0.025247 0.259477 0.176209
H3    H     H_    0.689320 0.914256 0.406132 0.100277
H4    H     H_    0.190651 0.912981 0.519776 0.167097
H5    H     H_    0.303485 0.843853 0.490692 0.143558
H6    H     H_    0.348149 0.025443 0.800688 0.166494
H7    H     H_    0.303364 0.131348 0.633692 0.109488
H8    H     H_    0.235415 0.095435 0.813160 0.139961
H9    H     H_    0.120255 0.068772 0.051746 0.126584
H10   H     H_    0.022293 0.952107 0.082811 0.171484
H11   H     H_    0.120326 0.776182 0.225575 0.147741
H12   H     H_    0.086846 0.884709 0.747769 0.129322
H13   H     H_    0.147058 0.773706 0.994016 0.161614
H14   H     H_    0.217184 0.887414 0.182591 0.151570
H15   H     H_    0.946862 0.042157 0.592538 0.155457
H16   H     H_    0.001116 0.095082 0.821346 0.120419
H17   H     H_    0.865439 0.199793 0.957085 0.184679
H18   H     H_    0.883823 0.286468 0.763614 0.112633
H19   H     H_    0.800518 0.128680 0.744461 0.164213
H20   H     H_    0.430903 0.379475 0.949321 0.236189
H21   H     H_    0.569095 0.620512 0.050682 0.240484
H22   H     H_    0.461567 0.960732 0.293616 0.134526
H23   H     H_    0.515307 0.040166 0.711515 0.137981
H24   H     H_    0.779998 0.728684 0.655982 0.165386
H25   H     H_    0.222149 0.263976 0.365827 0.148068
H26   H     H_    0.819557 0.091059 0.432831 0.114109
H27   H     H_    0.788266 0.999468 0.196123 0.160914
H28   H     H_    0.662610 0.119283 0.500331 0.163204
N1    N     N_2   0.474890 0.456420 0.038520 -0.252812
N2    N     N_2   0.525110 0.543580 0.961480 -0.250347
O1    O     O_R   0.506510 0.286130 0.619770 -0.512445
O2    O     O_3   0.239510 0.775996 0.701477 -0.572662
O3    O     O_3   0.089001 0.081170 0.322798 -0.597178
O4    O     O_3   0.910360 0.902847 0.775188 -0.591190
O5    O     O_R   0.493490 0.713870 0.380230 -0.515215
O6    O     O_R   0.489600 0.256770 0.308360 -0.492331
O7    O     O_R   0.510400 0.743230 0.691640 -0.492170
O8    O     O_R   0.378710 0.514640 0.655720 -0.480472
O9    O     O_R   0.621290 0.485360 0.344280 -0.468658
O10   O     O_R   0.361800 0.485290 0.344300 -0.518634
O11   O     O_R   0.638200 0.514710 0.655700 -0.508487
O12   O     O_3   0.759280 0.238040 0.268099 -0.554564

loop_
_geom_bond_atom_site_label_1
_geom_bond_atom_site_label_2
_ccdc_geom_bond_type
C14   C23   A    
Cu2   N1    S    
C3    C30   A    
C22   H16   S    
C12   O7    A    
C30   H24   S    
Cu1   O11   S    
C19   H6    S    
C1    O1    A    
C8    C15   A    
C17   H3    S    
C9    C10   A    
C2    C4    A    
Cu1   Cu2   S    
Cu2   O6    S    
C7    C9    A    
C23   O3    S    
C24   H19   S    
C22   H15   S    
C2    H25   S    
Cu2   O10   S    
C16   H26   S    
C20   H10   S    
C9    C11   A    
Cu1   N2    S    
C18   O2    S    
C26   C27   D    
C28   O10   A    
C19   H7    S    
C14   H1    S    
Cu2   O5    S    
C16   O12   S    
C26   H22   S    
C22   C24   S    
C8    C10   A    
C4    C28   S    
C18   H5    S    
C15   H12   S    
C21   H14   S    
Cu2   O9    S    
C21   H13   S    
H20   N1    S    
Cu1   O8    S    
C24   H18   S    
N1    N2    D    
C12   O5    A    
C27   H23   S    
C1    C26   S    
C15   C25   A    
C17   H2    S    
C11   C25   A    
C17   H28   S    
C28   O8    A    
Cu1   O1    S    
C20   O3    S    
Cu1   O7    S    
C1    O6    A    
C29   O11   A    
C20   C21   S    
C13   C23   A    
H21   N2    S    
C4    C6    A    
C18   C19   S    
C19   H8    S    
C6    O2    S    
C5    O12   S    
C5    C7    A    
C2    C13   A    
C22   O4    S    
C3    C29   S    
C6    C8    A    
C12   C27   S    
C29   O9    A    
C21   H11   S    
C18   H4    S    
C10   C13   A    
C7    C14   A    
C24   H17   S    
C25   O4    S    
C11   C30   A    
C20   H9    S    
C16   C17   S    
C3    C5    A    
C16   H27   S    
