data_mof_unit_47488.cif
_audit_creation_date              2012-12-11T17:39:31-0500
_audit_creation_method            fapswitch 2.2
_symmetry_space_group_name_H-M    P1
_symmetry_Int_Tables_number       1
_space_group_crystal_system       triclinic
_cell_length_a                    15.107631
_cell_length_b                    14.928102
_cell_length_c                    14.95332
_cell_angle_alpha                 108.479579
_cell_angle_beta                  110.18507
_cell_angle_gamma                 109.968778
_cell_volume                      2588.49938559

loop_
_atom_site_label
_atom_site_type_symbol
_atom_type_description
_atom_site_fract_x
_atom_site_fract_y
_atom_site_fract_z
_atom_type_partial_charge
C1    C     C_R   0.909511 0.974708 0.721772 -0.123194
C2    C     C_R   0.909612 0.705174 0.512076 -0.133765
C3    C     C_R   0.751058 0.779419 0.187161 -0.133823
C4    C     C_R   0.090876 0.316049 0.556275 -0.128437
C5    C     C_R   0.258181 0.943484 0.535597 -0.152472
C6    C     C_R   0.724893 0.676660 0.176995 0.131543
C7    C     C_R   0.287453 0.965162 0.463512 0.051277
C8    C     C_R   0.000199 0.704911 0.578184 0.066163
C9    C     C_R   0.995637 0.062756 0.194576 0.069687
C10   C     C_R   0.483909 0.597805 0.285896 -0.098031
C11   C     C_R   0.474774 0.690700 0.301343 -0.148744
C12   C     C_R   0.997876 0.325875 0.537024 0.054460
C13   C     C_R   0.444260 0.732727 0.376540 0.121306
C14   C     C_R   0.416827 0.675888 0.430901 -0.162924
C15   C     C_R   0.422701 0.580715 0.412365 -0.124522
C16   C     C_R   0.302444 0.207756 0.798806 -0.144713
C17   C     C_R   0.457294 0.542306 0.340735 -0.081226
C18   C     C_R   0.363265 0.850748 0.413059 -0.252839
C19   C     C_R   0.370600 0.953040 0.446171 0.070005
C20   C     C_R   0.461027 0.045502 0.468750 0.001433
C21   C     C_R   0.540491 0.032322 0.452980 -0.239361
C22   C     C_R   0.536416 0.932095 0.424398 0.070897
C23   C     C_R   0.364801 0.301658 0.800992 0.136536
C24   C     C_R   0.447714 0.839156 0.403552 0.021733
C25   C     C_R   0.460493 0.212319 0.466557 -0.200471
C26   C     C_R   0.492298 0.322839 0.520268 -0.112910
C27   C     C_R   0.552621 0.383094 0.634439 -0.140334
C28   C     C_R   0.696870 0.993787 0.402092 0.019455
C29   C     C_R   0.580395 0.332669 0.695091 -0.101617
C30   C     C_R   0.546874 0.221379 0.642366 0.046380
C31   C     C_R   0.486408 0.160163 0.526636 0.092153
C32   C     C_R   0.698297 0.236892 0.219673 -0.134449
C33   C     C_R   0.794798 0.314503 0.319903 -0.124911
C34   C     C_R   0.636146 0.937356 0.435791 0.023879
C35   C     C_R   0.794686 0.336556 0.418423 0.100840
C36   C     C_R   0.696744 0.280594 0.415314 -0.185126
C37   C     C_R   0.601330 0.200513 0.314735 -0.089352
C38   C     C_R   0.601906 0.179221 0.217163 -0.125878
C39   C     C_R   0.896687 0.525904 0.555268 -0.226256
C40   C     C_R   0.301347 0.300073 0.707968 -0.128228
C41   C     C_R   0.996723 0.623131 0.614316 0.048405
C42   C     C_R   0.091972 0.625371 0.679274 0.031201
C43   C     C_R   0.088339 0.525739 0.659328 -0.244509
C44   C     C_R   0.992486 0.426521 0.574258 0.067323
C45   C     C_R   0.751137 0.686716 0.279143 -0.157769
C46   C     C_R   0.894221 0.427348 0.523111 0.020746
C47   C     C_R   0.288404 0.752311 0.750284 -0.200169
C48   C     C_R   0.377675 0.859133 0.811345 -0.123669
C49   C     C_R   0.377957 0.942318 0.888358 -0.114565
C50   C     C_R   0.288842 0.918953 0.904565 -0.125377
C51   C     C_R   0.197597 0.813161 0.840907 -0.141066
C52   C     C_R   0.697892 0.907942 0.498932 -0.161245
C53   C     C_R   0.195858 0.729606 0.761659 0.119994
C54   C     C_2   0.534167 0.471654 0.881398 -0.145869
C55   C     C_2   0.481011 0.377353 0.878677 -0.186790
C56   C     C_R   0.249925 0.030250 0.437222 -0.100170
C57   C     C_2   0.635239 0.567144 0.979071 -0.125516
C58   C     C_2   0.670506 0.573255 0.077298 -0.182503
C59   C     C_R   0.398265 0.281601 0.119850 -0.147186
C60   C     C_R   0.296039 0.219837 0.105054 -0.189345
C61   C     C_R   0.208066 0.232708 0.051646 0.118509
C62   C     C_R   0.224610 0.309734 0.015294 -0.140029
C63   C     C_R   0.327228 0.371432 0.030496 -0.085307
C64   C     C_R   0.908384 0.221339 0.471376 -0.141059
C65   C     C_R   0.413635 0.356837 0.082220 -0.121217
C66   C     C_R   0.091678 0.162227 0.122458 -0.239387
C67   C     C_R   0.090537 0.792936 0.598381 -0.141907
C68   C     C_R   0.991905 0.094277 0.109399 0.062402
C69   C     C_R   0.894198 0.049835 0.009870 0.025468
C70   C     C_R   0.901576 0.057878 0.922679 -0.238020
C71   C     C_R   0.002616 0.098982 0.928272 0.056209
C72   C     C_R   0.098885 0.164536 0.032704 0.030300
C73   C     C_R   0.729889 0.868029 0.926648 -0.162352
C74   C     C_R   0.629408 0.803892 0.914038 -0.150113
C75   C     C_R   0.582714 0.853898 0.962480 -0.097983
C76   C     C_R   0.092288 0.062243 0.812818 -0.137389
C77   C     C_R   0.633023 0.968106 0.017898 -0.140716
C78   C     C_R   0.907977 0.002635 0.201029 -0.154341
C79   C     C_R   0.731774 0.032768 0.027644 -0.177191
C80   C     C_R   0.783064 0.982840 0.986477 0.118405
C81   C     C_R   0.002669 0.051711 0.825200 0.054666
C82   C     C_R   0.089031 0.094515 0.289268 -0.138975
H1    H     H_    0.825100 0.943701 0.699326 0.093508
H2    H     H_    0.513049 0.570093 0.232287 0.114600
H3    H     H_    0.494865 0.731722 0.257115 0.111345
H4    H     H_    0.175385 0.381124 0.605108 0.090061
H5    H     H_    0.393848 0.706724 0.489866 0.107161
H6    H     H_    0.402479 0.537943 0.455179 0.102782
H7    H     H_    0.292981 0.781241 0.397058 0.133860
H8    H     H_    0.612319 0.104504 0.474771 0.140109
H9    H     H_    0.414316 0.166937 0.377999 0.103189
H10   H     H_    0.471114 0.362039 0.473272 0.106029
H11   H     H_    0.578443 0.469100 0.676009 0.105768
H12   H     H_    0.257718 0.060717 0.382384 0.100407
H13   H     H_    0.629229 0.380417 0.783479 0.133864
H14   H     H_    0.527267 0.118636 0.139651 0.097043
H15   H     H_    0.332575 0.175751 0.850420 0.103332
H16   H     H_    0.697868 0.222271 0.143910 0.103524
H17   H     H_    0.868933 0.359402 0.320896 0.112203
H18   H     H_    0.694826 0.298331 0.490471 0.128802
H19   H     H_    0.526636 0.154720 0.311736 0.112018
H20   H     H_    0.820989 0.523592 0.513304 0.125188
H21   H     H_    0.162187 0.526496 0.705086 0.124264
H22   H     H_    0.287857 0.689736 0.688252 0.114739
H23   H     H_    0.175353 0.825590 0.653032 0.129613
H24   H     H_    0.445889 0.877823 0.797465 0.131428
H25   H     H_    0.446802 0.025087 0.934681 0.097712
H26   H     H_    0.289003 0.983571 0.963913 0.109309
H27   H     H_    0.126579 0.797387 0.849986 0.113192
H28   H     H_    0.495345 0.486958 0.816576 0.116628
H29   H     H_    0.519412 0.357757 0.939447 0.124279
H30   H     H_    0.665484 0.640784 0.973150 0.120305
H31   H     H_    0.645527 0.501280 0.086322 0.118010
H32   H     H_    0.493132 0.405131 0.094889 0.095532
H33   H     H_    0.465646 0.271372 0.160667 0.125638
H34   H     H_    0.824105 0.977824 0.155389 0.131652
H35   H     H_    0.284939 0.160643 0.133374 0.109488
H36   H     H_    0.157964 0.321057 0.974445 0.114158
H37   H     H_    0.339867 0.430477 0.002123 0.116357
H38   H     H_    0.329151 0.350853 0.674558 0.090303
H39   H     H_    0.166265 0.208610 0.201019 0.121611
H40   H     H_    0.826112 0.019629 0.846696 0.124902
H41   H     H_    0.767751 0.828553 0.892693 0.115019
H42   H     H_    0.588712 0.715505 0.868498 0.102851
H43   H     H_    0.506660 0.804115 0.955702 0.122634
H44   H     H_    0.596067 0.006216 0.054427 0.122302
H45   H     H_    0.172540 0.153716 0.319923 0.086528
H46   H     H_    0.771792 0.121111 0.072855 0.114939
H47   H     H_    0.670772 0.853760 0.529519 0.115145
H48   H     H_    0.825135 0.195882 0.449154 0.131465
H49   H     H_    0.177637 0.109344 0.873729 0.126053
H50   H     H_    0.741247 0.622511 0.300325 0.101236
H51   H     H_    0.623658 0.142026 0.686896 0.110998
H52   H     H_    0.505387 0.107379 0.688686 0.111222
H53   H     H_    0.585413 0.930195 0.243943 0.100738
H54   H     H_    0.709827 0.025017 0.283259 0.113735
H55   H     H_    0.826258 0.658592 0.491704 0.088426
H56   H     H_    0.740393 0.801029 0.123497 0.109468
H57   H     H_    0.278564 0.898474 0.575406 0.103878
H58   H     H_    0.464104 0.470034 0.328319 0.111952
N1    N     N_R   0.941940 0.944580 0.650780 -0.040508
N2    N     N_R   0.204460 0.150250 0.707090 -0.043063
N3    N     N_R   0.794270 0.003240 0.446420 -0.054714
N4    N     N_R   0.204920 0.207570 0.650770 -0.043820
N5    N     N_R   0.793810 0.945920 0.502740 -0.044176
N6    N     N_R   0.943620 0.152590 0.446420 -0.044705
N7    N     N_R   0.055110 0.000900 0.707100 -0.041071
N8    N     N_R   0.795080 0.792430 0.349230 -0.038116
N9    N     N_3   0.576839 0.172853 0.707726 -0.223869
N10   N     N_3   0.652505 0.006422 0.308298 -0.213876
N11   N     N_R   0.206190 0.054080 0.497260 -0.040939
N12   N     N_R   0.056380 0.847410 0.553580 -0.040738
N13   N     N_R   0.944890 0.999100 0.292900 -0.041989
N14   N     N_R   0.058060 0.055420 0.349220 -0.038573
N15   N     N_R   0.943200 0.791100 0.497260 -0.038040
N16   N     N_R   0.795540 0.849750 0.292910 -0.047999
N17   N     N_R   0.205730 0.996760 0.553580 -0.039086
N18   N     N_R   0.056800 0.208900 0.502740 -0.038803
Ni1   Ni    Ni4+2 0.869690 0.869690 0.500000 0.211130
Ni2   Ni    Ni4+2 0.130310 0.130310 0.500000 0.214792
Ni3   Ni    Ni4+2 0.129250 0.998840 0.629170 0.215600
Ni4   Ni    Ni4+2 0.870750 0.001160 0.370830 0.204007

loop_
_geom_bond_atom_site_label_1
_geom_bond_atom_site_label_2
_ccdc_geom_bond_type
C25   C31   A    
C74   H42   S    
C79   H46   S    
C63   C65   A    
C41   C42   A    
C28   N10   S    
C2    N15   A    
C6    C45   A    
C27   C29   A    
C45   N8    A    
C65   H32   S    
C6    C58   S    
C66   C68   A    
C35   C36   A    
C3    C6    A    
N2    Ni3   S    
C39   C41   A    
C56   H12   S    
N6    Ni4   S    
C26   C27   A    
C37   C38   A    
C18   C24   A    
C52   H47   S    
N11   N17   A    
C36   C37   A    
C14   H5    S    
C42   C53   S    
C30   C31   A    
N5    Ni1   S    
C76   H49   S    
C16   H15   S    
C57   H30   S    
C4    H4    S    
C10   C17   A    
C1    C81   A    
C23   C40   A    
C54   H28   S    
C15   C17   A    
C18   C19   A    
C73   C74   A    
N1    Ni1   S    
C4    N18   A    
C19   C20   A    
C76   N7    A    
C66   C72   A    
C68   C69   A    
C73   H41   S    
C58   H31   S    
C70   C71   A    
C32   C38   A    
N4    Ni2   S    
C29   C30   A    
N3    Ni4   S    
N12   Ni3   S    
C9    C82   A    
C47   C53   A    
C64   N6    A    
N16   Ni4   S    
C59   C60   A    
C51   H27   S    
C13   C14   A    
N18   Ni2   S    
C2    H55   S    
C61   C62   A    
C7    C56   A    
C44   C46   A    
C5    H57   S    
C78   H34   S    
C21   H8    S    
C77   C79   A    
C22   C34   S    
C48   H24   S    
C25   H9    S    
C74   C75   A    
N15   Ni1   S    
H51   N9    S    
C8    C41   S    
C49   H25   S    
N7    Ni3   S    
C29   H13   S    
C52   N5    A    
C67   H23   S    
C30   N9    S    
C25   C26   A    
H52   N9    S    
C13   C24   S    
C60   C61   A    
C75   H43   S    
N8    Ni1   S    
C16   N2    A    
C43   C44   A    
N14   Ni2   S    
C62   C63   A    
C63   H37   S    
C70   H40   S    
C47   C48   A    
N12   N15   A    
C50   C51   A    
C66   H39   S    
C28   N3    A    
C60   H35   S    
C36   H18   S    
C3    H56   S    
C56   N11   A    
C75   C77   A    
C45   H50   S    
C39   C46   A    
C61   C72   S    
C48   C49   A    
C40   H38   S    
C64   H48   S    
C16   C23   A    
C7    C19   S    
C40   N4    A    
C22   C24   A    
C27   H11   S    
C4    C12   A    
C42   C43   A    
N17   Ni3   S    
C39   H20   S    
C5    C7    A    
N3    N5    A    
C54   C55   D    
C47   H22   S    
C55   H29   S    
C67   N12   A    
C18   H7    S    
C34   C52   A    
C50   H26   S    
C2    C8    A    
C76   C81   A    
H54   N10   S    
C78   N13   A    
C23   C55   S    
N6    N18   A    
C1    H1    S    
H53   N10   S    
C5    N17   A    
N13   Ni4   S    
C33   H17   S    
C32   C33   A    
C9    C68   S    
C71   C72   A    
C12   C44   S    
N11   Ni2   S    
C37   H19   S    
C11   C13   A    
C57   C58   D    
C11   H3    S    
C12   C64   A    
C10   H2    S    
C3    N16   A    
C33   C35   A    
C73   C80   A    
C32   H16   S    
C17   H58   S    
N2    N4    A    
C9    C78   A    
C69   C70   A    
C43   H21   S    
C82   H45   S    
C62   H36   S    
C1    N1    A    
C10   C11   A    
N1    N7    A    
C28   C34   A    
C79   C80   A    
C82   N14   A    
C20   C21   A    
C8    C67   A    
C59   H33   S    
C49   C50   A    
C38   H14   S    
C14   C15   A    
C69   C80   S    
N8    N16   A    
C51   C53   A    
N13   N14   A    
C21   C22   A    
C35   C46   S    
C26   H10   S    
C54   C57   S    
C59   C65   A    
C77   H44   S    
C15   H6    S    
C71   C81   S    
C20   C31   S    
