data_mof_unit_52439.cif
_audit_creation_date              2012-12-10T19:50:37-0500
_audit_creation_method            fapswitch 2.2
_symmetry_space_group_name_H-M    P1
_symmetry_Int_Tables_number       1
_space_group_crystal_system       triclinic
_cell_length_a                    18.305467
_cell_length_b                    18.300097
_cell_length_c                    18.257808
_cell_angle_alpha                 119.910974
_cell_angle_beta                  90.177995
_cell_angle_gamma                 119.797943
_cell_volume                      4337.09597096

loop_
_atom_site_label
_atom_site_type_symbol
_atom_type_description
_atom_site_fract_x
_atom_site_fract_y
_atom_site_fract_z
_atom_type_partial_charge
C1    C     C_R   0.639657 0.779875 0.641327 0.540306
C2    C     C_R   0.246900 0.944555 0.158012 -0.128576
C3    C     C_R   0.202592 0.891412 0.195967 -0.023237
C4    C     C_R   0.361227 0.219866 0.359729 0.545663
C5    C     C_R   0.224077 0.947187 0.288885 -0.030050
C6    C     C_3   0.165662 0.944387 0.345889 0.247797
C7    C     C_3   0.225644 0.061823 0.404687 0.174409
C8    C     C_R   0.788355 0.572478 0.341904 0.013722
C9    C     C_R   0.695421 0.506205 0.303722 0.037079
C10   C     C_R   0.656856 0.449622 0.210438 -0.164921
C11   C     C_R   0.710843 0.450084 0.156571 -0.152144
C12   C     C_3   0.809605 0.597180 0.821465 0.088042
C13   C     C_R   0.803889 0.507286 0.195554 0.034200
C14   C     C_R   0.841628 0.573363 0.288729 -0.004355
C15   C     C_3   0.908887 0.586984 0.349600 -0.241399
C16   C     C_R   0.360397 0.500286 0.640234 0.500884
C17   C     C_3   0.850406 0.586079 0.408380 -0.025673
C18   C     C_R   0.786871 0.946926 0.734135 -0.055098
C19   C     C_R   0.694049 0.891257 0.705284 0.007422
C20   C     C_R   0.655088 0.945789 0.743224 0.230873
C21   C     C_R   0.708442 0.053867 0.791559 0.238424
C22   C     C_R   0.802397 0.108201 0.811148 0.011889
C23   C     C_3   0.707380 0.538432 0.796648 0.055095
C24   C     C_R   0.839758 0.052556 0.787042 -0.056025
C25   C     C_3   0.911431 0.057705 0.746215 0.199056
C26   C     C_3   0.851793 0.939566 0.686646 0.205588
C27   C     C_R   0.282032 0.568442 0.338772 -0.111228
C28   C     C_R   0.639878 0.500252 0.359857 0.506735
C29   C     C_R   0.303046 0.497498 0.302362 0.021013
C30   C     C_R   0.265659 0.421551 0.208730 0.086192
C31   C     C_R   0.210213 0.420791 0.155756 -0.152372
C32   C     C_R   0.190767 0.494523 0.195426 -0.030738
C33   C     C_R   0.225664 0.564974 0.287710 -0.046650
C34   C     C_3   0.699482 0.442326 0.777312 0.099821
C35   C     C_3   0.233007 0.656721 0.368178 0.559690
C36   C     C_3   0.299383 0.660321 0.425152 0.051915
C37   C     C_R   0.289666 0.577168 0.736398 -0.058150
C38   C     C_R   0.311900 0.506790 0.702972 -0.049217
C39   C     C_R   0.291271 0.446399 0.735852 -0.155780
C40   C     C_R   0.359200 0.500014 0.358678 0.518394
C41   C     C_R   0.239419 0.447495 0.792078 0.204204
C42   C     C_R   0.204596 0.506993 0.812755 0.005226
C43   C     C_R   0.236640 0.576594 0.789443 0.024271
C44   C     C_3   0.193858 0.608900 0.753142 0.520361
C45   C     C_3   0.691791 0.404324 0.679432 0.224864
C46   C     C_3   0.252702 0.607756 0.692481 0.019460
C47   C     C_R   0.859971 0.500643 0.139989 0.505438
C48   C     C_R   0.140860 0.500463 0.860745 0.526334
C49   C     C_R   0.140282 0.779940 0.140055 0.516391
C50   C     C_R   0.859710 0.219899 0.860296 0.540366
C51   C     C_R   0.139218 0.498223 0.140986 0.494095
C52   C     C_R   0.641505 0.499618 0.641232 0.559040
C53   C     C_R   0.858518 0.500352 0.858713 0.521242
C54   C     C_3   0.800922 0.557878 0.723108 0.233652
C55   C     C_3   0.794282 0.461211 0.702080 -0.188245
C56   C     C_3   0.698706 0.499702 0.698387 0.058333
C57   C     C_3   0.801790 0.500529 0.801448 -0.046236
C58   C     C_3   0.184474 0.172512 0.484540 0.000246
C59   C     C_3   0.145450 0.226253 0.477629 -0.356128
C60   C     C_3   0.544348 0.886229 0.798971 0.035718
C61   C     C_3   0.492441 0.932353 0.837738 -0.351392
C62   C     C_3   0.938087 0.654001 0.713873 0.005558
C63   C     C_3   0.985661 0.715205 0.675606 -0.372038
C64   C     C_3   0.632387 0.102397 0.750300 0.015810
C65   C     C_3   0.593164 0.164701 0.784516 -0.353157
C66   C     C_3   0.008854 0.149903 0.697646 0.021762
C67   C     C_R   0.277799 0.053352 0.341519 -0.050034
C68   C     C_3   0.017203 0.192624 0.642646 -0.344763
C69   C     C_3   0.858658 0.852456 0.545058 0.004154
C70   C     C_3   0.830492 0.821116 0.450072 -0.350009
C71   C     C_3   0.333475 0.760750 0.323026 -0.016802
C72   C     C_3   0.374882 0.864896 0.338684 -0.366815
C73   C     C_3   0.091916 0.535813 0.367235 -0.005780
C74   C     C_3   0.047403 0.539207 0.438148 -0.377159
C75   C     C_3   0.282633 0.427697 0.893628 0.005472
C76   C     C_3   0.252987 0.356822 0.924184 -0.368504
C77   C     C_3   0.067412 0.441038 0.633561 -0.046804
C78   C     C_R   0.313388 0.108100 0.303603 0.052403
C79   C     C_3   0.969689 0.364753 0.615297 -0.371610
C80   C     C_3   0.181598 0.743377 0.791994 0.030018
C81   C     C_3   0.230642 0.859370 0.857983 -0.383380
C82   C     C_3   0.646044 0.235464 0.595655 0.000215
C83   C     C_3   0.565131 0.125375 0.529821 -0.377198
C84   C     C_3   0.430102 0.127469 0.178946 0.009188
C85   C     C_3   0.431100 0.047599 0.093431 -0.399186
C86   C     C_R   0.303936 0.052452 0.211388 0.244241
F1    F     F_    0.170075 0.901669 0.389047 -0.168545
F2    F     F_    0.812758 0.500268 0.410209 -0.171111
F3    F     F_    0.282010 0.348320 0.167961 -0.157832
F4    F     F_    0.871149 0.696850 0.895428 -0.163218
F5    F     F_    0.268432 0.636501 0.484581 -0.161459
F6    F     F_    0.317696 0.704864 0.714864 -0.168092
F7    F     F_    0.662497 0.577566 0.844213 -0.167944
F8    F     F_    0.646731 0.382307 0.805370 -0.168123
F9    F     F_    0.079002 0.901846 0.301106 -0.146330
H1    H     H_    0.830123 0.429432 0.664251 0.096328
H2    H     H_    0.183065 0.362779 0.084096 0.142940
H3    H     H_    0.369716 0.728669 0.455395 0.113334
H4    H     H_    0.311671 0.394673 0.715169 0.152348
H5    H     H_    0.219343 0.549622 0.619081 0.088826
H6    H     H_    0.235489 0.903012 0.086601 0.157327
H7    H     H_    0.254460 0.233006 0.531630 0.159334
H8    H     H_    0.144561 0.128745 0.511752 0.122204
H9    H     H_    0.074262 0.168716 0.434157 0.157778
H10   H     H_    0.150018 0.282205 0.545171 0.077075
H11   H     H_    0.183329 0.268645 0.448815 0.161466
H12   H     H_    0.266013 0.095982 0.472957 0.085216
H13   H     H_    0.603817 0.923686 0.854893 0.095036
H14   H     H_    0.501642 0.803115 0.771802 0.175725
H15   H     H_    0.435038 0.900203 0.783352 0.181811
H16   H     H_    0.467037 0.914313 0.885789 0.105162
H17   H     H_    0.536430 0.017297 0.873660 0.176046
H18   H     H_    0.944789 0.588656 0.684334 0.139633
H19   H     H_    0.970951 0.705256 0.787908 0.153642
H20   H     H_    0.980931 0.781728 0.704031 0.156185
H21   H     H_    0.057084 0.744336 0.692250 0.080343
H22   H     H_    0.954592 0.665149 0.601544 0.165642
H23   H     H_    0.585120 0.401549 0.178657 0.145046
H24   H     H_    0.578076 0.021986 0.694253 0.167938
H25   H     H_    0.685102 0.136445 0.724362 0.124396
H26   H     H_    0.646239 0.246203 0.839187 0.198100
H27   H     H_    0.563751 0.161917 0.729145 0.105041
H28   H     H_    0.540003 0.132287 0.810500 0.148433
H29   H     H_    0.027593 0.094487 0.667484 0.104810
H30   H     H_    0.055962 0.215149 0.767157 0.191221
H31   H     H_    0.002041 0.251005 0.673363 0.155947
H32   H     H_    0.086365 0.229692 0.641076 0.117806
H33   H     H_    0.970222 0.129529 0.572931 0.147552
H34   H     H_    0.679346 0.402133 0.084554 0.148550
H35   H     H_    0.837909 0.782350 0.542047 0.145090
H36   H     H_    0.932742 0.907599 0.574441 0.106117
H37   H     H_    0.848482 0.889451 0.451373 0.167121
H38   H     H_    0.865185 0.788340 0.410609 0.106304
H39   H     H_    0.757219 0.762183 0.417287 0.157209
H40   H     H_    0.298912 0.701116 0.249817 0.140732
H41   H     H_    0.388010 0.758453 0.346205 0.099514
H42   H     H_    0.406742 0.926563 0.411602 0.158413
H43   H     H_    0.426056 0.878673 0.305360 0.087166
H44   H     H_    0.322531 0.867063 0.310849 0.173135
H45   H     H_    0.912392 0.519315 0.317334 0.145828
H46   H     H_    0.120941 0.492719 0.359855 0.128145
H47   H     H_    0.040515 0.492632 0.302331 0.139832
H48   H     H_    0.021862 0.587116 0.453465 0.166044
H49   H     H_    0.991001 0.459997 0.413919 0.101320
H50   H     H_    0.096464 0.573066 0.500853 0.159210
H51   H     H_    0.295941 0.502334 0.949503 0.135826
H52   H     H_    0.345367 0.441149 0.878727 0.131046
H53   H     H_    0.242642 0.283121 0.871292 0.142625
H54   H     H_    0.304741 0.394172 0.986498 0.106546
H55   H     H_    0.189352 0.340246 0.937545 0.175643
H56   H     H_    0.974180 0.662931 0.381768 0.154075
H57   H     H_    0.104559 0.409683 0.638206 0.107628
H58   H     H_    0.071547 0.447040 0.575884 0.121890
H59   H     H_    0.929107 0.388085 0.600798 0.143377
H60   H     H_    0.945662 0.286578 0.556439 0.096209
H61   H     H_    0.961230 0.362505 0.674516 0.156304
H62   H     H_    0.110814 0.706246 0.789212 0.164440
H63   H     H_    0.184827 0.725785 0.724678 0.134596
H64   H     H_    0.301670 0.898698 0.861727 0.149786
H65   H     H_    0.199348 0.886787 0.835719 0.101466
H66   H     H_    0.227394 0.879273 0.925605 0.171894
H67   H     H_    0.881800 0.660167 0.475460 0.109267
H68   H     H_    0.663687 0.246511 0.660540 0.134498
H69   H     H_    0.702454 0.246281 0.569039 0.126723
H70   H     H_    0.546642 0.110664 0.463527 0.157523
H71   H     H_    0.580590 0.070837 0.521857 0.088347
H72   H     H_    0.507851 0.112300 0.555119 0.163769
H73   H     H_    0.462340 0.137127 0.238123 0.101907
H74   H     H_    0.472259 0.202982 0.188527 0.172480
H75   H     H_    0.400977 0.039601 0.034758 0.159791
H76   H     H_    0.500995 0.072366 0.098320 0.104670
H77   H     H_    0.393035 0.971782 0.083535 0.146887
H78   H     H_    0.973679 0.091675 0.796515 0.040931
H79   H     H_    0.878725 0.903381 0.701029 0.054571
O1    O     O_3   0.500000 0.500000 0.500000 -0.465519
O2    O     O_R   0.945260 0.268310 0.884540 -0.542174
O3    O     O_R   0.117230 0.560570 0.177940 -0.515821
O4    O     O_R   0.676910 0.731570 0.616180 -0.538753
O5    O     O_R   0.821960 0.439250 0.882690 -0.543369
O6    O     O_R   0.117230 0.439140 0.056500 -0.570914
O7    O     O_R   0.943400 0.560680 0.882690 -0.526263
O8    O     O_R   0.115380 0.731510 0.054650 -0.545271
O9    O     O_R   0.823040 0.268340 0.883770 -0.510969
O10   O     O_R   0.945260 0.560610 0.176860 -0.531597
O11   O     O_R   0.116150 0.439180 0.884540 -0.517991
O12   O     O_R   0.384580 0.439270 0.616180 -0.564613
O13   O     O_R   0.384580 0.268400 0.445300 -0.548568
O14   O     O_R   0.383810 0.560730 0.615410 -0.530207
O15   O     O_R   0.554700 0.439300 0.323100 -0.560680
O16   O     O_R   0.382730 0.560770 0.443450 -0.535117
O17   O     O_R   0.678000 0.560660 0.617260 -0.502233
O18   O     O_R   0.382730 0.439340 0.322020 -0.518527
O19   O     O_R   0.556550 0.439230 0.617260 -0.522774
O20   O     O_3   0.181622 0.105055 0.398650 -0.537257
O21   O     O_3   0.564039 0.894714 0.727450 -0.528892
O22   O     O_3   0.847835 0.618411 0.691567 -0.522522
O23   O     O_R   0.676910 0.560700 0.445300 -0.534404
O24   O     O_3   0.668178 0.105534 0.821353 -0.531831
O25   O     O_3   0.920388 0.101100 0.697929 -0.512667
O26   O     O_3   0.816756 0.897475 0.595382 -0.501767
O27   O     O_3   0.272360 0.747978 0.370528 -0.506448
O28   O     O_3   0.155219 0.638093 0.393911 -0.496302
O29   O     O_3   0.214362 0.380486 0.816635 -0.563471
O30   O     O_3   0.098621 0.538015 0.713186 -0.559807
O31   O     O_3   0.221075 0.709707 0.822402 -0.525372
O32   O     O_3   0.625575 0.303752 0.604607 -0.533703
O33   O     O_3   0.342281 0.101894 0.170524 -0.529078
O34   O     O_R   0.554700 0.731600 0.615410 -0.504963
O35   O     O_R   0.383810 0.268430 0.323100 -0.499610
O36   O     O_3   0.999960 0.499910 0.999960 -0.460620
O37   O     O_R   0.823040 0.439210 0.054650 -0.546948
O38   O     O_R   0.115380 0.560640 0.883770 -0.498712
O39   O     O_R   0.116150 0.731480 0.176860 -0.515289
Zn1   Zn    Zn3+2 0.457170 0.413230 0.543930 0.936930
Zn2   Zn    Zn3+2 0.456070 0.586770 0.542830 0.955766
Zn3   Zn    Zn3+2 0.456070 0.413270 0.369320 0.959002
Zn4   Zn    Zn3+2 0.630690 0.586730 0.543930 0.958824
Zn5   Zn    Zn3+2 0.042790 0.586680 0.956030 0.964773
Zn6   Zn    Zn3+2 0.043880 0.586640 0.130630 0.971264
Zn7   Zn    Zn3+2 0.043880 0.413140 0.957130 0.912229
Zn8   Zn    Zn3+2 0.869270 0.413190 0.956030 0.939341

loop_
_geom_bond_atom_site_label_1
_geom_bond_atom_site_label_2
_ccdc_geom_bond_type
C66   C68   S    
C74   H48   S    
C45   O32   S    
C81   H64   S    
O11   Zn7   S    
C64   O24   S    
C27   C29   A    
C17   F2    S    
C81   H65   S    
C41   C42   A    
O4    Zn4   S    
C35   C36   S    
C18   C26   S    
C62   O22   S    
C21   O24   S    
C5    C67   A    
C28   O15   A    
O17   Zn4   S    
C15   H56   S    
C3    C49   S    
C23   C56   S    
C39   C41   A    
C73   H46   S    
C27   C33   A    
C83   H70   S    
C12   C23   S    
C71   O27   S    
C59   H10   S    
C64   H24   S    
C82   H69   S    
O5    Zn8   S    
C18   C24   A    
C59   H9    S    
C4    O13   A    
C12   F4    S    
C62   H19   S    
C47   O37   A    
C71   H40   S    
C5    C6    S    
C63   H22   S    
C46   F6    S    
C82   H68   S    
C26   H79   S    
O37   Zn8   S    
C49   O39   A    
O36   Zn7   S    
C50   O2    A    
C18   C19   A    
C73   C74   S    
C1    O34   A    
C74   H49   S    
C60   H14   S    
C74   H50   S    
C77   H58   S    
C79   H61   S    
C80   H63   S    
C72   H44   S    
C50   O9    A    
C45   C56   S    
C8    C9    A    
C70   H38   S    
C58   H7    S    
C65   H26   S    
C41   O29   S    
C29   C30   A    
C26   O26   S    
O16   Zn2   S    
C68   H33   S    
C20   O21   S    
C66   O25   S    
C60   H13   S    
O9    Zn8   S    
C22   C50   S    
C63   H20   S    
C25   O25   S    
C78   C86   A    
C72   H43   S    
C80   O31   S    
O13   Zn1   S    
O36   Zn8   S    
C13   C14   A    
C7    H12   S    
O1    Zn4   S    
C60   O21   S    
C67   C78   A    
O3    Zn6   S    
C30   F3    S    
O23   Zn4   S    
C61   H15   S    
C11   H34   S    
C77   H57   S    
O14   Zn2   S    
C44   C46   S    
C21   C22   A    
C73   H47   S    
O10   Zn6   S    
C75   H51   S    
O39   Zn6   S    
C38   C39   A    
C53   O5    A    
C83   H71   S    
C54   C56   S    
C1    C19   S    
C59   H11   S    
C54   O22   S    
O35   Zn3   S    
O1    Zn1   S    
C48   O38   A    
O19   Zn1   S    
C84   C85   S    
C62   H18   S    
C84   H74   S    
C16   O14   A    
C71   H41   S    
C13   C47   S    
C75   O29   S    
C69   H35   S    
C2    H6    S    
C75   H52   S    
C25   C26   S    
O12   Zn1   S    
C83   H72   S    
C58   O20   S    
C6    F1    S    
C23   F7    S    
C32   C33   A    
C60   C61   S    
C52   O17   A    
O1    Zn2   S    
C37   C43   A    
C75   C76   S    
C32   C51   S    
C4    C78   S    
C37   C38   A    
C84   H73   S    
O15   Zn3   S    
C53   O7    A    
C10   H23   S    
C69   O26   S    
C1    O4    A    
C39   H4    S    
C31   C32   A    
C40   O18   A    
C76   H55   S    
C69   H36   S    
C23   C34   S    
C62   C63   S    
C70   H37   S    
C77   C79   S    
C17   H67   S    
C6    F9    S    
C34   C45   S    
C42   C48   S    
C65   H27   S    
C24   C25   S    
C7    O20   S    
C68   H32   S    
C76   H53   S    
C63   H21   S    
C36   F5    S    
C72   H42   S    
O8    Zn5   S    
O34   Zn2   S    
C55   C57   S    
C43   C44   S    
C65   H28   S    
C22   C24   A    
O6    Zn7   S    
C42   C43   A    
C12   C57   S    
C51   O6    A    
C61   H16   S    
C77   O30   S    
C68   H31   S    
C82   O32   S    
C44   O30   S    
C15   H45   S    
C9    C10   A    
C15   C17   S    
C46   H5    S    
C54   C55   S    
C55   H1    S    
C8    C14   A    
O36   Zn6   S    
C81   H66   S    
C35   O27   S    
C52   O19   A    
C34   F8    S    
C80   C81   S    
C3    C5    A    
C53   C57   S    
C86   O33   S    
C35   O28   S    
C6    C7    S    
C27   C36   S    
C79   H60   S    
C73   O28   S    
C85   H75   S    
C64   H25   S    
C66   H30   S    
O1    Zn3   S    
C19   C20   A    
C2    C3    A    
C58   C59   S    
C48   O11   A    
C16   O12   A    
C64   C65   S    
C8    C17   S    
C11   C13   A    
C84   O33   S    
C80   H62   S    
C30   C31   A    
O38   Zn5   S    
C76   H54   S    
C34   C57   S    
C47   O10   A    
C29   C40   S    
C44   O31   S    
C33   C35   S    
C2    C86   A    
C66   H29   S    
C31   H2    S    
C69   C70   S    
C85   H77   S    
C28   O23   A    
C10   C11   A    
C4    O35   A    
C7    C67   S    
C49   O8    A    
C85   H76   S    
C25   H78   S    
C71   C72   S    
C40   O16   A    
C20   C21   A    
C45   C55   S    
C82   C83   S    
O2    Zn7   S    
O7    Zn5   S    
C70   H39   S    
C14   C15   S    
C36   H3    S    
C58   H8    S    
C37   C46   S    
C51   O3    A    
C61   H17   S    
O18   Zn3   S    
C12   C54   S    
O36   Zn5   S    
C52   C56   S    
C9    C28   S    
C16   C38   S    
C79   H59   S    
