data_mof_unit_18741.cif
_audit_creation_date              2012-12-10T18:06:39-0500
_audit_creation_method            fapswitch 2.2
_symmetry_space_group_name_H-M    P1
_symmetry_Int_Tables_number       1
_space_group_crystal_system       triclinic
_cell_length_a                    12.594455
_cell_length_b                    13.1563
_cell_length_c                    15.446319
_cell_angle_alpha                 83.231693
_cell_angle_beta                  98.691853
_cell_angle_gamma                 96.776388
_cell_volume                      2499.25524179

loop_
_atom_site_label
_atom_site_type_symbol
_atom_type_description
_atom_site_fract_x
_atom_site_fract_y
_atom_site_fract_z
_atom_type_partial_charge
C1    C     C_R   0.442038 0.308648 0.506843 0.856150
C2    C     C_R   0.460143 0.576904 0.096176 0.092367
C3    C     C_R   0.353094 0.596895 0.061054 0.176623
C4    C     C_R   0.539130 0.579185 0.039644 0.068927
C5    C     C_R   0.504737 0.581319 0.948276 0.070311
C6    C     C_R   0.399351 0.607165 0.914419 -0.231789
C7    C     C_R   0.325392 0.616887 0.970399 -0.234941
C8    C     C_R   0.650538 0.576809 0.071205 -0.232899
C9    C     C_R   0.723590 0.564205 0.015141 -0.237912
C10   C     C_R   0.686806 0.548863 0.927501 0.169581
C11   C     C_R   0.576464 0.555492 0.894158 0.091896
C12   C     C_R   0.436364 0.515676 0.335837 0.856632
C13   C     C_R   0.758021 0.524579 0.873095 -0.190574
C14   C     C_R   0.719495 0.503162 0.786919 -0.182624
C15   C     C_R   0.538934 0.528393 0.809625 -0.266298
C16   C     C_R   0.648931 0.943731 0.373510 -0.197927
C17   C     C_R   0.584107 0.801047 0.471374 -0.063335
C18   C     C_R   0.330238 0.158856 0.568075 -0.189747
C19   C     C_R   0.310014 0.053262 0.586986 -0.147998
C20   C     C_R   0.369500 0.987626 0.554222 -0.187367
C21   C     C_R   0.447142 0.027197 0.497904 0.086626
C22   C     C_R   0.454733 0.132800 0.468271 0.092527
C23   C     C_R   0.556366 0.691551 0.489591 0.852155
C24   C     C_R   0.517387 0.965658 0.469794 0.083656
C25   C     C_R   0.581605 0.006039 0.403085 0.181306
C26   C     C_R   0.575650 0.107063 0.365542 -0.256247
C27   C     C_R   0.512416 0.169657 0.397382 -0.207598
C28   C     C_R   0.526395 0.865084 0.507096 -0.253634
C29   C     C_R   0.648754 0.840547 0.406572 -0.212411
C30   C     C_R   0.405224 0.199164 0.511161 -0.117718
C31   C     C_R   0.139044 0.646340 0.618769 -0.258912
C32   C     C_R   0.757868 0.380345 0.395977 0.033629
C33   C     C_R   0.853338 0.356050 0.373110 -0.259821
C34   C     C_R   0.565577 0.490494 0.663766 0.862595
C35   C     C_R   0.950878 0.402612 0.411972 -0.173602
C36   C     C_R   0.952772 0.474177 0.474104 0.015394
C37   C     C_R   0.853326 0.496433 0.494517 0.184748
C38   C     C_R   0.048668 0.523834 0.516751 -0.084762
C39   C     C_R   0.043582 0.597349 0.576647 0.090069
C40   C     C_R   0.943822 0.621463 0.593229 0.406509
C41   C     C_R   0.850240 0.567729 0.554104 -0.363497
C42   C     C_R   0.150524 0.502958 0.502619 -0.019562
C43   C     C_R   0.237047 0.622060 0.601627 -0.021014
C44   C     C_R   0.404293 0.540945 0.241504 -0.056419
C45   C     C_R   0.609135 0.503884 0.755413 -0.071764
C46   C     C_R   0.274507 0.593673 0.117003 -0.205017
C47   C     C_R   0.300115 0.566152 0.207051 -0.192208
C48   C     C_R   0.482931 0.546639 0.186025 -0.266997
H1    H     H_    0.244789 0.635137 0.942459 0.149552
H2    H     H_    0.843025 0.521359 0.897402 0.141078
H3    H     H_    0.693967 0.790815 0.378311 0.157760
H4    H     H_    0.620891 0.138145 0.312322 0.141301
H5    H     H_    0.697701 0.973546 0.322272 0.136710
H6    H     H_    0.485203 0.832708 0.561945 0.140592
H7    H     H_    0.289776 0.208994 0.600183 0.160613
H8    H     H_    0.351051 0.906453 0.572277 0.129929
H9    H     H_    0.251318 0.022277 0.630213 0.142272
H10   H     H_    0.507880 0.246931 0.365240 0.154629
H11   H     H_    0.311752 0.659273 0.633135 0.126210
H12   H     H_    0.453678 0.523054 0.785807 0.164029
H13   H     H_    0.138454 0.702870 0.664276 0.186382
H14   H     H_    0.162941 0.448701 0.459121 0.121570
H15   H     H_    0.681540 0.345509 0.365538 0.127129
H16   H     H_    0.022545 0.381509 0.391412 0.132754
H17   H     H_    0.851785 0.301743 0.325331 0.145508
H18   H     H_    0.775759 0.582374 0.571844 0.219281
H19   H     H_    0.775685 0.486252 0.745263 0.172041
H20   H     H_    0.808174 0.561791 0.041425 0.145042
H21   H     H_    0.192921 0.610458 0.090893 0.135304
H22   H     H_    0.238477 0.563756 0.249339 0.158165
H23   H     H_    0.561196 0.523196 0.213443 0.160689
H24   H     H_    0.372876 0.622001 0.844690 0.144068
H25   H     H_    0.683515 0.586713 0.138725 0.148709
N1    N     N_R   0.239390 0.551900 0.544730 -0.098282
N2    N     N_R   0.759950 0.448600 0.455730 -0.114442
O1    O     O_R   0.374950 0.371210 0.521360 -0.614533
O2    O     O_R   0.542050 0.338030 0.492790 -0.605116
O3    O     O_R   0.368720 0.526070 0.390200 -0.613708
O4    O     O_R   0.535820 0.492890 0.361630 -0.629388
O5    O     O_R   0.457950 0.661970 0.507210 -0.605637
O6    O     O_R   0.625050 0.628790 0.478640 -0.643365
O7    O     O_R   0.464180 0.507110 0.638370 -0.616733
O8    O     O_R   0.631280 0.473930 0.609800 -0.627826
Zn1   Zn    Zn3+2 0.388420 0.522150 0.519080 0.937702
Zn2   Zn    Zn3+2 0.611580 0.477850 0.480920 0.924338
O9    O     O_3   0.940400 0.691321 0.653596 -0.620272
C49   C     C_3   0.865362 0.763349 0.620433 0.107782
H26   H     H_    0.783044 0.731135 0.633687 0.145286
H27   H     H_    0.864303 0.786140 0.548394 0.141572
C50   C     C_3   0.895995 0.859988 0.667495 -0.817465
H28   H     H_    0.977858 0.894736 0.655387 0.248279
H29   H     H_    0.837041 0.916735 0.642529 0.214373
H30   H     H_    0.895554 0.840828 0.739433 0.259010

loop_
_geom_bond_atom_site_label_1
_geom_bond_atom_site_label_2
_ccdc_geom_bond_type
C49   H26   S    
C1    O2    A    
C15   H12   S    
C31   H13   S    
C35   C36   A    
O5    Zn1   S    
O1    Zn1   S    
C32   N2    A    
C33   H17   S    
C19   H9    S    
C6    H24   S    
C26   C27   A    
C17   C23   S    
C31   C43   A    
C36   C37   A    
C38   C42   A    
C3    C7    A    
C5    C6    A    
C12   O4    A    
C17   C29   A    
C18   C19   A    
C40   O9    S    
C16   H5    S    
C8    H25   S    
C46   H21   S    
C11   C15   A    
N2    Zn2   S    
C19   C20   A    
C8    C9    A    
C12   O3    A    
C14   H19   S    
C35   H16   S    
C18   C30   A    
C23   O5    A    
C23   O6    A    
C9    C10   A    
C42   H14   S    
C44   C47   A    
C4    C8    A    
C43   N1    A    
C37   N2    A    
O2    Zn2   S    
C21   C22   A    
C1    O1    A    
C14   C45   A    
C42   N1    A    
C24   C25   A    
C7    H1    S    
C39   C40   A    
C28   H6    S    
O9    C49   S    
C2    C48   A    
C16   C29   A    
C27   H10   S    
C2    C4    A    
C47   H22   S    
C26   H4    S    
C50   H29   S    
C34   C45   S    
C6    C7    A    
C18   H7    S    
C40   C41   A    
O8    Zn2   S    
O7    Zn1   S    
C22   C27   A    
C49   H27   S    
C49   C50   S    
C34   O8    A    
C15   C45   A    
C48   H23   S    
O4    Zn2   S    
C50   H30   S    
C29   H3    S    
C16   C25   A    
C46   C47   A    
C22   C30   A    
C17   C28   A    
C24   C28   A    
C32   H15   S    
N1    Zn1   S    
C4    C5    A    
C10   C13   A    
C5    C11   A    
C41   H18   S    
C43   H11   S    
C3    C46   A    
C32   C33   A    
C36   C38   A    
C2    C3    A    
C25   C26   A    
C9    H20   S    
C12   C44   S    
C50   H28   S    
C38   C39   A    
C1    C30   S    
C33   C35   A    
C31   C39   A    
C20   H8    S    
C37   C41   A    
C10   C11   A    
C13   H2    S    
O3    Zn1   S    
C20   C21   A    
C21   C24   A    
C34   O7    A    
C13   C14   A    
O6    Zn2   S    
C44   C48   A    
