data_mof_unit_32212.cif
_audit_creation_date              2012-12-11T14:08:19-0500
_audit_creation_method            fapswitch 2.2
_symmetry_space_group_name_H-M    P1
_symmetry_Int_Tables_number       1
_space_group_crystal_system       triclinic
_cell_length_a                    10.93075
_cell_length_b                    10.955481
_cell_length_c                    18.679983
_cell_angle_alpha                 90.514674
_cell_angle_beta                  90.062404
_cell_angle_gamma                 60.406608
_cell_volume                      1945.05843358

loop_
_atom_site_label
_atom_site_type_symbol
_atom_type_description
_atom_site_fract_x
_atom_site_fract_y
_atom_site_fract_z
_atom_type_partial_charge
C1    C     C_R   0.238271 0.644955 0.609238 0.552683
C2    C     C_3   0.666096 0.558322 0.800255 -0.261505
C3    C     C_3   0.702027 0.676166 0.811730 0.036328
C4    C     C_3   0.671428 0.649611 0.675873 0.034872
C5    C     C_3   0.822850 0.623282 0.689851 -0.050681
C6    C     C_3   0.648291 0.542177 0.720083 -0.247363
C7    C     C_2   0.674509 0.158418 0.671035 -0.059410
C8    C     C_2   0.688721 0.167370 0.828105 -0.123522
C9    C     C_2   0.800231 0.124069 0.784214 -0.161148
C10   C     C_2   0.781302 0.156966 0.707410 -0.148117
C11   C     C_2   0.184728 0.661928 0.682155 -0.075516
C12   C     C_R   0.654130 0.622813 0.600924 0.566181
C13   C     C_2   0.196085 0.661754 0.839929 -0.120427
C14   C     C_2   0.193717 0.560632 0.800061 -0.182163
C15   C     C_2   0.223091 0.548310 0.723089 -0.170742
C16   C     C_2   0.649632 0.646321 0.317251 -0.087530
C17   C     C_2   0.633609 0.665527 0.159488 -0.106925
C18   C     C_2   0.706865 0.546103 0.195254 -0.158647
C19   C     C_2   0.687932 0.537202 0.271742 -0.137820
C20   C     C_2   0.629014 0.202450 0.317473 -0.070459
C21   C     C_2   0.637679 0.204044 0.163155 -0.161901
C22   C     C_2   0.521512 0.236513 0.199655 -0.119718
C23   C     C_R   0.627971 0.228266 0.602085 0.544079
C24   C     C_2   0.514251 0.268460 0.275116 0.343573
C25   C     C_2   0.121297 0.680848 0.345182 -0.082092
C26   C     C_2   0.113611 0.691678 0.190814 -0.089404
C27   C     C_2   0.042430 0.804216 0.234324 -0.151911
C28   C     C_2   0.074295 0.799918 0.309729 -0.175836
C29   C     C_R   0.703287 0.102135 0.897611 0.549286
C30   C     C_R   0.725000 0.689194 0.887894 0.545493
C31   C     C_R   0.119489 0.706047 0.907622 0.551600
C32   C     C_R   0.673275 0.114445 0.101142 0.553527
C33   C     C_R   0.692352 0.688709 0.094689 0.554808
C34   C     C_R   0.215282 0.651247 0.404673 0.584479
C35   C     C_R   0.086605 0.713546 0.115346 0.550836
C36   C     C_R   0.641271 0.620950 0.392640 0.561902
C37   C     C_R   0.612684 0.235726 0.392783 0.576660
C38   C     C_3   0.580790 0.816107 0.781217 -0.229600
C39   C     C_3   0.560012 0.799215 0.701324 -0.239431
C40   C     C_3   0.839862 0.640888 0.770526 -0.221868
Cr1   Cr    Cr6+3 0.393010 0.398050 0.501480 1.081355
Cr2   Cr    Cr6+3 0.398820 0.707980 0.501630 1.029759
Cr3   Cr    Cr6+3 0.708140 0.393940 0.496850 1.036124
Cr4   Cr    Cr6+3 0.937950 0.938450 0.008940 1.020701
Cr5   Cr    Cr6+3 0.626180 0.937030 0.994750 1.018691
Cr6   Cr    Cr6+3 0.937790 0.625760 0.001410 1.021129
H1    H     H_    0.606037 0.902305 0.788341 0.156451
H2    H     H_    0.725320 0.433128 0.703557 0.135077
H3    H     H_    0.928666 0.540783 0.790392 0.114508
H4    H     H_    0.898865 0.511996 0.675502 0.127334
H5    H     H_    0.906631 0.059575 0.803973 0.154363
H6    H     H_    0.853766 0.183534 0.681423 0.139384
H7    H     H_    0.582785 0.233071 0.807935 0.099902
H8    H     H_    0.607863 0.123709 0.696676 0.120813
H9    H     H_    0.162736 0.489287 0.823085 0.148802
H10   H     H_    0.276114 0.443290 0.699913 0.155797
H11   H     H_    0.234569 0.727700 0.817403 0.099940
H12   H     H_    0.480780 0.847069 0.810455 0.124438
H13   H     H_    0.129054 0.767102 0.705083 0.119509
H14   H     H_    0.793187 0.454442 0.169818 0.154595
H15   H     H_    0.719284 0.433068 0.291940 0.150672
H16   H     H_    0.541967 0.754330 0.183449 0.114319
H17   H     H_    0.616979 0.751823 0.299071 0.095128
H18   H     H_    0.436635 0.224461 0.176704 0.166784
H19   H     H_    0.718392 0.223674 0.185518 0.088148
H20   H     H_    0.733168 0.130742 0.296457 0.018111
H21   H     H_    0.970070 0.906995 0.212777 0.156184
H22   H     H_    0.451897 0.815669 0.693465 0.136363
H23   H     H_    0.077854 0.889627 0.332662 0.157653
H24   H     H_    0.187368 0.587654 0.210124 0.142305
H25   H     H_    0.108900 0.595077 0.323575 0.155696
H26   H     H_    0.567224 0.881078 0.669893 0.159419
H27   H     H_    0.868235 0.723997 0.781244 0.154430
H28   H     H_    0.751261 0.457347 0.821666 0.137738
H29   H     H_    0.567121 0.583850 0.829158 0.119501
H30   H     H_    0.541304 0.556900 0.710110 0.125444
O1    O     O_R   0.507110 0.256280 0.580300 -0.526631
O2    O     O_R   0.524640 0.695370 0.425100 -0.487870
O3    O     O_R   0.735890 0.504390 0.415980 -0.502944
O4    O     O_R   0.690560 0.277820 0.422350 -0.517595
O5    O     O_3   0.499990 0.499990 0.499980 -0.268215
O6    O     O_R   0.089190 0.825870 0.932320 -0.518140
O7    O     O_R   0.819070 0.053960 0.931440 -0.497128
O8    O     O_R   0.607070 0.076440 0.916460 -0.521666
O9    O     O_R   0.647110 0.806550 0.917690 -0.510550
O10   O     O_R   0.837080 0.593860 0.915300 -0.528471
O11   O     O_R   0.064770 0.636080 0.932550 -0.500988
O12   O     O_R   0.280830 0.527190 0.577940 -0.490436
O13   O     O_R   0.068250 0.829200 0.092940 -0.512861
O14   O     O_R   0.799650 0.057040 0.080330 -0.504797
O15   O     O_R   0.586130 0.079760 0.077080 -0.512318
O16   O     O_R   0.627700 0.809630 0.066580 -0.495658
O17   O     O_R   0.816140 0.597180 0.075920 -0.509488
O18   O     O_R   0.045360 0.639170 0.081440 -0.491912
O19   O     O_3   0.833980 0.833750 0.001700 -0.252410
O20   O     O_R   0.261360 0.738990 0.584270 -0.529619
O21   O     O_R   0.532590 0.694780 0.574370 -0.513215
O22   O     O_R   0.744470 0.503750 0.577000 -0.510959
O23   O     O_R   0.698520 0.277230 0.571620 -0.506371
O24   O     O_R   0.498530 0.256920 0.419280 -0.440547
O25   O     O_R   0.272880 0.527780 0.428680 -0.442437
O26   O     O_R   0.252780 0.739630 0.423250 -0.518735
F1    F     F_    0.384546 0.359283 0.302040 -0.631250
C41   C     C_2   0.860264 0.713262 0.643738 0.545990
O27   O     O_2   0.818181 0.836338 0.659218 -0.559379
O28   O     O_R   0.941614 0.654691 0.582105 -0.687448
H31   H     H_    0.956702 0.725198 0.554243 0.334913

loop_
_geom_bond_atom_site_label_1
_geom_bond_atom_site_label_2
_ccdc_geom_bond_type
C7    C10   D    
C23   O23   A    
C39   H22   S    
C28   H23   S    
C1    C11   S    
Cr3   O22   S    
Cr4   O7    S    
C10   H6    S    
C41   O28   S    
C25   C28   D    
C26   C27   D    
C34   O26   A    
C31   O6    A    
C6    H2    S    
Cr2   O20   S    
C8    C29   S    
C20   H20   S    
Cr3   O23   S    
C29   O7    A    
Cr4   O6    S    
C16   C19   D    
Cr1   O1    S    
C38   C39   S    
C32   O15   A    
C13   H11   S    
O28   H31   S    
Cr3   O3    S    
C40   H3    S    
C40   H27   S    
C18   C19   S    
Cr5   O16   S    
C38   H12   S    
C11   C15   D    
C32   O14   A    
Cr6   O19   S    
C20   C24   D    
C3    C38   S    
C8    C9    D    
C9    H5    S    
C39   H26   S    
C25   H25   S    
C16   H17   S    
C30   O10   A    
C9    C10   S    
C12   O22   A    
C2    H28   S    
C25   C34   S    
C1    O12   A    
C14   H9    S    
C5    C41   S    
C21   C22   D    
C2    C6    S    
Cr2   O5    S    
C17   C33   S    
C11   H13   S    
Cr2   O26   S    
C41   O27   D    
C37   O4    A    
C21   C32   S    
C34   O25   A    
C31   O11   A    
C29   O8    A    
C4    C6    S    
Cr2   O21   S    
Cr3   O4    S    
C3    C30   S    
Cr5   O9    S    
C17   H16   S    
Cr6   O18   S    
C4    C39   S    
Cr1   O5    S    
C17   C18   D    
C12   O21   A    
Cr1   O24   S    
C23   O1    A    
C30   O9    A    
C38   H1    S    
C35   O13   A    
C18   H14   S    
C3    C40   S    
Cr2   O2    S    
C26   H24   S    
C22   C24   S    
C5    H4    S    
C33   O16   A    
Cr5   O8    S    
C4    C12   S    
Cr5   O19   S    
Cr4   O14   S    
Cr6   O11   S    
C35   O18   A    
Cr1   O12   S    
Cr3   O5    S    
C21   H19   S    
C13   C31   S    
C4    C5    S    
C36   O3    A    
C33   O17   A    
C8    H7    S    
C6    H30   S    
C24   F1    S    
C15   H10   S    
C2    C3    S    
Cr4   O19   S    
C36   O2    A    
C16   C36   S    
C20   C37   S    
Cr6   O17   S    
C19   H15   S    
C1    O20   A    
C7    C23   S    
Cr1   O25   S    
Cr5   O15   S    
C27   H21   S    
C2    H29   S    
C22   H18   S    
C26   C35   S    
C5    C40   S    
C27   C28   S    
C14   C15   S    
C7    H8    S    
C13   C14   D    
C37   O24   A    
Cr4   O13   S    
Cr6   O10   S    
