data_mof_unit_52353.cif
_audit_creation_date              2012-12-11T20:22:05-0500
_audit_creation_method            fapswitch 2.2
_symmetry_space_group_name_H-M    P1
_symmetry_Int_Tables_number       1
_space_group_crystal_system       triclinic
_cell_length_a                    8.469191
_cell_length_b                    17.592039
_cell_length_c                    27.11879
_cell_angle_alpha                 100.92994
_cell_angle_beta                  92.40341
_cell_angle_gamma                 80.936243
_cell_volume                      3917.30476557

loop_
_atom_site_label
_atom_site_type_symbol
_atom_type_description
_atom_site_fract_x
_atom_site_fract_y
_atom_site_fract_z
_atom_type_partial_charge
Ba1   Ba    Ba6+2 0.860160 0.462360 0.521850 1.746983
Ba2   Ba    Ba6+2 0.329680 0.537570 0.478140 1.778127
C1    C     C_3   0.774834 0.180754 0.642573 0.335248
C2    C     C_R   0.843660 0.521699 0.167112 0.611580
C3    C     C_2   0.782286 0.565743 0.276278 0.092623
C4    C     C_3   0.132640 0.290486 0.653823 0.588209
C5    C     C_3   0.739434 0.563370 0.329486 -0.057035
C6    C     C_1   0.977705 0.471220 0.337153 -0.076563
C7    C     C_2   0.028107 0.476107 0.291667 -0.014228
C8    C     C_2   0.922165 0.522452 0.256794 0.250744
C9    C     C_R   0.039250 0.512169 0.101982 -0.073187
C10   C     C_R   0.161313 0.501166 0.137859 -0.052894
C11   C     C_R   0.320020 0.482092 0.121605 -0.025951
C12   C     C_3   0.727479 0.262654 0.627429 0.378106
C13   C     C_R   0.879491 0.525607 0.117316 -0.017983
C14   C     C_2   0.819781 0.489120 0.343883 0.105899
C15   C     C_2   0.360520 0.493565 0.639146 -0.181147
C16   C     C_3   0.064131 0.276510 0.701888 -0.269326
C17   C     C_R   0.271194 0.477654 0.981984 0.042556
C18   C     C_R   0.991841 0.530821 0.965830 -0.040873
C19   C     C_R   0.149001 0.502301 0.948271 0.062658
C20   C     C_R   0.423211 0.444407 0.961932 -0.101066
C21   C     C_R   0.453234 0.435690 0.910872 -0.022695
C22   C     C_R   0.334695 0.461766 0.877518 -0.016081
C23   C     C_3   0.484726 0.665006 0.633480 0.291820
C24   C     C_R   0.183396 0.497039 0.896373 -0.129760
C25   C     C_R   0.064659 0.523686 0.862939 -0.109260
C26   C     C_R   0.098222 0.508292 0.810667 0.657055
C27   C     C_R   0.365492 0.452304 0.825631 0.658505
C28   C     C_3   0.142360 0.287547 0.405296 0.137488
C29   C     C_2   0.453785 0.483764 0.726874 0.025653
C30   C     C_3   0.501226 0.492234 0.675122 -0.066461
C31   C     C_1   0.214812 0.519914 0.656392 0.001789
C32   C     C_2   0.174012 0.518293 0.702908 -0.092068
C33   C     C_2   0.297544 0.492135 0.741248 0.203669
C34   C     C_3   0.475026 0.694101 0.689969 -0.336519
C35   C     C_R   0.236803 0.486284 0.034175 0.022647
C36   C     C_R   0.076601 0.509086 0.050613 0.064637
C37   C     C_R   0.952851 0.528120 0.016063 0.046689
C38   C     C_R   0.356506 0.472490 0.070803 -0.092918
C39   C     C_R   0.757838 0.540903 0.082324 -0.045579
C40   C     C_3   0.068036 0.215959 0.377976 0.266037
C41   C     C_R   0.879515 0.563771 0.932971 -0.138708
C42   C     C_R   0.915336 0.563522 0.883017 0.472443
C43   C     C_R   0.793266 0.542695 0.032922 -0.088291
C44   C     C_2   0.435322 0.276365 0.505729 -0.222194
C45   C     C_3   0.005744 0.803318 0.363427 0.621960
C46   C     C_3   0.371574 0.232055 0.541134 0.151315
C47   C     C_2   0.432531 0.146363 0.530919 -0.014150
C48   C     C_2   0.573554 0.120213 0.507328 0.015248
C49   C     C_2   0.655063 0.178522 0.487564 -0.170918
C50   C     C_1   0.578934 0.250465 0.485856 -0.003458
C51   C     C_R   0.799453 0.864322 0.482999 -0.048280
C52   C     C_3   0.967588 0.701083 0.590531 0.292348
C53   C     C_R   0.853624 0.783904 0.472946 -0.002017
C54   C     C_R   0.620890 0.760658 0.514385 0.011267
C55   C     C_R   0.562371 0.841059 0.521740 -0.153183
C56   C     C_3   0.032446 0.872057 0.337330 0.264122
C57   C     C_R   0.649595 0.893687 0.505335 0.030678
C58   C     C_2   0.651067 0.036462 0.501429 0.002230
C59   C     C_2   0.577814 0.977932 0.511636 -0.013249
C60   C     C_R   0.764030 0.732256 0.488559 -0.284013
C61   C     C_3   0.934777 0.789426 0.608300 -0.343822
C62   C     C_3   0.545886 0.264290 0.365961 0.268183
C63   C     C_3   0.559307 0.175132 0.356596 -0.328488
C64   C     C_3   0.489995 0.756844 0.392792 0.271410
C65   C     C_3   0.428070 0.842589 0.388805 0.282782
C66   C     C_R   0.122053 0.509746 0.189246 0.637694
H1    H     H_    0.826813 0.274698 0.606623 -0.028202
H2    H     H_    0.902544 0.159253 0.634159 0.012723
H3    H     H_    0.451559 0.156684 0.335500 0.168569
H4    H     H_    0.567552 0.152875 0.392234 0.154616
H5    H     H_    0.629906 0.258399 0.599337 0.035451
H6    H     H_    0.710787 0.137843 0.617377 0.010797
H7    H     H_    0.571257 0.609790 0.625938 0.019758
H8    H     H_    0.425256 0.651940 0.708277 0.061735
H9    H     H_    0.596087 0.700992 0.705854 0.128389
H10   H     H_    0.100876 0.317548 0.735185 0.137455
H11   H     H_    0.913177 0.902794 0.327490 0.133071
H12   H     H_    0.940955 0.223653 0.386590 0.081354
H13   H     H_    0.085264 0.917408 0.364582 0.006948
H14   H     H_    0.396335 0.877258 0.426701 -0.021986
H15   H     H_    0.320012 0.842840 0.366004 0.114171
H16   H     H_    0.083535 0.350626 0.648570 0.048993
H17   H     H_    0.133231 0.435996 0.276852 0.133327
H18   H     H_    0.416917 0.472205 0.148086 0.177593
H19   H     H_    0.553280 0.476333 0.752309 0.178241
H20   H     H_    0.571568 0.408788 0.897603 0.132303
H21   H     H_    0.520832 0.421994 0.984497 0.074302
H22   H     H_    0.764377 0.594223 0.946357 0.132141
H23   H     H_    0.853361 0.679188 0.579429 0.013616
H24   H     H_    0.692182 0.552903 0.008201 0.076005
H25   H     H_    0.455276 0.990522 0.524028 0.062360
H26   H     H_    0.772723 0.159812 0.471376 0.158395
H27   H     H_    0.874745 0.902534 0.472436 0.060695
H28   H     H_    0.369630 0.109517 0.548177 0.068104
H29   H     H_    0.450661 0.862757 0.541271 0.089910
H30   H     H_    0.372477 0.334091 0.502707 0.044878
H31   H     H_    0.254893 0.266823 0.423598 0.024390
H32   H     H_    0.069722 0.322402 0.436131 0.099662
H33   H     H_    0.076642 0.210855 0.336673 0.084012
H34   H     H_    0.048819 0.687907 0.557907 0.074148
H35   H     H_    0.074169 0.047158 0.437586 0.349181
H36   H     H_    0.668202 0.147865 0.334273 0.168325
H37   H     H_    0.363810 0.653977 0.619337 0.025334
H38   H     H_    0.395615 0.751451 0.698219 0.146987
H39   H     H_    0.896163 0.119062 0.762123 0.374065
H40   H     H_    0.871082 0.670827 0.377945 0.277572
H41   H     H_    0.897342 0.826640 0.385385 -0.003086
H42   H     H_    0.239587 0.728692 0.240870 0.384425
H43   H     H_    0.613786 0.752823 0.406113 0.003351
H44   H     H_    0.418933 0.742471 0.422318 0.049968
H45   H     H_    0.849561 0.804095 0.639957 0.144725
H46   H     H_    0.613722 0.786465 0.304472 0.387784
H47   H     H_    0.480727 0.455700 0.061475 0.072930
H48   H     H_    0.706770 0.605869 0.256178 0.142292
H49   H     H_    0.633940 0.553353 0.093424 0.119196
H50   H     H_    0.353862 0.158003 0.657969 0.355891
H51   H     H_    0.789202 0.685776 0.789334 0.359828
H52   H     H_    0.062071 0.554031 0.715268 0.152367
H53   H     H_    0.883908 0.322780 0.339640 0.314135
H54   H     H_    0.382439 0.477966 0.599080 0.077386
H55   H     H_    0.772313 0.023976 0.487784 0.087352
H56   H     H_    0.882720 0.818962 0.577561 0.063440
H57   H     H_    0.934338 0.289079 0.701490 0.139371
H58   H     H_    0.810279 0.670374 0.483226 0.049698
H59   H     H_    0.104375 0.215436 0.707162 0.166701
H60   H     H_    0.048078 0.811744 0.621032 0.132895
H61   H     H_    0.530983 0.282578 0.328710 0.168547
H62   H     H_    0.440497 0.294755 0.386976 0.038510
N1    N     N_R   0.963558 0.518270 0.203827 -0.426309
N2    N     N_R   0.253990 0.484795 0.792945 -0.429897
O1    O     O_2   0.906370 0.542040 0.619810 -0.467415
O2    O     O_2   0.163774 0.778339 0.491332 -0.497935
O3    O     O_3   0.129311 0.779701 0.396660 -0.646817
O4    O     O_3   0.138370 0.541980 0.559630 -0.501789
O5    O     O_3   0.572820 0.404940 0.471170 -0.444723
O6    O     O_2   0.345130 0.693150 0.532000 -0.453415
O7    O     O_3   0.536652 0.722390 0.611329 -0.631321
O8    O     O_2   0.397774 0.563352 0.324041 -0.321163
O9    O     O_3   0.471106 0.705310 0.346684 -0.544736
O10   O     O_2   0.229460 0.510650 0.220707 -0.523229
O11   O     O_2   0.489006 0.411223 0.809579 -0.517105
O12   O     O_3   0.685212 0.289570 0.388831 -0.582083
O13   O     O_2   0.705333 0.519503 0.177157 -0.589028
O14   O     O_2   0.986138 0.509418 0.781140 -0.524034
O15   O     O_3   0.686580 0.398330 0.583860 -0.507136
O16   O     O_2   0.834823 0.442601 0.669682 -0.482975
O17   O     O_3   0.038590 0.667658 0.630389 -0.634833
O18   O     O_3   0.682495 0.324789 0.668179 -0.494474
O19   O     O_2   0.844570 0.306830 0.467970 -0.483955
O20   O     O_3   0.101900 0.357890 0.557750 -0.491034
O21   O     O_2   0.049685 0.216866 0.512803 -0.469729
O22   O     O_2   0.196116 0.069011 0.343128 -0.197679
O23   O     O_3   0.098965 0.233735 0.611622 -0.660777
O24   O     O_2   0.297655 0.127267 0.425476 -0.348963
O25   O     O_3   0.012357 0.086817 0.419661 -0.528507
O26   O     O_2   0.700687 0.247905 0.741412 -0.174704
O27   O     O_2   0.619757 0.120171 0.708110 -0.234507
O28   O     O_3   0.918618 0.125075 0.727470 -0.536707
O29   O     O_2   0.902450 0.733236 0.270445 -0.234625
O30   O     O_2   0.099997 0.653528 0.316285 -0.256250
O31   O     O_3   0.815601 0.698754 0.352145 -0.641956
O32   O     O_2   0.026789 0.845371 0.235815 -0.210612
O33   O     O_2   0.248082 0.907432 0.276502 -0.158386
O34   O     O_2   0.283330 0.457940 0.380160 -0.381097
O35   O     O_3   0.260983 0.758633 0.274611 -0.448744
O36   O     O_2   0.453291 0.965525 0.346588 -0.136316
O37   O     O_2   0.680024 0.922014 0.395597 -0.368201
O38   O     O_3   0.636075 0.840477 0.306226 -0.407993
O39   O     O_2   0.391093 0.334933 0.631670 -0.422950
O40   O     O_2   0.385642 0.309837 0.717332 -0.220071
O41   O     O_3   0.420912 0.189519 0.643566 -0.530541
O42   O     O_2   0.669448 0.570943 0.818234 -0.301970
O43   O     O_2   0.674784 0.684623 0.885552 -0.262773
O44   O     O_3   0.872683 0.665477 0.812283 -0.487224
O45   O     O_3   0.051340 0.457960 0.440360 -0.512122
O46   O     O_2   0.603001 0.423649 0.373464 -0.299052
O47   O     O_2   0.582176 0.429018 0.284758 -0.240172
O48   O     O_3   0.813436 0.328207 0.311057 -0.511456
O49   O     O_3   0.503130 0.601610 0.416130 -0.483514
O50   O     O_3   0.172580 0.331827 0.369444 -0.668640
O51   O     O_3   0.616890 0.595000 0.528820 -0.489339
O52   O     O_3   0.087820 0.642040 0.442240 -0.478888
P1    P     P_3+3 0.071770 0.565500 0.613330 0.981244
P2    P     P_3+3 0.664870 0.318630 0.453960 1.042924
P3    P     P_3+3 0.153397 0.257930 0.554785 1.016595
P4    P     P_3+3 0.117940 0.434440 0.386660 1.022368
P5    P     P_3+3 0.055383 0.745823 0.448105 0.954861
P6    P     P_3+3 0.675029 0.416141 0.649308 1.078662
P7    P     P_3+3 0.528718 0.694172 0.545958 0.951239
P8    P     P_3+3 0.528726 0.606627 0.353308 1.171446
S1    S     S_3+6 0.151809 0.122692 0.392089 -0.065177
S2    S     S_3+6 0.746326 0.170730 0.706692 0.010474
S3    S     S_3+6 0.962041 0.719594 0.321424 -0.055288
S4    S     S_3+6 0.143696 0.846569 0.279367 0.052621
S5    S     S_3+6 0.553858 0.893928 0.359599 -0.005223
S6    S     S_3+6 0.339778 0.283075 0.663463 -0.095318
S7    S     S_3+6 0.776041 0.622165 0.849589 -0.033029
S8    S     S_3+6 0.699316 0.416020 0.327641 -0.083665

loop_
_geom_bond_atom_site_label_1
_geom_bond_atom_site_label_2
_ccdc_geom_bond_type
O19   P2    D    
C19   C24   A    
O33   S4    D    
C65   H15   S    
C44   C50   D    
O4    P1    S    
C51   H27   S    
O35   S4    S    
H53   O48   S    
O6    P7    D    
C45   H41   S    
C61   H56   S    
C51   C57   A    
C23   H37   S    
C64   O9    S    
O12   P2    S    
Ba1   P2    S    
C6    P4    S    
O17   P1    S    
C10   C66   A    
O42   S7    D    
O26   S2    D    
O45   P4    S    
C15   C31   D    
O25   S1    S    
C53   P5    S    
O2    P5    D    
C45   S3    S    
C17   C19   A    
C22   C24   A    
C32   C33   S    
O39   S6    D    
O7    P7    S    
C34   H9    S    
C16   H57   S    
C36   C37   A    
C16   H59   S    
O49   P8    S    
C59   H25   S    
C55   C57   A    
C27   N2    Am   
C52   C61   S    
O15   P6    S    
C27   O11   D    
C53   C60   A    
C28   H32   S    
C23   O7    S    
C54   C55   A    
O29   S3    D    
Ba1   O20   S    
Ba1   Ba2   S    
C1    H6    S    
C43   H24   S    
C22   C27   A    
O3    P5    S    
C11   C38   A    
C34   H8    S    
C7    H17   S    
C8    N1    S    
O22   S1    D    
C9    C13   A    
C25   C42   A    
C64   H44   S    
H50   O41   S    
C6    C7    D    
O30   S3    D    
C21   C22   A    
C66   O10   D    
C17   C20   A    
Ba2   O45   S    
C64   H43   S    
C52   O17   S    
Ba1   O4    S    
C17   C35   A    
C7    C8    S    
Ba2   O34   S    
C4    S6    S    
C4    O23   S    
C14   S8    S    
O1    P1    D    
C37   C43   A    
C64   C65   S    
C44   H30   S    
C54   P7    S    
C6    C14   D    
C32   H52   S    
C28   O50   S    
O9    P8    S    
C50   P2    S    
O20   P3    S    
Ba1   O1    S    
H39   O28   S    
C2    N1    Am   
C51   C53   A    
Ba1   O51   S    
C4    C16   S    
H40   O31   S    
C44   C46   S    
C57   C59   S    
C1    S2    S    
C4    H16   S    
O36   S5    D    
C34   H38   S    
C49   C50   D    
C41   H22   S    
C12   H5    S    
C1    H2    S    
C29   H19   S    
C13   C39   A    
C46   P3    S    
C56   H13   S    
C60   H58   S    
C18   C37   A    
H35   O25   S    
Ba2   O52   S    
O21   P3    D    
O16   P6    D    
C63   H3    S    
C28   H31   S    
Ba2   O4    S    
C58   C59   D    
C26   N2    Am   
Ba2   O49   S    
Ba2   O6    S    
C11   H18   S    
C66   N1    Am   
C41   C42   A    
C35   C36   A    
O48   S8    S    
H51   O44   S    
O18   P6    S    
H42   O35   S    
C29   C30   S    
O31   S3    S    
C16   H10   S    
C55   H29   S    
C12   O18   S    
C48   C49   S    
C24   C25   A    
C30   P6    S    
O50   P4    S    
C62   H61   S    
O40   S6    D    
O43   S7    D    
C1    C12   S    
C56   H11   S    
C65   H14   S    
C46   C47   S    
C62   H62   S    
C21   H20   S    
C3    H48   S    
O8    P8    D    
C12   H1    S    
C54   C60   A    
C5    P8    S    
Ba1   O15   S    
O44   S7    S    
C23   H7    S    
C40   H33   S    
C61   H45   S    
C25   C26   A    
C18   C41   A    
Ba1   O5    S    
C3    C5    S    
O5    P2    S    
H46   O38   S    
O46   S8    D    
C5    C14   S    
C45   O3    S    
O41   S6    S    
O52   P5    S    
Ba2   O5    S    
C52   H34   S    
C61   H60   S    
C65   S5    S    
O51   P7    S    
C9    C10   A    
O32   S4    D    
Ba1   P1    S    
C35   C38   A    
C63   H4    S    
C62   O12   S    
C26   O14   D    
C48   C58   S    
C62   C63   S    
C2    C13   A    
O24   S1    D    
C3    C8    D    
O23   P3    S    
C45   C56   S    
O27   S2    D    
C2    O13   D    
C56   S4    S    
C20   H21   S    
C31   C32   D    
Ba1   O19   S    
C29   C33   D    
Ba2   O51   S    
C47   H28   S    
Ba2   P4    S    
C49   H26   S    
C23   C34   S    
C40   S1    S    
C38   H47   S    
C15   H54   S    
C52   H23   S    
C58   H55   S    
C10   C11   A    
C42   S7    S    
C18   C19   A    
C47   C48   D    
O47   S8    D    
O28   S2    S    
C40   H12   S    
C15   C30   S    
C39   C43   A    
C20   C21   A    
C28   C40   S    
C9    C36   A    
C31   P1    S    
C63   H36   S    
C39   H49   S    
Ba1   O45   S    
C33   N2    S    
O38   S5    S    
O37   S5    D    
O34   P4    D    
