data_mof_unit_62412.cif
_audit_creation_date              2012-12-10T16:44:43-0500
_audit_creation_method            fapswitch 2.2
_symmetry_space_group_name_H-M    P1
_symmetry_Int_Tables_number       1
_space_group_crystal_system       triclinic
_cell_length_a                    18.446761
_cell_length_b                    18.480252
_cell_length_c                    18.44707
_cell_angle_alpha                 119.470739
_cell_angle_beta                  119.860903
_cell_angle_gamma                 90.577557
_cell_volume                      4468.9764633

loop_
_atom_site_label
_atom_site_type_symbol
_atom_type_description
_atom_site_fract_x
_atom_site_fract_y
_atom_site_fract_z
_atom_type_partial_charge
C1    C     C_R   0.139062 0.362063 0.001097 0.508960
C2    C     C_R   0.914330 0.256612 0.228214 0.122956
C3    C     C_R   0.969323 0.311350 0.229816 0.162597
C4    C     C_R   0.862874 0.639724 0.001223 0.512553
C5    C     C_R   0.931847 0.326543 0.153734 -0.085300
C6    C     C_2   0.728916 0.784438 0.951978 -0.142357
C7    C     C_2   0.678847 0.792622 0.987808 0.117727
C8    C     C_2   0.775429 0.719974 0.940338 -0.164171
C9    C     C_2   0.816955 0.703390 0.011040 -0.100026
C10   C     C_2   0.728330 0.278736 0.442613 -0.072972
C11   C     C_2   0.703205 0.190760 0.386495 -0.088093
C12   C     C_R   0.558424 0.181997 0.842223 0.085453
C13   C     C_2   0.795408 0.331917 0.553194 0.105132
C14   C     C_2   0.795771 0.307936 0.612380 0.113087
C15   C     C_2   0.332772 0.275605 0.059626 -0.086989
C16   C     C_R   0.138776 0.639885 0.277077 0.513614
C17   C     C_2   0.304512 0.190238 0.983153 0.094256
C18   C     C_2   0.282344 0.334918 0.051179 0.062439
C19   C     C_2   0.195100 0.308138 0.011487 -0.081474
C20   C     C_2   0.217907 0.775340 0.937343 -0.156119
C21   C     C_2   0.305993 0.810960 0.006348 -0.086137
C22   C     C_2   0.161928 0.723566 0.941489 -0.156196
C23   C     C_R   0.652486 0.213472 0.919537 0.010736
C24   C     C_2   0.195421 0.688726 0.994776 -0.089322
C25   C     C_2   0.219733 0.779874 0.555583 -0.128818
C26   C     C_2   0.307485 0.797620 0.613217 -0.063586
C27   C     C_2   0.165951 0.716345 0.444144 -0.105535
C28   C     C_R   0.861439 0.361906 0.722886 0.508117
C29   C     C_2   0.195389 0.706189 0.387106 0.106273
C30   C     C_R   0.639724 0.137982 0.276768 0.500234
C31   C     C_R   0.361511 0.860378 0.723098 0.508821
C32   C     C_R   0.637033 0.859969 0.998745 0.551057
C33   C     C_R   0.361197 0.137894 0.997973 0.552317
C34   C     C_R   0.710175 0.266085 0.920328 -0.023423
C35   C     C_R   0.360384 0.860986 0.000672 0.517684
C36   C     C_R   0.637594 0.139778 0.997783 0.483281
C37   C     C_R   0.139660 0.638890 0.999262 0.516294
C38   C     C_R   0.860347 0.360170 0.000188 0.480605
C39   C     C_R   0.674637 0.281732 0.843453 -0.085664
C40   C     C_R   0.583784 0.247968 0.767433 0.084061
C41   C     C_R   0.526760 0.199176 0.768037 -0.015420
C42   C     C_R   0.691531 0.196415 0.996253 0.029920
C43   C     C_R   0.784208 0.234286 0.073974 -0.016304
C44   C     C_R   0.839594 0.288802 0.075486 -0.024848
C45   C     C_R   0.802454 0.303828 0.998488 0.020539
C46   C     C_R   0.823106 0.218570 0.150955 -0.107456
H1    H     H_    0.819912 0.739172 0.080283 0.116806
H2    H     H_    0.703316 0.751586 0.080028 0.232730
H3    H     H_    0.647268 0.667008 0.952469 0.240446
H4    H     H_    0.779009 0.689293 0.875177 0.157715
H5    H     H_    0.704034 0.313293 0.406455 0.160492
H6    H     H_    0.732703 0.156032 0.421047 0.141492
H7    H     H_    0.849751 0.465917 0.638456 0.261282
H8    H     H_    0.923886 0.410628 0.639154 0.239496
H9    H     H_    0.755507 0.189578 0.585250 0.244521
H10   H     H_    0.694367 0.254463 0.605641 0.235619
H11   H     H_    0.216754 0.193726 0.860672 0.240132
H12   H     H_    0.398000 0.304767 0.130932 0.147996
H13   H     H_    0.169969 0.128800 0.878824 0.230346
H14   H     H_    0.332948 0.468652 0.153228 0.263507
H15   H     H_    0.298336 0.432139 0.032196 0.251700
H16   H     H_    0.717055 0.320894 0.841834 0.116764
H17   H     H_    0.185143 0.785316 0.876758 0.160371
H18   H     H_    0.340332 0.806204 0.070655 0.110759
H19   H     H_    0.264610 0.693958 0.034433 0.108880
H20   H     H_    0.185491 0.809274 0.590625 0.150483
H21   H     H_    0.341409 0.763524 0.579944 0.147581
H22   H     H_    0.317632 0.726261 0.415789 0.240551
H23   H     H_    0.163408 0.244133 0.988881 0.091329
H24   H     H_    0.266917 0.795960 0.393847 0.242374
H25   H     H_    0.509997 0.303631 0.700034 0.231862
H26   H     H_    0.598999 0.298216 0.696484 0.223507
H27   H     H_    0.496455 0.172562 0.904851 0.251943
H28   H     H_    0.494111 0.072643 0.816928 0.260764
H29   H     H_    0.783471 0.176665 0.152674 0.118769
H30   H     H_    0.935556 0.171344 0.268763 0.231802
H31   H     H_    0.918569 0.260220 0.341488 0.235573
H32   H     H_    0.735616 0.826555 0.928839 0.138222
H33   H     H_    0.091248 0.713018 0.898107 0.159859
H34   H     H_    0.098891 0.677339 0.407854 0.126917
H35   H     H_    0.455968 0.174518 0.709949 0.155471
H36   H     H_    0.976402 0.368349 0.156857 0.130248
H37   H     H_    0.084481 0.332103 0.356078 0.273567
H38   H     H_    0.077233 0.420053 0.350973 0.221288
N1    N     N_3   0.063525 0.351887 0.306788 -0.618689
N2    N     N_3   0.950541 0.239592 0.305001 -0.642045
N3    N     N_3   0.655373 0.731150 0.005389 -0.616152
N4    N     N_3   0.859994 0.410116 0.594430 -0.632562
N5    N     N_3   0.726332 0.232682 0.569246 -0.649827
N6    N     N_3   0.224815 0.149836 0.882011 -0.614824
N7    N     N_3   0.330375 0.421036 0.089211 -0.605701
N8    N     N_3   0.279093 0.764445 0.430740 -0.632609
N9    N     N_3   0.547996 0.263226 0.689030 -0.624729
N10   N     N_3   0.491231 0.135455 0.836686 -0.641234
O1    O     O_3   1.000000 0.500000 0.000000 -0.441541
O2    O     O_R   0.325040 0.054120 0.939900 -0.512424
O3    O     O_R   0.444330 0.884140 0.060080 -0.533399
O4    O     O_R   0.054210 0.325030 0.939940 -0.535320
O5    O     O_R   0.615830 0.175840 0.060080 -0.547173
O6    O     O_R   0.324160 0.884140 0.939910 -0.544558
O7    O     O_R   0.615850 0.055700 0.939930 -0.546538
O8    O     O_R   0.614980 0.885710 0.939940 -0.557948
O9    O     O_R   0.445830 0.174930 0.060060 -0.559438
O10   O     O_R   0.614300 0.054120 0.229160 -0.537690
O11   O     O_R   0.325070 0.885060 0.770830 -0.538105
O12   O     O_R   0.054160 0.614240 0.229150 -0.550279
O13   O     O_R   0.885070 0.614240 0.060060 -0.537311
O14   O     O_R   0.174980 0.614900 0.229170 -0.543422
O15   O     O_R   0.885740 0.445830 0.770840 -0.559439
O16   O     O_R   0.175880 0.615810 0.060090 -0.542243
O17   O     O_R   0.884210 0.324110 0.939920 -0.539730
O18   O     O_R   0.055710 0.615810 0.939920 -0.543274
O19   O     O_R   0.884190 0.444260 0.060070 -0.542919
O20   O     O_R   0.885120 0.325030 0.770840 -0.541275
O21   O     O_R   0.175010 0.445830 0.060100 -0.548963
O22   O     O_R   0.885710 0.614900 0.939900 -0.540323
O23   O     O_3   0.500040 0.999960 0.000000 -0.450808
O24   O     O_R   0.614930 0.174930 0.229160 -0.543635
O25   O     O_R   0.445880 0.885710 0.770850 -0.540631
O26   O     O_R   0.614330 0.885060 0.060100 -0.516941
Zn1   Zn    Zn3+2 0.956610 0.542450 0.085830 0.935527
Zn2   Zn    Zn3+2 0.129220 0.543380 0.085850 0.930235
Zn3   Zn    Zn3+2 0.957530 0.543380 0.914160 0.924339
Zn4   Zn    Zn3+2 0.956640 0.370790 0.914170 0.936743
Zn5   Zn    Zn3+2 0.543440 0.957510 0.914170 0.930763
Zn6   Zn    Zn3+2 0.542510 0.956570 0.085840 0.955704
Zn7   Zn    Zn3+2 0.370820 0.956570 0.914150 0.951570
Zn8   Zn    Zn3+2 0.543410 0.129170 0.085830 0.927149

loop_
_geom_bond_atom_site_label_1
_geom_bond_atom_site_label_2
_ccdc_geom_bond_type
O1    Zn4   S    
C15   C18   S    
C4    C9    S    
O22   Zn3   S    
H30   N2    S    
C3    N1    S    
O6    Zn7   S    
H3    N3    S    
C36   C42   S    
C40   N9    S    
O8    Zn5   S    
C2    C46   A    
O4    Zn4   S    
C12   C23   A    
C23   C42   A    
O24   Zn8   S    
C38   C45   S    
C26   H21   S    
C22   H33   S    
O26   Zn6   S    
C6    H32   S    
C27   C29   D    
C13   N4    S    
C18   C19   D    
H28   N10   S    
C21   H18   S    
C11   H6    S    
C7    N3    S    
C11   C30   S    
C8    C9    D    
C37   O18   A    
O7    Zn5   S    
C36   O5    A    
O23   Zn6   S    
C16   O12   A    
O20   Zn4   S    
O1    Zn1   S    
C26   C31   S    
O21   Zn2   S    
C13   C14   D    
C31   O11   A    
C12   N10   S    
C17   C33   S    
H27   N10   S    
C32   O26   A    
C10   H5    S    
C46   H29   S    
C43   C46   A    
C17   N6    S    
C4    O13   A    
C1    C19   S    
H11   N6    S    
O11   Zn7   S    
C34   C39   A    
H38   N1    S    
O18   Zn3   S    
C27   H34   S    
C39   C40   A    
C38   O19   A    
O15   Zn3   S    
C6    C8    S    
C30   O24   A    
C16   C29   S    
O2    Zn7   S    
C36   O7    A    
H13   N6    S    
C43   C44   A    
C14   N5    S    
C12   C41   A    
C23   C34   A    
C41   H35   S    
C24   C37   S    
H2    N3    S    
O19   Zn1   S    
C34   C45   A    
O9    Zn8   S    
O23   Zn7   S    
C31   O25   A    
C37   O16   A    
C6    C7    D    
C28   O20   A    
C24   H19   S    
C21   C35   S    
H26   N9    S    
O25   Zn5   S    
O1    Zn2   S    
H10   N5    S    
H37   N1    S    
C5    C44   A    
C20   C22   S    
H31   N2    S    
C9    H1    S    
C15   H12   S    
C32   O8    A    
C19   H23   S    
C42   C43   A    
O13   Zn1   S    
C35   O6    A    
C33   O2    A    
C8    H4    S    
C44   C45   A    
H14   N7    S    
O1    Zn3   S    
C15   C17   D    
C39   H16   S    
C40   C41   A    
C7    C32   S    
O17   Zn4   S    
C33   O9    A    
C4    O22   A    
H24   N8    S    
C25   H20   S    
O14   Zn2   S    
O3    Zn6   S    
C3    C5    A    
C10   C13   S    
C1    O4    A    
O5    Zn8   S    
H25   N9    S    
C28   O15   A    
C25   C27   S    
C20   H17   S    
C2    C3    A    
C25   C26   D    
H9    N5    S    
O16   Zn2   S    
H8    N4    S    
C5    H36   S    
O12   Zn1   S    
H22   N8    S    
C2    N2    S    
H7    N4    S    
C22   C24   D    
O23   Zn8   S    
C10   C11   D    
C16   O14   A    
C18   N7    S    
O10   Zn6   S    
C20   C21   D    
C30   O10   A    
C1    O21   A    
C14   C28   S    
C38   O17   A    
C35   O3    A    
O23   Zn5   S    
C29   N8    S    
H15   N7    S    
