data_mof_unit_5385.cif
_audit_creation_date              2012-12-10T17:43:37-0500
_audit_creation_method            fapswitch 2.2
_symmetry_space_group_name_H-M    P1
_symmetry_Int_Tables_number       1
_space_group_crystal_system       triclinic
_cell_length_a                    14.996688
_cell_length_b                    10.707775
_cell_length_c                    9.901413
_cell_angle_alpha                 88.551575
_cell_angle_beta                  89.495119
_cell_angle_gamma                 92.102089
_cell_volume                      1588.32726575

loop_
_atom_site_label
_atom_site_type_symbol
_atom_type_description
_atom_site_fract_x
_atom_site_fract_y
_atom_site_fract_z
_atom_type_partial_charge
C1    C     C_R   0.503508 0.259426 0.502630 0.868296
C2    C     C_R   0.906559 0.513745 0.623314 0.064767
C3    C     C_R   0.954308 0.445932 0.262641 -0.224977
C4    C     C_R   0.046790 0.444660 0.263663 -0.219948
C5    C     C_R   0.092806 0.467469 0.383428 0.138878
C6    C     C_R   0.046263 0.489553 0.504738 0.014766
C7    C     C_R   0.092478 0.511629 0.626574 0.092996
C8    C     C_R   0.044803 0.532788 0.747492 0.201058
C9    C     C_R   0.951796 0.533707 0.744045 -0.224776
C10   C     C_R   0.184906 0.469843 0.383240 -0.257335
C11   C     C_R   0.230749 0.493921 0.502274 -0.077945
C12   C     C_R   0.326708 0.498384 0.500624 0.870194
C13   C     C_R   0.185242 0.513115 0.623270 -0.260605
C14   C     C_R   0.497714 0.101666 0.763360 -0.230175
C15   C     C_R   0.464364 0.034962 0.876868 -0.152684
C16   C     C_R   0.419245 0.920006 0.862114 0.251389
C17   C     C_R   0.415851 0.867613 0.734344 -0.168397
C18   C     C_R   0.457292 0.929900 0.621043 0.055320
C19   C     C_R   0.486255 0.054754 0.631483 0.096310
C20   C     C_R   0.503076 0.124793 0.508865 -0.108556
C21   C     C_R   0.506245 0.065236 0.384761 -0.214669
C22   C     C_R   0.495007 0.938269 0.380275 -0.220041
C23   C     C_R   0.489566 0.738219 0.499057 0.887998
C24   C     C_R   0.474706 0.869843 0.498630 -0.112421
C25   C     C_R   0.379634 0.339223 0.145509 -0.173725
C26   C     C_R   0.318846 0.261489 0.077953 0.199098
C27   C     C_R   0.319150 0.263007 0.937621 -0.203028
C28   C     C_R   0.379720 0.340567 0.865225 -0.210419
C29   C     C_R   0.440477 0.421507 0.930533 0.134777
C30   C     C_R   0.440426 0.421285 0.075055 0.081952
C31   C     C_R   0.557847 0.575417 0.066738 0.216869
C32   C     C_R   0.556759 0.574905 0.923709 -0.125686
C33   C     C_R   0.673304 0.499805 0.499613 0.903794
C34   C     C_R   0.814512 0.517089 0.620696 -0.239202
C35   C     C_R   0.769182 0.497129 0.499905 -0.075932
C36   C     C_R   0.815327 0.472723 0.380850 -0.268431
C37   C     C_R   0.907533 0.469545 0.381582 0.140581
C38   C     C_R   0.953504 0.490625 0.503371 0.057666
H1    H     H_    0.778293 0.535936 0.712856 0.158736
H2    H     H_    0.535713 0.186449 0.783165 0.187600
H3    H     H_    0.381082 0.777892 0.724337 0.163764
H4    H     H_    0.505017 0.893765 0.284581 0.165468
H5    H     H_    0.377782 0.332319 0.252694 0.210570
H6    H     H_    0.273325 0.202032 0.883749 0.165992
H7    H     H_    0.378327 0.332674 0.758301 0.220857
H8    H     H_    0.779697 0.455386 0.287986 0.154223
H9    H     H_    0.602773 0.634990 0.864771 0.156894
H10   H     H_    0.082415 0.426653 0.170877 0.152805
H11   H     H_    0.220763 0.453421 0.290117 0.170084
H12   H     H_    0.222808 0.530937 0.714001 0.182126
N1    N     N_R   0.499150 0.498800 0.142780 -0.117760
N2    N     N_R   0.499120 0.498720 0.857170 -0.138028
O1    O     O_R   0.500000 0.316780 0.614690 -0.650065
O2    O     O_R   0.499990 0.316750 0.385360 -0.639605
O3    O     O_R   0.367850 0.499980 0.614680 -0.651536
O4    O     O_R   0.367840 0.499960 0.385350 -0.639523
O5    O     O_R   0.500010 0.683250 0.614640 -0.621838
O6    O     O_R   0.500000 0.683220 0.385310 -0.622647
O7    O     O_R   0.632160 0.500040 0.614650 -0.623799
O8    O     O_R   0.632150 0.500020 0.385320 -0.621196
Zn1   Zn    Zn3+2 0.500010 0.500020 0.653130 0.922775
Zn2   Zn    Zn3+2 0.499990 0.499980 0.346870 0.931738
H13   H     H_    0.472787 0.074237 0.975940 0.148444
C39   C     C_3   0.378202 0.850202 0.981930 -0.934289
H14   H     H_    0.387579 0.902888 0.076301 0.239374
H15   H     H_    0.305533 0.834539 0.965676 0.240448
H16   H     H_    0.409483 0.758343 0.994962 0.251637
C40   C     C_3   0.626563 0.660042 0.130840 -0.831496
H17   H     H_    0.662945 0.720411 0.054143 0.192943
H18   H     H_    0.595454 0.724193 0.200692 0.260930
H19   H     H_    0.677587 0.604423 0.181587 0.248639
C41   C     C_3   0.253979 0.175622 0.154722 -0.930642
H20   H     H_    0.261574 0.183752 0.265701 0.238593
H21   H     H_    0.184705 0.199198 0.128108 0.245130
H22   H     H_    0.265169 0.077324 0.127867 0.253558
H23   H     H_    0.919456 0.429230 0.168991 0.145523
C42   C     C_3   0.091011 0.554978 0.880102 -0.942403
H24   H     H_    0.135510 0.640014 0.871230 0.244099
H25   H     H_    0.042593 0.569083 0.963353 0.242967
H26   H     H_    0.130839 0.473037 0.908272 0.242270
H27   H     H_    0.914385 0.550567 0.835647 0.146146
H28   H     H_    0.519603 0.116291 0.290390 0.172735

loop_
_geom_bond_atom_site_label_1
_geom_bond_atom_site_label_2
_ccdc_geom_bond_type
O6    Zn2   S    
C23   O6    A    
C30   N1    A    
C26   C41   S    
C35   C36   A    
C25   H5    S    
C7    C8    A    
C42   H24   S    
C26   C27   A    
C29   C30   A    
C18   C24   A    
C36   C37   A    
C34   C35   A    
N2    Zn1   S    
C5    C6    A    
C15   C16   A    
O8    Zn2   S    
C18   C19   A    
C1    O1    A    
C32   N2    A    
C40   H17   S    
O1    Zn1   S    
C27   H6    S    
C19   C20   A    
C8    C9    A    
C23   C24   S    
C6    C38   A    
C36   H8    S    
C41   H20   S    
C2    C34   A    
C33   O7    A    
C21   C22   A    
C10   H11   S    
N1    Zn2   S    
C41   H22   S    
C42   H25   S    
C31   C40   S    
C28   H7    S    
O7    Zn1   S    
C34   H1    S    
C39   H16   S    
C41   H21   S    
C16   C17   A    
O2    Zn2   S    
C25   C26   A    
C39   H15   S    
C1    O2    A    
C37   C38   A    
C2    C38   A    
C31   C32   A    
C17   C18   A    
C20   C21   A    
C3    H23   S    
C12   O4    A    
C33   O8    A    
C8    C42   S    
C32   H9    S    
C22   C24   A    
C3    C4    A    
C4    H10   S    
C42   H26   S    
C25   C30   A    
C23   O5    A    
C28   C29   A    
C1    C20   S    
C14   C19   A    
C31   N1    A    
C4    C5    A    
C11   C12   S    
O5    Zn1   S    
C6    C7    A    
C39   H14   S    
C5    C10   A    
C11   C13   A    
C22   H4    S    
C40   H19   S    
O3    Zn1   S    
C33   C35   S    
O4    Zn2   S    
C17   H3    S    
C12   O3    A    
C10   C11   A    
C14   H2    S    
C13   H12   S    
C7    C13   A    
C21   H28   S    
C3    C37   A    
C40   H18   S    
C27   C28   A    
C15   H13   S    
C14   C15   A    
C16   C39   S    
C2    C9    A    
C9    H27   S    
C29   N2    A    
