data_mof_unit_48024.cif
_audit_creation_date              2012-12-11T14:50:36-0500
_audit_creation_method            fapswitch 2.2
_symmetry_space_group_name_H-M    P1
_symmetry_Int_Tables_number       1
_space_group_crystal_system       triclinic
_cell_length_a                    10.897407
_cell_length_b                    10.920474
_cell_length_c                    18.840495
_cell_angle_alpha                 90.394127
_cell_angle_beta                  90.014169
_cell_angle_gamma                 59.906307
_cell_volume                      1939.82947723

loop_
_atom_site_label
_atom_site_type_symbol
_atom_type_description
_atom_site_fract_x
_atom_site_fract_y
_atom_site_fract_z
_atom_type_partial_charge
C1    C     C_R   0.234465 0.647439 0.609072 0.553114
C2    C     C_3   0.773590 0.501702 0.797282 -0.262914
C3    C     C_3   0.687890 0.662530 0.815966 0.041046
C4    C     C_3   0.649136 0.618737 0.683223 0.034621
C5    C     C_3   0.694549 0.733351 0.688491 -0.016850
C6    C     C_3   0.762424 0.479310 0.718142 -0.246491
C7    C     C_R   0.790316 0.133894 0.708298 -0.143186
C8    C     C_R   0.806457 0.117751 0.781881 -0.142734
C9    C     C_R   0.687009 0.161412 0.825693 0.015106
C10   C     C_R   0.551556 0.229823 0.796094 -0.129105
C11   C     C_R   0.535822 0.242920 0.723655 -0.126084
C12   C     C_R   0.628482 0.588341 0.608945 0.559631
C13   C     C_R   0.654282 0.194382 0.678888 0.028275
C14   C     C_R   0.183160 0.556828 0.719470 -0.135644
C15   C     C_R   0.170350 0.564251 0.793172 -0.156402
C16   C     C_R   0.157985 0.682384 0.829789 0.020871
C17   C     C_R   0.154721 0.793467 0.791625 -0.133079
C18   C     C_R   0.161482 0.788741 0.718669 -0.138546
C19   C     C_R   0.183040 0.667591 0.682077 0.046232
C20   C     C_R   0.771105 0.548493 0.277636 0.061368
C21   C     C_R   0.762004 0.550161 0.205067 -0.114940
C22   C     C_R   0.659156 0.669781 0.169475 -0.018871
C23   C     C_R   0.626488 0.231550 0.604107 0.545134
C24   C     C_R   0.551555 0.781477 0.208246 -0.118749
C25   C     C_R   0.547173 0.773802 0.282136 0.055858
C26   C     C_R   0.657943 0.655565 0.318069 0.037411
C27   C     C_R   0.529110 0.185118 0.283623 -0.121785
C28   C     C_R   0.531533 0.177702 0.210977 -0.134118
C29   C     C_R   0.647040 0.168178 0.173966 0.028314
C30   C     C_R   0.754457 0.178024 0.210033 -0.139298
C31   C     C_R   0.751643 0.185963 0.283283 -0.137247
C32   C     C_R   0.639035 0.189099 0.320385 0.031404
C33   C     C_R   0.086254 0.802947 0.304762 -0.117806
C34   C     C_R   0.219647 0.649505 0.402209 0.561699
C35   C     C_R   0.066292 0.815549 0.232759 -0.111810
C36   C     C_R   0.109183 0.694468 0.190076 0.033855
C37   C     C_R   0.161317 0.561781 0.220495 -0.129284
C38   C     C_R   0.183610 0.548731 0.292968 -0.103302
C39   C     C_R   0.152407 0.668770 0.334424 0.039531
C40   C     C_R   0.701578 0.103393 0.896549 0.539339
C41   C     C_R   0.719208 0.684640 0.889917 0.549434
C42   C     C_R   0.113465 0.708899 0.903941 0.546084
C43   C     C_R   0.673508 0.110061 0.103154 0.543436
C44   C     C_R   0.694608 0.689376 0.097303 0.547891
C45   C     C_R   0.643099 0.623675 0.392051 0.593246
C46   C     C_R   0.083638 0.714792 0.115183 0.551318
C47   C     C_R   0.615891 0.231340 0.394031 0.557028
C48   C     C_3   0.527265 0.715747 0.802651 -0.044508
C49   C     C_3   0.509249 0.673469 0.726165 -0.244673
C50   C     C_3   0.738353 0.741021 0.765476 -0.201093
Cr1   Cr    Cr6+3 0.392930 0.397900 0.502230 1.058121
Cr2   Cr    Cr6+3 0.398240 0.708600 0.501260 1.071607
Cr3   Cr    Cr6+3 0.708800 0.393470 0.496460 1.065577
Cr4   Cr    Cr6+3 0.937620 0.938540 0.007640 1.027621
Cr5   Cr    Cr6+3 0.625150 0.937450 0.994520 1.056144
Cr6   Cr    Cr6+3 0.937990 0.625080 0.001190 1.024452
H1    H     H_    0.868003 0.440734 0.692840 0.174503
H2    H     H_    0.855670 0.691002 0.768982 0.148978
H3    H     H_    0.882622 0.100065 0.674731 0.132499
H4    H     H_    0.911621 0.065715 0.804184 0.134692
H5    H     H_    0.457659 0.264930 0.828708 0.144891
H6    H     H_    0.429547 0.292705 0.702728 0.141043
H7    H     H_    0.167330 0.479515 0.821178 0.134188
H8    H     H_    0.141876 0.887416 0.817964 0.165709
H9    H     H_    0.489673 0.664747 0.841134 0.131722
H10   H     H_    0.158412 0.877255 0.691408 0.145981
H11   H     H_    0.473561 0.876252 0.181443 0.154552
H12   H     H_    0.446933 0.170871 0.184399 0.145946
H13   H     H_    0.844306 0.171724 0.182040 0.136695
H14   H     H_    0.835812 0.191726 0.310710 0.166790
H15   H     H_    0.059953 0.896458 0.336259 0.152607
H16   H     H_    0.019596 0.920425 0.210422 0.147381
H17   H     H_    0.189787 0.468698 0.188245 0.132894
H18   H     H_    0.234733 0.443707 0.315478 0.160921
H19   H     H_    0.421806 0.765511 0.698833 0.168850
H20   H     H_    0.693692 0.853750 0.781501 0.162246
H21   H     H_    0.601447 0.837854 0.674964 0.170313
H22   H     H_    0.888250 0.454501 0.809963 0.156628
H23   H     H_    0.732381 0.443648 0.828503 0.126539
H24   H     H_    0.733286 0.396569 0.710819 0.127953
O1    O     O_R   0.507430 0.255570 0.581420 -0.510302
O2    O     O_R   0.524460 0.695920 0.424060 -0.463874
O3    O     O_R   0.736530 0.504260 0.414810 -0.471246
O4    O     O_R   0.691460 0.277160 0.422180 -0.498030
O5    O     O_3   0.499990 0.499990 0.499980 -0.294224
O6    O     O_R   0.089490 0.825610 0.930610 -0.513896
O7    O     O_R   0.818370 0.054540 0.929880 -0.509029
O8    O     O_R   0.605870 0.077310 0.915530 -0.497587
O9    O     O_R   0.646440 0.806700 0.917570 -0.464435
O10   O     O_R   0.837200 0.593290 0.915250 -0.533575
O11   O     O_R   0.065330 0.635370 0.931590 -0.506311
O12   O     O_R   0.280190 0.527390 0.578910 -0.500770
O13   O     O_R   0.068300 0.828790 0.091860 -0.522191
O14   O     O_R   0.798730 0.057480 0.079370 -0.512628
O15   O     O_R   0.584680 0.080480 0.076790 -0.522903
O16   O     O_R   0.626790 0.809640 0.067050 -0.496728
O17   O     O_R   0.816010 0.596460 0.076500 -0.524300
O18   O     O_R   0.045680 0.638310 0.081070 -0.500906
O19   O     O_3   0.833590 0.833690 0.001120 -0.255838
O20   O     O_R   0.260310 0.739740 0.584580 -0.534033
O21   O     O_R   0.532250 0.695150 0.573830 -0.491587
O22   O     O_R   0.744930 0.503430 0.576380 -0.481375
O23   O     O_R   0.699250 0.276390 0.571950 -0.523294
O24   O     O_R   0.499020 0.256400 0.419850 -0.509104
O25   O     O_R   0.272400 0.528160 0.429140 -0.498614
O26   O     O_R   0.251910 0.740570 0.423020 -0.492443
I1    I     I_    0.389627 0.942837 0.816705 -0.462244
I2    I     I_    0.856319 0.711648 0.615151 -0.369708
H25   H     H_    0.195026 0.464236 0.691896 0.141359
I3    I     I_    0.970566 0.381182 0.315859 -0.387798
H26   H     H_    0.847341 0.462394 0.176437 0.165493
I4    I     I_    0.372406 0.950915 0.332148 -0.354290
H27   H     H_    0.438128 0.192325 0.310660 0.172751
H28   H     H_    0.479716 0.589614 0.728482 0.102890

loop_
_geom_bond_atom_site_label_1
_geom_bond_atom_site_label_2
_ccdc_geom_bond_type
C14   H25   S    
C41   O9    A    
C35   C36   A    
Cr6   O18   S    
C11   H6    S    
Cr1   O5    S    
C7    C8    A    
C2    C6    S    
C29   C30   A    
Cr3   O4    S    
C2    H22   S    
C40   O7    A    
C28   C29   A    
C28   H12   S    
C18   C19   A    
C17   H8    S    
Cr4   O7    S    
C48   I1    S    
C15   C16   A    
C3    C48   S    
C43   O14   A    
C13   C23   S    
C42   O11   A    
Cr5   O8    S    
Cr4   O13   S    
C2    H23   S    
C26   C45   S    
Cr6   O11   S    
C22   C44   S    
C45   O2    A    
C8    C9    A    
C43   O15   A    
C49   H19   S    
C36   C46   S    
C42   O6    A    
C48   H9    S    
C4    C12   S    
C9    C10   A    
Cr1   O1    S    
C25   I4    S    
Cr6   O10   S    
C49   H28   S    
C46   O18   A    
Cr2   O26   S    
C21   C22   A    
C29   C43   S    
C6    H1    S    
C45   O3    A    
Cr6   O17   S    
C1    O20   A    
C7    H3    S    
C21   H26   S    
C3    C50   S    
C31   H14   S    
C38   C39   A    
C23   O23   A    
Cr2   O21   S    
C1    C19   S    
C34   C39   S    
C50   H2    S    
C24   C25   A    
C4    C6    S    
Cr4   O6    S    
C16   C17   A    
Cr1   O24   S    
Cr2   O20   S    
C9    C40   S    
C34   O26   A    
C12   O22   A    
C37   C38   A    
C44   O16   A    
C50   H20   S    
Cr1   O12   S    
C44   O17   A    
C6    H24   S    
C31   C32   A    
C7    C13   A    
Cr3   O22   S    
Cr1   O25   S    
C17   C18   A    
C33   C39   A    
C47   O4    A    
Cr2   O2    S    
C20   I3    S    
C27   H27   S    
Cr5   O15   S    
C48   C49   S    
Cr2   O5    S    
C35   H16   S    
C1    O12   A    
C32   C47   S    
C22   C24   A    
C5    C50   S    
C10   H5    S    
C5    H21   S    
C16   C42   S    
C30   H13   S    
C38   H18   S    
C37   H17   S    
C3    C41   S    
C47   O24   A    
C23   O1    A    
C27   C32   A    
C34   O25   A    
C14   C19   A    
Cr5   O16   S    
C24   H11   S    
C18   H10   S    
C4    C49   S    
Cr3   O3    S    
C40   O8    A    
C2    C3    S    
C25   C26   A    
C12   O21   A    
Cr5   O9    S    
C8    H4    S    
C11   C13   A    
C30   C31   A    
C46   O13   A    
C20   C26   A    
Cr3   O23   S    
C33   C35   A    
C41   O10   A    
Cr4   O19   S    
Cr4   O14   S    
C10   C11   A    
C33   H15   S    
C4    C5    S    
C20   C21   A    
C36   C37   A    
Cr5   O19   S    
C27   C28   A    
C15   H7    S    
C14   C15   A    
Cr3   O5    S    
Cr6   O19   S    
C5    I2    S    
