data_mof_unit_28829.cif
_audit_creation_date              2012-12-10T19:44:40-0500
_audit_creation_method            fapswitch 2.2
_symmetry_space_group_name_H-M    P1
_symmetry_Int_Tables_number       1
_space_group_crystal_system       triclinic
_cell_length_a                    8.583579
_cell_length_b                    14.954727
_cell_length_c                    14.154618
_cell_angle_alpha                 89.646289
_cell_angle_beta                  98.715059
_cell_angle_gamma                 90.04432
_cell_volume                      1795.9460046

loop_
_atom_site_label
_atom_site_type_symbol
_atom_type_description
_atom_site_fract_x
_atom_site_fract_y
_atom_site_fract_z
_atom_type_partial_charge
C1    C     C_R   0.497912 0.327890 0.500191 0.889027
C2    C     C_R   0.372862 0.465810 0.883967 -0.275564
C3    C     C_R   0.498878 0.501146 0.053201 0.041172
C4    C     C_R   0.500463 0.501121 0.946819 0.043369
C5    C     C_R   0.200939 0.499918 0.475018 0.967723
C6    C     C_R   0.799066 0.499900 0.524982 0.972149
C7    C     C_2   0.035862 0.499810 0.461518 -0.393282
C8    C     C_2   0.964157 0.499680 0.538480 -0.386489
C9    C     C_R   0.408566 0.090024 0.549398 -0.213414
C10   C     C_R   0.425583 0.911179 0.428299 -0.225064
C11   C     C_R   0.396703 0.182498 0.548777 0.183378
C12   C     C_R   0.497927 0.672320 0.499384 0.890121
C13   C     C_R   0.413732 0.818748 0.424940 0.194576
C14   C     C_R   0.501819 0.232106 0.501628 -0.079658
C15   C     C_R   0.502518 0.768460 0.498877 -0.083866
C16   C     C_R   0.615264 0.190138 0.456000 -0.251022
C17   C     C_R   0.599767 0.810304 0.574077 -0.263879
C18   C     C_R   0.627368 0.097645 0.457230 0.223434
C19   C     C_R   0.611797 0.902689 0.577036 0.232358
C20   C     C_R   0.522593 0.048452 0.504349 0.049636
C21   C     C_R   0.523364 0.952435 0.503164 0.073602
C22   C     C_3   0.269282 0.226267 0.595142 -0.892181
C23   C     C_R   0.373275 0.539455 0.093053 0.449255
C24   C     C_3   0.302826 0.776181 0.344724 -0.905088
C25   C     C_3   0.750695 0.052477 0.408868 -0.909012
C26   C     C_3   0.718647 0.944745 0.659248 -0.937410
C27   C     C_3   0.241504 0.668524 0.047074 -0.311011
C28   C     C_3   0.746908 0.664532 0.965205 -0.305202
C29   C     C_R   0.628386 0.536820 0.906647 0.446246
C30   C     C_R   0.376136 0.536808 0.193384 -0.113839
C31   C     C_R   0.625544 0.534707 0.806544 -0.100304
C32   C     C_R   0.623077 0.463762 0.215373 -0.023334
C33   C     C_R   0.375093 0.465663 0.784812 -0.032481
C34   C     C_R   0.624825 0.463765 0.116213 -0.282029
H1    H     H_    0.973824 0.499977 0.388539 0.177480
H2    H     H_    0.276558 0.437580 0.737644 0.142745
H3    H     H_    0.723464 0.433683 0.088769 0.191307
H4    H     H_    0.272599 0.437386 0.911519 0.191641
H5    H     H_    0.322774 0.265274 0.658267 0.255424
H6    H     H_    0.197466 0.271351 0.543118 0.230765
H7    H     H_    0.188735 0.176076 0.619950 0.232303
H8    H     H_    0.221255 0.729734 0.374379 0.237022
H9    H     H_    0.230120 0.826933 0.300481 0.226480
H10   H     H_    0.370834 0.739164 0.296847 0.251687
H11   H     H_    0.830199 0.012242 0.462003 0.249454
H12   H     H_    0.026197 0.499518 0.611456 0.177420
H13   H     H_    0.692998 0.007821 0.351614 0.243202
H14   H     H_    0.823603 0.101770 0.376051 0.235751
H15   H     H_    0.721541 0.018738 0.654738 0.252485
H16   H     H_    0.678168 0.925930 0.727554 0.240174
H17   H     H_    0.840813 0.919903 0.660426 0.239759
H18   H     H_    0.356842 0.700353 0.040601 0.142199
H19   H     H_    0.205025 0.685016 0.116992 0.155132
H20   H     H_    0.152418 0.697779 0.990378 0.196299
H21   H     H_    0.636830 0.686675 0.990858 0.149812
H22   H     H_    0.753715 0.693292 0.893244 0.149056
H23   H     H_    0.328275 0.049772 0.584104 0.153286
H24   H     H_    0.847705 0.691412 0.015319 0.194394
H25   H     H_    0.357522 0.951766 0.373061 0.151670
H26   H     H_    0.695410 0.229876 0.420641 0.154253
H27   H     H_    0.668049 0.770711 0.630142 0.163718
H28   H     H_    0.278712 0.564180 0.224132 0.149910
H29   H     H_    0.724232 0.561289 0.776055 0.150497
H30   H     H_    0.720380 0.434206 0.262724 0.141144
N1    N     N_R   0.500000 0.499980 0.252470 -0.111406
N2    N     N_R   0.500000 0.500020 0.747530 -0.112861
O1    O     O_R   0.500010 0.369070 0.579480 -0.611154
O2    O     O_3   0.758623 0.570549 0.964913 -0.596376
O3    O     O_R   0.499990 0.630930 0.420520 -0.611487
O4    O     O_R   0.500010 0.369060 0.420520 -0.619257
O5    O     O_R   0.499990 0.630940 0.579480 -0.622255
O6    O     O_R   0.271750 0.500000 0.560890 -0.619160
O7    O     O_R   0.728250 0.500000 0.439110 -0.620848
O8    O     O_R   0.271750 0.499990 0.401930 -0.630188
O9    O     O_R   0.728250 0.500010 0.598070 -0.631080
O10   O     O_3   0.245380 0.575238 0.033562 -0.594337
Zn1   Zn    Zn3+2 0.500000 0.500010 0.606140 0.941308
Zn2   Zn    Zn3+2 0.500000 0.499990 0.393860 0.940713

loop_
_geom_bond_atom_site_label_1
_geom_bond_atom_site_label_2
_ccdc_geom_bond_type
C31   N2    A    
C12   O3    A    
O4    Zn2   S    
C34   H3    S    
C24   H8    S    
C3    C23   A    
O1    Zn1   S    
C23   O10   S    
C28   H22   S    
C27   H20   S    
C6    O9    A    
C19   C21   A    
C5    O6    A    
C26   H16   S    
C11   C14   A    
C22   H7    S    
C33   H2    S    
C16   H26   S    
C5    O8    A    
C19   C26   S    
C17   C19   A    
O7    Zn2   S    
C25   H13   S    
C9    H23   S    
C4    C29   A    
C17   H27   S    
O3    Zn2   S    
C18   C25   S    
C28   H21   S    
C33   N2    A    
C10   C21   A    
C23   C30   A    
C31   H29   S    
C7    C8    D    
C32   H30   S    
C26   H15   S    
C5    C7    S    
C6    C8    S    
C3    C34   A    
C13   C24   S    
C32   C34   A    
C2    C4    A    
O6    Zn1   S    
C29   O2    S    
O9    Zn1   S    
C2    H4    S    
C9    C20   A    
C12   C15   S    
C22   H6    S    
C9    C11   A    
C25   H14   S    
C2    C33   A    
C12   O5    A    
C30   H28   S    
C24   H10   S    
C14   C16   A    
C27   O10   S    
C25   H11   S    
O5    Zn1   S    
C27   H18   S    
C6    O7    A    
C15   C17   A    
N2    Zn1   S    
N1    Zn2   S    
C28   O2    S    
C7    H1    S    
C10   C13   A    
C27   H19   S    
C28   H24   S    
C11   C22   S    
C1    O4    A    
C13   C15   A    
C10   H25   S    
C29   C31   A    
C26   H17   S    
C22   H5    S    
C1    O1    A    
C18   C20   A    
C8    H12   S    
C30   N1    A    
C20   C21   S    
C16   C18   A    
O8    Zn2   S    
C24   H9    S    
C1    C14   S    
C3    C4    S    
C32   N1    A    
