data_mof_unit_20249.cif
_audit_creation_date              2012-12-11T17:23:18-0500
_audit_creation_method            fapswitch 2.2
_symmetry_space_group_name_H-M    P1
_symmetry_Int_Tables_number       1
_space_group_crystal_system       triclinic
_cell_length_a                    22.348308
_cell_length_b                    7.07523
_cell_length_c                    19.843678
_cell_angle_alpha                 89.997141
_cell_angle_beta                  98.323392
_cell_angle_gamma                 89.999323
_cell_volume                      3104.6210294

loop_
_atom_site_label
_atom_site_type_symbol
_atom_type_description
_atom_site_fract_x
_atom_site_fract_y
_atom_site_fract_z
_atom_type_partial_charge
O1    O     O_R   0.443980 0.494320 0.557430 -0.535512
O2    O     O_R   0.556020 0.994320 0.442570 -0.535538
O3    O     O_R   0.441210 0.822520 0.414610 -0.528186
O4    O     O_R   0.558790 0.322520 0.585390 -0.528175
C1    C     C_R   0.426989 0.654446 0.389761 0.791977
C2    C     C_R   0.573005 0.154437 0.610241 0.792137
O5    O     O_R   0.436920 0.823940 0.555180 -0.527118
O6    O     O_R   0.563080 0.323940 0.444820 -0.527004
O7    O     O_R   0.551700 0.995760 0.584140 -0.537349
O8    O     O_R   0.448300 0.495760 0.415860 -0.537394
C3    C     C_R   0.421557 0.655570 0.574812 0.754160
C4    C     C_R   0.578441 0.155576 0.425185 0.754121
O9    O     O_3   0.537660 0.661290 0.509340 -0.381946
O10   O     O_3   0.462340 0.161290 0.490660 -0.382005
V1    V     V_3+5 0.493010 0.935560 0.498270 1.546448
V2    V     V_3+5 0.506990 0.435560 0.501730 1.546599
H1    H     H_    0.736702 0.847465 0.331714 0.139840
H2    H     H_    0.263259 0.347501 0.668268 0.139753
C5    C     C_R   0.786206 0.943588 0.252729 0.181898
C6    C     C_R   0.213770 0.443639 0.747261 0.181890
C7    C     C_R   0.794371 0.089529 0.206474 0.067674
C8    C     C_R   0.205624 0.589566 0.793524 0.067747
C9    C     C_R   0.756855 0.249555 0.204087 -0.087606
C10   C     C_R   0.243149 0.749567 0.795907 -0.087652
H3    H     H_    0.761695 0.362507 0.168420 0.182604
H4    H     H_    0.238318 0.862517 0.831574 0.182513
C11   C     C_R   0.713068 0.266151 0.248008 -0.069577
C12   C     C_R   0.286933 0.766139 0.751981 -0.069578
H5    H     H_    0.685051 0.391623 0.245610 0.172367
H6    H     H_    0.314959 0.891589 0.754379 0.172339
C13   C     C_R   0.705778 0.122015 0.294725 0.080116
C14   C     C_R   0.294211 0.622007 0.705264 0.080158
C15   C     C_R   0.742279 0.960635 0.296359 -0.165364
C16   C     C_R   0.257694 0.460661 0.703627 -0.165342
C17   C     C_1   0.840817 0.078157 0.161829 0.091374
C18   C     C_1   0.159188 0.578194 0.838180 0.091379
C19   C     C_1   0.660953 0.137593 0.340849 0.011458
C20   C     C_1   0.339038 0.637567 0.659140 0.011577
C21   C     C_1   0.623604 0.147019 0.379569 -0.105106
C22   C     C_1   0.376390 0.646996 0.620424 -0.104983
C23   C     C_1   0.879387 0.069975 0.124404 -0.001776
C24   C     C_1   0.120623 0.569995 0.875610 -0.001817
C25   C     C_R   0.618602 0.997840 0.790162 0.283508
C26   C     C_R   0.381367 0.497096 0.209979 0.283577
H7    H     H_    0.691497 0.985299 0.905437 0.251567
H8    H     H_    0.308429 0.483151 0.094746 0.251516
C27   C     C_R   0.610133 0.137191 0.677530 -0.206964
C28   C     C_R   0.389841 0.637185 0.322482 -0.206892
C29   C     C_R   0.904760 0.097116 0.769040 0.111484
C30   C     C_R   0.095210 0.597854 0.230958 0.111448
C31   C     C_R   0.870373 0.119484 0.705521 -0.106705
C32   C     C_R   0.129595 0.620450 0.294466 -0.106727
C33   C     C_R   0.807819 0.121880 0.697859 -0.168135
C34   C     C_R   0.192150 0.622445 0.302145 -0.168161
C35   C     C_R   0.776463 0.099847 0.753980 0.076666
C36   C     C_R   0.223508 0.599745 0.246057 0.076720
C37   C     C_R   0.811138 0.078670 0.821165 -0.066115
C38   C     C_R   0.188835 0.578213 0.178887 -0.066030
C39   C     C_R   0.711119 0.093456 0.744438 0.062938
C40   C     C_R   0.288850 0.593147 0.255617 0.062838
C41   C     C_R   0.681800 0.030467 0.798697 -0.153179
C42   C     C_R   0.318161 0.529595 0.201425 -0.152949
C43   C     C_R   0.715024 0.014567 0.862787 -0.128970
C44   C     C_R   0.284923 0.513043 0.137362 -0.128698
C45   C     C_R   0.776325 0.055717 0.875651 0.352252
C46   C     C_R   0.223644 0.554489 0.124437 0.352043
C47   C     C_R   0.673676 0.142630 0.682800 -0.285214
C48   C     C_R   0.326300 0.642644 0.317217 -0.285403
C49   C     C_R   0.582287 0.074254 0.732799 0.357304
C50   C     C_R   0.417673 0.574029 0.267240 0.357297
C51   C     C_R   0.877394 0.079204 0.828422 -0.129072
C52   C     C_R   0.122580 0.579218 0.171606 -0.129122
H9    H     H_    0.692262 0.189452 0.638447 0.121653
H10   H     H_    0.307723 0.689711 0.361544 0.121704
H11   H     H_    0.785008 0.133181 0.646338 0.118806
H12   H     H_    0.214953 0.634025 0.353660 0.118791
H13   H     H_    0.892602 0.132561 0.660741 0.157061
H14   H     H_    0.107362 0.634077 0.339222 0.157063
O11   O     O_R   0.051730 0.724670 0.084120 -0.529940
O12   O     O_R   0.948270 0.224670 0.915880 -0.529846
O13   O     O_R   0.063080 0.393540 0.944820 -0.513810
O14   O     O_R   0.936920 0.893540 0.055180 -0.513922
C53   C     C_R   0.075147 0.561295 0.921213 0.825127
C54   C     C_R   0.924861 0.061290 0.078797 0.825095
O15   O     O_R   0.058800 0.395030 0.085390 -0.538698
O16   O     O_R   0.941200 0.895030 0.914610 -0.538745
O17   O     O_R   0.943980 0.223310 0.057440 -0.522367
O18   O     O_R   0.056020 0.723310 0.942560 -0.522483
C55   C     C_R   0.078493 0.565135 0.106324 0.846108
C56   C     C_R   0.921486 0.065148 0.893700 0.846134
O19   O     O_3   0.962360 0.556290 0.990650 -0.369536
O20   O     O_3   0.037640 0.056290 0.009350 -0.369633
V3    V     V_3+5 0.006980 0.281990 0.001730 1.652237
V4    V     V_3+5 0.993020 0.781990 0.998270 1.652036
S1    S     S_3+6 0.802688 0.078684 0.962157 -0.036049
O21   O     O_2   0.845219 0.242959 0.972609 -0.351678
O22   O     O_2   0.752252 0.114648 0.003221 -0.306343
O23   O     O_3   0.834569 0.870296 0.985924 -0.521012
H15   H     H_    0.800716 0.778622 0.981186 0.357464
S2    S     S_3+6 0.197327 0.577220 0.037908 -0.035853
O24   O     O_2   0.154909 0.741770 0.027359 -0.351977
O25   O     O_2   0.247809 0.612637 0.996860 -0.306121
O26   O     O_3   0.165308 0.368990 0.014203 -0.520656
H16   H     H_    0.199089 0.277044 0.019061 0.357347
I1    I     I_    0.837900 0.692898 0.259237 -0.371786
I2    I     I_    0.162033 0.193030 0.740747 -0.371747
S3    S     S_3+6 0.502764 0.103994 0.731115 0.101574
O27   O     O_2   0.470516 0.932806 0.699293 -0.328264
O28   O     O_2   0.487601 0.129739 0.801889 -0.220886
O29   O     O_3   0.478414 0.295733 0.685270 -0.499632
H17   H     H_    0.433875 0.293820 0.683261 0.353122
S4    S     S_3+6 0.497158 0.604321 0.268804 0.101665
O30   O     O_2   0.529589 0.433698 0.300850 -0.328338
O31   O     O_2   0.512238 0.629487 0.197968 -0.220867
O32   O     O_3   0.521344 0.796695 0.314364 -0.499498
H18   H     H_    0.565868 0.795429 0.316181 0.353411
S5    S     S_3+6 0.587207 0.841957 0.847013 0.168256
O33   O     O_2   0.571171 0.953577 0.906297 -0.201717
O34   O     O_2   0.531571 0.743554 0.812275 -0.228028
O35   O     O_3   0.638046 0.675326 0.876652 -0.466151
H19   H     H_    0.646800 0.606991 0.835605 0.333467
S6    S     S_3+6 0.412802 0.340739 0.153322 0.168157
O36   O     O_2   0.428710 0.451763 0.093838 -0.201692
O37   O     O_2   0.468523 0.242958 0.188152 -0.228234
O38   O     O_3   0.362040 0.173583 0.124005 -0.466237
H20   H     H_    0.353425 0.105536 0.165171 0.333452
I3    I     I_    0.999858 0.084692 0.770381 -0.360900
I4    I     I_    0.000103 0.586272 0.229594 -0.361005

loop_
_geom_bond_atom_site_label_1
_geom_bond_atom_site_label_2
_ccdc_geom_bond_type
C43   C45   A    
O14   V4    S    
C35   C39   A    
C11   H5    S    
C18   C24   T    
S1    O21   D    
O1    C3    A    
C54   O17   A    
O2    C4    A    
C2    O7    A    
S4    O31   D    
C49   S3    S    
S1    O23   S    
O5    C3    A    
O20   V3    S    
C5    C7    A    
C10   H4    S    
S5    O34   D    
C48   H10   S    
O32   H18   S    
C40   C42   A    
C46   S2    S    
C41   C43   A    
C30   C52   A    
O29   H17   S    
C27   C49   A    
C42   C44   A    
O16   V4    S    
C39   C47   A    
O15   V3    S    
C38   C46   A    
C29   C31   A    
C30   C32   A    
S3    O27   D    
C13   C15   A    
C26   C50   A    
C47   H9    S    
C9    C11   A    
C6    C16   A    
O5    V1    S    
C53   O18   A    
C25   C49   A    
S3    O28   D    
C33   H11   S    
H1    C15   S    
C32   H14   S    
C27   C47   A    
S4    O30   D    
O13   C53   A    
C32   C34   A    
C6    I2    S    
C33   C35   A    
C29   I3    S    
C1    C28   S    
O18   V4    S    
C39   C41   A    
C2    C27   S    
C11   C13   A    
C12   C14   A    
O11   V4    S    
O4    C2    A    
O16   C56   A    
S5    O35   S    
C28   C50   A    
O15   C55   A    
C26   C42   A    
C23   C54   S    
H7    C43   S    
S2    O26   S    
C37   C51   A    
C36   C40   A    
H8    C44   S    
C31   C33   A    
C44   C46   A    
O4    V2    S    
C31   H13   S    
C26   S6    S    
O19   V3    S    
O13   V3    S    
O6    C4    A    
O20   V4    S    
O1    V2    S    
C28   C48   A    
O2    V1    S    
H2    C16   S    
C50   S4    S    
C25   S5    S    
C34   H12   S    
C5    I1    S    
C6    C8    A    
C14   C20   S    
C7    C9    A    
C5    C15   A    
O38   H20   S    
S3    O29   S    
C8    C10   A    
C30   I4    S    
S6    O37   D    
O3    V1    S    
O35   H19   S    
C25   C41   A    
S2    O25   D    
O12   V3    S    
C24   C53   S    
C10   C12   A    
C37   C45   A    
O3    C1    A    
S1    O22   D    
C34   C36   A    
C7    C17   S    
C8    C18   S    
O14   C54   A    
S6    O38   S    
C35   C37   A    
O7    V1    S    
C1    O8    A    
C19   C21   T    
O8    V2    S    
S5    O33   D    
O19   V4    S    
C20   C22   T    
C52   C55   S    
C38   C52   A    
C51   C56   S    
C4    C21   S    
O17   V3    S    
C12   H6    S    
S2    O24   D    
C36   C38   A    
C9    H3    S    
O12   C56   A    
C3    C22   S    
C17   C23   T    
O11   C55   A    
C13   C19   S    
C45   S1    S    
C40   C48   A    
O6    V2    S    
O23   H15   S    
C29   C51   A    
O9    V2    S    
O26   H16   S    
O10   V1    S    
S6    O36   D    
S4    O32   S    
C14   C16   A    
