data_mof_unit_35893.cif
_audit_creation_date              2012-10-26T18:28:24-0400
_audit_creation_method            fapswitch 2.2
_symmetry_space_group_name_H-M    P1
_symmetry_Int_Tables_number       1
_space_group_crystal_system       triclinic
_cell_length_a                    27.7751
_cell_length_b                    11.00927
_cell_length_c                    9.80129
_cell_angle_alpha                 111.46735
_cell_angle_beta                  97.702858
_cell_angle_gamma                 91.000155
_cell_volume                      2756.79051914

loop_
_atom_site_label
_atom_site_type_symbol
_atom_type_description
_atom_site_fract_x
_atom_site_fract_y
_atom_site_fract_z
_atom_type_partial_charge
C1    C     C_R   0.496472 0.253829 0.440264 0.563644
C2    C     C_R   0.868137 0.375788 0.424783 0.028605
C3    C     C_R   0.354622 0.498189 0.505387 -0.019518
C4    C     C_R   0.645065 0.498681 0.493000 -0.016160
C5    C     C_R   0.969279 0.377406 0.408209 -0.009038
C6    C     C_R   0.028759 0.609521 0.562811 -0.012235
C7    C     C_R   0.977340 0.614964 0.542924 0.005215
C8    C     C_R   0.019584 0.379735 0.394394 0.003506
C9    C     C_R   0.947955 0.496105 0.477920 -0.028297
C10   C     C_R   0.049806 0.493289 0.483640 -0.028307
C11   C     C_R   0.940323 0.259130 0.361525 -0.112664
C12   C     C_R   0.503544 0.746171 0.559735 0.563846
C13   C     C_R   0.059559 0.714993 0.665662 -0.114124
C14   C     C_R   0.890631 0.256946 0.369908 0.258819
C15   C     C_R   0.110143 0.715829 0.674383 0.269909
C16   C     C_R   0.407469 0.499866 0.501831 0.556353
C17   C     C_R   0.592450 0.499835 0.498038 0.554936
C18   C     C_R   0.040830 0.272229 0.296311 0.116288
C19   C     C_R   0.954348 0.734783 0.587062 0.121675
C20   C     C_2   0.494552 0.114070 0.406378 -0.124788
C21   C     C_2   0.505503 0.885933 0.593619 -0.125088
C22   C     C_2   0.500941 0.069672 0.516419 -0.158936
C23   C     C_R   0.101160 0.491191 0.493280 -0.135017
C24   C     C_2   0.499176 0.930333 0.483574 -0.158518
C25   C     C_2   0.504258 0.510454 0.081257 -0.024772
C26   C     C_2   0.495743 0.489545 0.918744 -0.025832
C27   C     C_R   0.173328 0.379755 0.417054 0.389833
C28   C     C_R   0.824267 0.611719 0.537812 0.425299
C29   C     C_R   0.182280 0.599744 0.592018 0.439215
C30   C     C_R   0.817625 0.378509 0.428037 0.392945
C31   C     C_R   0.272217 0.490099 0.382305 -0.094547
C32   C     C_R   0.726373 0.469025 0.595396 -0.100632
C33   C     C_R   0.322196 0.493225 0.380347 -0.155504
C34   C     C_R   0.897089 0.495816 0.481208 -0.132485
C35   C     C_R   0.676566 0.471675 0.601108 -0.155346
C36   C     C_R   0.336122 0.499740 0.632592 -0.138246
C37   C     C_R   0.664152 0.524610 0.380031 -0.135811
C38   C     C_R   0.285730 0.494312 0.634481 0.190031
C39   C     C_R   0.714294 0.523176 0.374347 0.189793
C40   C     C_R   0.253639 0.490475 0.508378 0.259398
C41   C     C_R   0.745449 0.494654 0.482740 0.267776
C42   C     C_3   0.249493 0.367717 0.754856 -0.297959
C43   C     C_3   0.739618 0.442622 0.133086 -0.293859
C44   C     C_3   0.103925 0.051447 0.289555 -0.009805
C45   C     C_R   0.122210 0.376778 0.409485 0.006650
C46   C     C_3   0.146273 0.052695 0.406527 -0.348733
C47   C     C_3   0.899078 0.902450 0.823843 -0.012416
C48   C     C_3   0.864763 0.850702 0.902469 -0.342492
C49   C     C_3   0.869307 0.078937 0.420084 0.006253
C50   C     C_3   0.838663 0.949341 0.359263 -0.334129
C51   C     C_3   0.132330 0.935300 0.741200 -0.010694
C52   C     C_3   0.121038 0.048606 0.875830 -0.345971
C53   C     C_3   0.996471 0.232021 0.052687 -0.304779
C54   C     C_3   0.989935 0.858945 0.461376 -0.322151
C55   C     C_R   0.875297 0.615172 0.542659 0.002362
C56   C     C_R   0.091754 0.264714 0.316568 0.293237
C57   C     C_R   0.904670 0.734311 0.603281 0.283034
C58   C     C_R   0.131446 0.603474 0.587606 0.030172
Cu1   Cu    Cu3+1 0.508480 0.521810 0.644910 0.939127
Cu2   Cu    Cu3+1 0.491520 0.478190 0.355090 0.939864
H1    H     H_    0.360678 0.502809 0.729706 0.120028
H2    H     H_    0.335410 0.492434 0.280987 0.138761
H3    H     H_    0.750369 0.447952 0.679330 0.114919
H4    H     H_    0.247692 0.487730 0.285491 0.130868
H5    H     H_    0.955971 0.165671 0.322943 0.148840
H6    H     H_    0.044982 0.797454 0.744339 0.152373
H7    H     H_    0.492607 0.863667 0.368142 0.157375
H8    H     H_    0.507536 0.136339 0.631850 0.156924
H9    H     H_    0.290948 0.543254 0.860892 0.249392
H10   H     H_    0.234482 0.378049 0.857693 0.143352
H11   H     H_    0.279530 0.300900 0.743143 0.136627
H12   H     H_    0.640237 0.547005 0.296841 0.115246
H13   H     H_    0.219929 0.324323 0.659490 0.172092
H14   H     H_    0.715161 0.625184 0.235238 0.246116
H15   H     H_    0.756303 0.475780 0.054695 0.134155
H16   H     H_    0.703730 0.389630 0.076591 0.138598
H17   H     H_    0.764056 0.375057 0.163625 0.199348
H18   H     H_    0.101602 0.955871 0.195451 0.153018
H19   H     H_    0.069145 0.055696 0.335864 0.092271
H20   H     H_    0.148643 0.144949 0.505167 0.133878
H21   H     H_    0.140502 0.968993 0.441401 0.076495
H22   H     H_    0.180992 0.043241 0.360286 0.207637
H23   H     H_    0.512089 0.952842 0.708862 0.105150
H24   H     H_    0.897697 0.010397 0.863931 0.150965
H25   H     H_    0.937271 0.883442 0.857860 0.104262
H26   H     H_    0.865615 0.742896 0.867676 0.134418
H27   H     H_    0.876453 0.896102 0.024191 0.120455
H28   H     H_    0.826996 0.875880 0.876460 0.205971
H29   H     H_    0.856541 0.142684 0.524295 0.154635
H30   H     H_    0.907957 0.059064 0.445821 0.105352
H31   H     H_    0.851936 0.881319 0.258859 0.131146
H32   H     H_    0.841202 0.904038 0.443813 0.185077
H33   H     H_    0.799915 0.965538 0.330043 0.190321
H34   H     H_    0.487938 0.047160 0.291138 0.105714
H35   H     H_    0.103173 0.922864 0.645804 0.104970
H36   H     H_    0.167000 0.962099 0.710859 0.168804
H37   H     H_    0.150974 0.068246 0.970097 0.225340
H38   H     H_    0.117320 0.137993 0.849054 0.091191
H39   H     H_    0.086400 0.024620 0.908488 0.160437
H40   H     H_    0.025328 0.089441 0.122799 0.260480
H41   H     H_    0.973486 0.155735 0.957531 0.118417
H42   H     H_    0.028653 0.261585 0.012686 0.149707
H43   H     H_    0.974587 0.317566 0.096187 0.164862
H44   H     H_    0.965706 0.939270 0.663769 0.264011
H45   H     H_    0.467281 0.417423 0.845830 0.144250
H46   H     H_    0.010592 0.953037 0.482872 0.119817
H47   H     H_    0.955477 0.851760 0.385818 0.145644
H48   H     H_    0.012512 0.778152 0.406653 0.159640
H49   H     H_    0.532721 0.582574 0.154172 0.143441
H50   H     H_    0.548042 0.622349 0.934372 0.202392
H51   H     H_    0.451955 0.377657 0.065631 0.202035
H52   H     H_    0.662636 0.451320 0.689188 0.134443
N1    N     N_R   0.201863 0.489380 0.507641 -0.405807
N2    N     N_R   0.797039 0.495013 0.481872 -0.400831
N3    N     N_2   0.478780 0.445430 0.137360 -0.351984
N4    N     N_2   0.521220 0.554570 0.862640 -0.352229
N5    N     N_2   0.267532 0.494846 0.763702 -0.478834
N6    N     N_2   0.733481 0.554800 0.263028 -0.496489
N7    N     N_2   0.012044 0.180265 0.166203 -0.536143
N8    N     N_2   0.979410 0.854132 0.600116 -0.540150
O1    O     O_R   0.504520 0.332330 0.577400 -0.498091
O2    O     O_2   0.801599 0.723605 0.586710 -0.454634
O3    O     O_2   0.788894 0.266225 0.376468 -0.464762
O4    O     O_2   0.212130 0.706045 0.677362 -0.431521
O5    O     O_3   0.111822 0.151503 0.234269 -0.533041
O6    O     O_3   0.884040 0.851728 0.668045 -0.544222
O7    O     O_3   0.863808 0.137458 0.313038 -0.524198
O8    O     O_3   0.138686 0.822776 0.777929 -0.508843
O9    O     O_R   0.495480 0.667670 0.422600 -0.497647
O10   O     O_R   0.490210 0.295500 0.332650 -0.485657
O11   O     O_R   0.509790 0.704500 0.667350 -0.485680
O12   O     O_R   0.437420 0.518430 0.622370 -0.499324
O13   O     O_R   0.562580 0.481570 0.377630 -0.498563
O14   O     O_R   0.423110 0.481600 0.377610 -0.492382
O15   O     O_R   0.576890 0.518400 0.622390 -0.491784
O16   O     O_2   0.194726 0.274891 0.333491 -0.467777

loop_
_geom_bond_atom_site_label_1
_geom_bond_atom_site_label_2
_ccdc_geom_bond_type
Cu1   O1    S    
C23   C58   A    
C38   C40   A    
C23   C45   A    
C12   O11   A    
C54   N8    S    
C41   N2    S    
C16   O14   A    
C39   C41   A    
C19   C57   A    
Cu1   O11   S    
C54   H47   S    
C51   O8    S    
C47   H25   S    
C5    C11   A    
C25   N3    D    
C11   C14   A    
C28   O2    S    
C3    C33   A    
C29   O4    S    
C52   H37   S    
C42   H10   S    
C31   C40   A    
Cu1   O15   S    
H9    N5    S    
C29   N1    A    
C24   H7    S    
C46   H22   S    
C38   N5    S    
C40   N1    S    
C45   C56   A    
C53   H41   S    
Cu1   N4    S    
C1    C20   S    
C17   O15   A    
Cu2   O14   S    
C32   C41   A    
C48   H28   S    
C49   H30   S    
C25   H49   S    
C51   H36   S    
C2    C34   A    
C4    C35   A    
C34   C55   A    
H14   N6    S    
C26   H45   S    
C28   C55   A    
C44   C46   S    
C4    C37   A    
C1    O1    A    
C13   H6    S    
C43   H15   S    
C49   O7    S    
C44   O5    S    
C12   O9    A    
C54   H46   S    
C51   C52   S    
C32   C35   A    
C21   H23   S    
C1    O10   A    
Cu2   O10   S    
C57   O6    S    
C33   H2    S    
C25   C26   S    
C47   H24   S    
C12   C21   S    
C8    C18   A    
C14   O7    S    
C16   O12   A    
C44   H18   S    
C5    C9    A    
C46   H21   S    
C47   C48   S    
C53   H42   S    
C31   C33   A    
C48   H27   S    
C50   H33   S    
H40   N7    S    
C56   O5    S    
C29   C58   A    
C22   H8    S    
C28   N2    A    
C4    C17   S    
C27   N1    A    
C50   H32   S    
C20   C22   D    
C19   N8    S    
C7    C19   A    
C15   O8    S    
C13   C15   A    
C17   O13   A    
C9    C34   A    
C15   C58   A    
C48   H26   S    
C21   C24   D    
C27   O16   S    
C36   H1    S    
H50   N4    S    
C47   O6    S    
C30   N2    A    
C43   H16   S    
C7    C9    A    
C20   H34   S    
C42   H13   S    
C31   H4    S    
C44   H19   S    
C32   H3    S    
C49   H29   S    
Cu2   O9    S    
C6    C10   A    
C5    C8    A    
C53   N7    S    
C42   N5    S    
C6    C7    A    
C18   C56   A    
C10   C23   A    
C43   H17   S    
C39   N6    S    
C52   H39   S    
C54   H48   S    
C2    C30   A    
C55   C57   A    
C37   C39   A    
C36   C38   A    
C46   H20   S    
Cu1   O12   S    
C27   C45   A    
C3    C36   A    
C53   H43   S    
Cu2   O13   S    
C52   H38   S    
C42   H11   S    
C22   C24   S    
C2    C14   A    
C26   N4    D    
C3    C16   S    
C43   N6    S    
C50   H31   S    
Cu1   Cu2   S    
C30   O3    S    
C8    C10   A    
C49   C50   S    
C37   H12   S    
Cu2   N3    S    
H51   N3    S    
H44   N8    S    
C18   N7    S    
C35   H52   S    
C11   H5    S    
C51   H35   S    
C6    C13   A    
