data_mof_unit_33437.cif
_audit_creation_date              2012-10-26T18:58:04-0400
_audit_creation_method            fapswitch 2.2
_symmetry_space_group_name_H-M    P1
_symmetry_Int_Tables_number       1
_space_group_crystal_system       triclinic
_cell_length_a                    15.149
_cell_length_b                    14.139515
_cell_length_c                    15.923463
_cell_angle_alpha                 90.941683
_cell_angle_beta                  94.851534
_cell_angle_gamma                 89.862477
_cell_volume                      3398.11702859

loop_
_atom_site_label
_atom_site_type_symbol
_atom_type_description
_atom_site_fract_x
_atom_site_fract_y
_atom_site_fract_z
_atom_type_partial_charge
C1    C     C_R   0.330295 0.500226 0.500058 0.530033
C2    C     C_R   0.432287 0.791692 0.456843 0.111417
C3    C     C_R   0.468330 0.204760 0.427930 0.112357
C4    C     C_R   0.568394 0.792765 0.542035 0.112305
C5    C     C_R   0.501413 0.052094 0.498028 0.037629
C6    C     C_R   0.501513 0.943837 0.497687 0.014743
C7    C     C_R   0.500695 0.499264 0.341855 0.542510
C8    C     C_R   0.499274 0.500796 0.658295 0.543010
C9    C     C_R   0.494108 0.587445 0.959420 0.010270
C10   C     C_R   0.502145 0.410585 0.042136 0.009941
C11   C     C_R   0.510665 0.584703 0.048150 0.011062
C12   C     C_R   0.669634 0.500065 0.499583 0.530334
C13   C     C_R   0.497593 0.412925 0.952991 0.011194
C14   C     C_R   0.493923 0.501510 0.912576 0.021322
C15   C     C_R   0.508537 0.496683 0.088432 0.021271
C16   C     C_1   0.493873 0.503475 0.822286 -0.083527
C17   C     C_1   0.507300 0.495995 0.178470 -0.082638
C18   C     C_1   0.504356 0.497242 0.253276 -0.054386
C19   C     C_1   0.496098 0.502788 0.747227 -0.056175
C20   C     C_R   0.097257 0.585421 0.519004 -0.124574
C21   C     C_R   0.907303 0.421820 0.523680 -0.122001
C22   C     C_R   0.901223 0.582689 0.473026 -0.125608
C23   C     C_R   0.048409 0.502762 0.498126 0.034843
C24   C     C_R   0.093313 0.419499 0.477979 -0.122506
C25   C     C_R   0.189107 0.584837 0.518992 -0.135738
C26   C     C_R   0.815599 0.420441 0.522319 -0.137058
C27   C     C_R   0.809471 0.582095 0.474000 -0.136370
C28   C     C_R   0.185094 0.418363 0.480312 -0.136656
C29   C     C_R   0.233667 0.501097 0.499922 0.013684
C30   C     C_R   0.766076 0.500760 0.498506 0.014713
C31   C     C_3   0.536317 0.673403 0.100933 -0.255005
C32   C     C_3   0.636078 0.671127 0.128692 -0.289082
C33   C     C_3   0.665345 0.756487 0.183718 -0.464453
C34   C     C_R   0.951110 0.502633 0.498365 0.034814
C35   C     C_3   0.488067 0.321971 0.900083 -0.252649
C36   C     C_3   0.389561 0.299562 0.878768 -0.292256
C37   C     C_3   0.376818 0.205663 0.831242 -0.466667
C38   C     C_3   0.465155 0.679451 0.916395 -0.252413
C39   C     C_3   0.371141 0.704864 0.939191 -0.295773
C40   C     C_3   0.340173 0.800083 0.904524 -0.467688
C41   C     C_3   0.507159 0.317131 0.088883 -0.252780
C42   C     C_3   0.604308 0.287583 0.107192 -0.293449
C43   C     C_3   0.612073 0.192244 0.150230 -0.466388
C44   C     C_3   0.501270 0.023524 0.688635 -0.005871
C45   C     C_R   0.531999 0.104210 0.569867 0.205204
C46   C     C_3   0.539356 0.019243 0.780771 -0.258839
C47   C     C_3   0.481999 0.959444 0.833110 -0.501399
C48   C     C_3   0.300862 0.954351 0.516432 0.011748
C49   C     C_3   0.219388 0.014525 0.491151 -0.242701
C50   C     C_3   0.167882 0.038591 0.567008 -0.497039
C51   C     C_3   0.497756 0.019381 0.306045 -0.004531
C52   C     C_3   0.456789 0.011925 0.214713 -0.258736
C53   C     C_3   0.512279 0.950181 0.160182 -0.501014
C54   C     C_3   0.698455 0.958677 0.475743 0.016816
C55   C     C_3   0.744165 0.872403 0.438663 -0.285453
C56   C     C_R   0.425619 0.891161 0.468968 0.212904
C57   C     C_3   0.790838 0.898817 0.361165 -0.492078
C58   C     C_3   0.568817 0.248884 0.656678 -0.168711
C59   C     C_3   0.660524 0.295174 0.656925 -0.269006
C60   C     C_3   0.710571 0.296345 0.744483 -0.487584
C61   C     C_3   0.365578 0.746333 0.391864 -0.185924
C62   C     C_3   0.376204 0.784106 0.303374 -0.308266
C63   C     C_3   0.319899 0.728621 0.235495 -0.478912
C64   C     C_3   0.432533 0.246362 0.342882 -0.168062
C65   C     C_3   0.340360 0.292133 0.342972 -0.265775
C66   C     C_3   0.289175 0.288057 0.255980 -0.488130
C67   C     C_R   0.470079 0.102966 0.427051 0.206544
C68   C     C_3   0.634731 0.749145 0.607090 -0.187701
C69   C     C_3   0.627588 0.793745 0.694802 -0.309924
C70   C     C_3   0.683028 0.740138 0.763050 -0.475811
C71   C     C_R   0.576939 0.891128 0.527234 0.233282
C72   C     C_R   0.532702 0.206009 0.570984 0.114863
Cu1   Cu    Cu3+1 0.500000 0.596430 0.500000 0.882113
Cu2   Cu    Cu3+1 0.500000 0.403570 0.500000 0.901227
H1    H     H_    0.064819 0.650227 0.536534 0.098372
H2    H     H_    0.625714 0.762213 0.239204 0.154904
H3    H     H_    0.736194 0.748464 0.206632 0.141672
H4    H     H_    0.653062 0.606217 0.164984 0.172712
H5    H     H_    0.674179 0.669859 0.071978 0.157719
H6    H     H_    0.521319 0.739985 0.067334 0.136325
H7    H     H_    0.497329 0.677533 0.156908 0.146696
H8    H     H_    0.409974 0.207299 0.771791 0.143121
H9    H     H_    0.404559 0.147450 0.871244 0.151134
H10   H     H_    0.305062 0.192408 0.815580 0.140315
H11   H     H_    0.355202 0.296150 0.937629 0.155740
H12   H     H_    0.943748 0.359677 0.545371 0.099750
H13   H     H_    0.358168 0.356565 0.839251 0.171943
H14   H     H_    0.521294 0.328304 0.841021 0.135379
H15   H     H_    0.522644 0.261579 0.931889 0.132503
H16   H     H_    0.380929 0.857395 0.936313 0.149944
H17   H     H_    0.344570 0.801746 0.835299 0.151346
H18   H     H_    0.270123 0.812066 0.917521 0.140159
H19   H     H_    0.324285 0.649306 0.912979 0.165081
H20   H     H_    0.368221 0.707292 0.008691 0.158404
H21   H     H_    0.513089 0.737201 0.933332 0.128844
H22   H     H_    0.463292 0.673741 0.846742 0.151210
H23   H     H_    0.932767 0.645386 0.451472 0.098432
H24   H     H_    0.581029 0.195685 0.210876 0.142234
H25   H     H_    0.579272 0.136834 0.108478 0.151872
H26   H     H_    0.683010 0.173257 0.163218 0.139724
H27   H     H_    0.637236 0.282820 0.047477 0.155358
H28   H     H_    0.639761 0.341602 0.148821 0.169240
H29   H     H_    0.475402 0.323016 0.149041 0.136404
H30   H     H_    0.468601 0.260601 0.053580 0.132787
H31   H     H_    0.479799 0.951613 0.666554 0.134804
H32   H     H_    0.441949 0.070700 0.685344 0.094599
H33   H     H_    0.607187 0.988850 0.784679 0.180154
H34   H     H_    0.057685 0.355088 0.459827 0.098933
H35   H     H_    0.544291 0.091763 0.808526 0.137691
H36   H     H_    0.412162 0.984095 0.826125 0.142535
H37   H     H_    0.507120 0.964837 0.900586 0.137671
H38   H     H_    0.484723 0.884226 0.812587 0.144484
H39   H     H_    0.342777 0.993930 0.565958 0.109909
H40   H     H_    0.279196 0.886417 0.542620 0.113960
H41   H     H_    0.240615 0.081295 0.462893 0.179444
H42   H     H_    0.175411 0.975426 0.443134 0.163831
H43   H     H_    0.144936 0.972880 0.595629 0.142866
H44   H     H_    0.109140 0.082165 0.546495 0.142434
H45   H     H_    0.225211 0.649552 0.535167 0.119232
H46   H     H_    0.210214 0.079474 0.615040 0.142432
H47   H     H_    0.519943 0.948134 0.327461 0.139359
H48   H     H_    0.556743 0.066716 0.307798 0.092977
H49   H     H_    0.389120 0.981561 0.212811 0.180238
H50   H     H_    0.450464 0.083495 0.187248 0.137974
H51   H     H_    0.582131 0.974694 0.165372 0.141595
H52   H     H_    0.485264 0.953577 0.093255 0.137527
H53   H     H_    0.509585 0.875713 0.180477 0.145515
H54   H     H_    0.749598 0.013063 0.494042 0.155678
H55   H     H_    0.651752 0.991517 0.426964 0.100694
H56   H     H_    0.783825 0.356810 0.540889 0.111507
H57   H     H_    0.793595 0.843194 0.486994 0.159527
H58   H     H_    0.694469 0.816649 0.419915 0.154468
H59   H     H_    0.742071 0.925754 0.311115 0.141376
H60   H     H_    0.823895 0.835302 0.336365 0.142935
H61   H     H_    0.841808 0.953858 0.377839 0.144728
H62   H     H_    0.671892 0.335397 0.790112 0.143737
H63   H     H_    0.723170 0.223074 0.766678 0.159937
H64   H     H_    0.775321 0.332333 0.741718 0.142835
H65   H     H_    0.700743 0.255388 0.613048 0.160172
H66   H     H_    0.654344 0.369450 0.638025 0.203275
H67   H     H_    0.772485 0.644734 0.454334 0.118997
H68   H     H_    0.518739 0.288916 0.688467 0.137515
H69   H     H_    0.577993 0.194553 0.705142 0.159676
H70   H     H_    0.341156 0.653379 0.234298 0.153721
H71   H     H_    0.248833 0.732495 0.247601 0.155545
H72   H     H_    0.328151 0.759222 0.172843 0.137250
H73   H     H_    0.355669 0.859281 0.300248 0.220319
H74   H     H_    0.446823 0.778833 0.289648 0.151355
H75   H     H_    0.373416 0.670094 0.386562 0.209073
H76   H     H_    0.297217 0.759965 0.409589 0.133719
H77   H     H_    0.326981 0.324304 0.209121 0.142492
H78   H     H_    0.217685 0.352786 0.466073 0.113340
H79   H     H_    0.276801 0.213471 0.235343 0.159891
H80   H     H_    0.224298 0.324184 0.258867 0.142492
H81   H     H_    0.301101 0.254723 0.387974 0.156127
H82   H     H_    0.346037 0.367531 0.360594 0.202123
H83   H     H_    0.482620 0.286062 0.312060 0.137410
H84   H     H_    0.424442 0.191362 0.293330 0.157303
H85   H     H_    0.658826 0.666290 0.766494 0.155661
H86   H     H_    0.753769 0.739261 0.749533 0.155228
H87   H     H_    0.677418 0.775581 0.825136 0.141006
H88   H     H_    0.650994 0.867973 0.695709 0.223367
H89   H     H_    0.658270 0.821972 0.146350 0.146434
H90   H     H_    0.557302 0.792898 0.709875 0.151585
H91   H     H_    0.623623 0.673851 0.614440 0.209300
H92   H     H_    0.703020 0.757679 0.587876 0.136930
N1    N     N_R   0.500000 0.258690 0.500000 -0.252236
N2    N     N_R   0.500000 0.741310 0.500000 -0.279158
O1    O     O_R   0.371460 0.581430 0.500010 -0.524599
O2    O     O_3   0.346910 0.936566 0.444432 -0.538726
O3    O     O_3   0.432171 0.053023 0.357309 -0.544562
O4    O     O_3   0.657462 0.935127 0.549310 -0.542686
O5    O     O_R   0.628540 0.418570 0.499990 -0.506798
O6    O     O_R   0.628540 0.581430 0.499990 -0.525572
O7    O     O_R   0.371460 0.418570 0.500010 -0.506283
O8    O     O_R   0.499980 0.581410 0.380310 -0.503854
O9    O     O_R   0.500020 0.418590 0.619690 -0.506558
O10   O     O_R   0.500020 0.581410 0.619690 -0.504799
O11   O     O_R   0.499980 0.418590 0.380310 -0.508552
O12   O     O_3   0.568455 0.055143 0.639271 -0.548679

loop_
_geom_bond_atom_site_label_1
_geom_bond_atom_site_label_2
_ccdc_geom_bond_type
C21   C26   A    
C42   H27   S    
C50   H43   S    
Cu1   Cu2   S    
C35   C36   S    
C43   H24   S    
C5    C67   A    
C58   C72   S    
C44   O12   S    
C3    N1    A    
C31   H6    S    
C44   H31   S    
C50   H46   S    
C48   H40   S    
C36   C37   S    
C33   H89   S    
C43   H25   S    
C13   C35   S    
C65   H82   S    
C10   C15   A    
C38   C39   S    
C52   H49   S    
C20   C25   A    
C47   H38   S    
C42   H28   S    
C70   H85   S    
C41   C42   S    
Cu1   O6    S    
C39   H19   S    
C53   H53   S    
C45   O12   S    
C46   C47   S    
C11   C15   A    
C58   H69   S    
C1    O7    A    
Cu2   O11   S    
C68   C69   S    
C64   H84   S    
C64   H83   S    
C63   H70   S    
C69   H90   S    
C37   H10   S    
C24   H34   S    
C61   H76   S    
C60   H62   S    
C63   H72   S    
C26   H56   S    
C2    C61   S    
C60   H63   S    
C56   O2    S    
C68   H91   S    
C23   C34   S    
C11   C31   S    
C59   C60   S    
C22   H23   S    
C62   H74   S    
C13   C14   A    
C7    O8    A    
C10   C41   S    
C57   H59   S    
C61   C62   S    
Cu1   N2    S    
C25   H45   S    
Cu2   N1    S    
C44   C46   S    
C36   H13   S    
C25   C29   A    
C6    C71   A    
C22   C34   A    
C8    C19   S    
C51   C52   S    
C54   O4    S    
C69   H88   S    
Cu2   O5    S    
C39   C40   S    
C66   H80   S    
C27   C30   A    
C21   C34   A    
C67   O3    S    
C58   C59   S    
C3    C64   S    
C54   H54   S    
C40   H18   S    
C4    C68   S    
C4    N2    A    
C20   H1    S    
C48   H39   S    
C38   H21   S    
C9    C14   A    
C39   H20   S    
C62   C63   S    
C8    O10   A    
C35   H14   S    
C58   H68   S    
C33   H2    S    
C31   C32   S    
C55   H58   S    
C20   C23   A    
C59   H65   S    
C23   C24   A    
C7    C18   S    
C46   H33   S    
C1    C29   S    
C17   C18   T    
C7    O11   A    
C43   H26   S    
C9    C11   A    
C53   H51   S    
C48   O2    S    
Cu1   O10   S    
C35   H15   S    
C48   C49   S    
C49   H41   S    
C28   H78   S    
C55   H57   S    
C22   C27   A    
C55   C57   S    
C51   H47   S    
C72   N1    A    
C14   C16   S    
C37   H8    S    
C42   C43   S    
Cu1   O1    S    
C70   H87   S    
C2    N2    A    
C52   C53   S    
C12   O6    A    
C15   C17   S    
C54   H55   S    
C54   C55   S    
C28   C29   A    
C12   C30   S    
C50   H44   S    
C3    C67   A    
C24   C28   A    
C6    C56   A    
C10   C13   A    
C21   H12   S    
C66   H79   S    
C26   C30   A    
C44   H32   S    
C36   H11   S    
C47   H36   S    
C31   H7    S    
C41   H30   S    
C62   H73   S    
C64   C65   S    
Cu1   O8    S    
C51   O3    S    
C37   H9    S    
Cu2   O7    S    
C65   H81   S    
C2    C56   A    
C32   C33   S    
C32   H5    S    
C52   H50   S    
C33   H3    S    
C5    C6    S    
Cu2   O9    S    
C5    C45   A    
C59   H66   S    
C16   C19   T    
C47   H37   S    
C1    O1    A    
C9    C38   S    
C27   H67   S    
C8    O9    A    
C70   H86   S    
C65   C66   S    
C40   H17   S    
C69   C70   S    
C57   H60   S    
C53   H52   S    
C32   H4    S    
C41   H29   S    
C66   H77   S    
C49   H42   S    
C49   C50   S    
C46   H35   S    
C38   H22   S    
C51   H48   S    
C71   O4    S    
C57   H61   S    
C40   H16   S    
C61   H75   S    
C63   H71   S    
C4    C71   A    
C60   H64   S    
C12   O5    A    
C45   C72   A    
C68   H92   S    
