data_mof_unit_32729.cif
_audit_creation_date              2012-12-10T17:58:44-0500
_audit_creation_method            fapswitch 2.2
_symmetry_space_group_name_H-M    P1
_symmetry_Int_Tables_number       1
_space_group_crystal_system       triclinic
_cell_length_a                    16.137344
_cell_length_b                    14.948752
_cell_length_c                    9.631828
_cell_angle_alpha                 89.999791
_cell_angle_beta                  88.698734
_cell_angle_gamma                 90.000156
_cell_volume                      2322.91702461

loop_
_atom_site_label
_atom_site_type_symbol
_atom_type_description
_atom_site_fract_x
_atom_site_fract_y
_atom_site_fract_z
_atom_type_partial_charge
C1    C     C_R   0.121179 0.384051 0.498748 0.785245
C2    C     C_R   0.001087 0.578697 0.926841 0.463202
C3    C     C_R   0.998892 0.578697 0.073160 0.463219
C4    C     C_R   0.001108 0.421303 0.926840 0.463218
C5    C     C_R   0.498880 0.921304 0.073162 0.463226
C6    C     C_R   0.501120 0.078696 0.926838 0.463226
C7    C     C_R   0.498924 0.078698 0.073156 0.463194
C8    C     C_R   0.501075 0.921302 0.926843 0.463193
C9    C     C_R   0.769144 0.298330 0.378043 -0.078506
C10   C     C_R   0.230856 0.701670 0.621957 -0.078506
C11   C     C_R   0.214360 0.726079 0.373225 -0.088621
C12   C     C_R   0.878821 0.615949 0.501251 0.785245
C13   C     C_R   0.785640 0.273921 0.626775 -0.088620
C14   C     C_R   0.230872 0.298352 0.621953 -0.078496
C15   C     C_R   0.769128 0.701648 0.378047 -0.078496
C16   C     C_R   0.785625 0.726058 0.626778 -0.088632
C17   C     C_R   0.214375 0.273942 0.373221 -0.088632
C18   C     C_R   0.269128 0.798351 0.378047 -0.078494
C19   C     C_R   0.730871 0.201649 0.621953 -0.078494
C20   C     C_R   0.714379 0.226054 0.373220 -0.088642
C21   C     C_R   0.285620 0.773946 0.626780 -0.088642
C22   C     C_R   0.730856 0.798330 0.621957 -0.078508
C23   C     C_R   0.878823 0.384047 0.501251 0.785228
C24   C     C_R   0.269144 0.201670 0.378043 -0.078508
C25   C     C_R   0.285645 0.226083 0.626774 -0.088610
C26   C     C_R   0.714355 0.773917 0.373226 -0.088610
C27   C     C_R   0.190762 0.680482 0.496923 -0.133248
C28   C     C_R   0.809238 0.319518 0.503077 -0.133248
C29   C     C_R   0.809228 0.680469 0.503079 -0.133259
C30   C     C_R   0.190772 0.319531 0.496921 -0.133259
C31   C     C_R   0.690774 0.180466 0.496920 -0.133263
C32   C     C_R   0.309226 0.819533 0.503080 -0.133263
C33   C     C_R   0.309240 0.180485 0.503077 -0.133244
C34   C     C_R   0.121177 0.615953 0.498749 0.785228
C35   C     C_R   0.690760 0.819515 0.496923 -0.133244
C36   C     C_1   0.778979 0.353627 0.254419 0.331222
C37   C     C_1   0.221021 0.646373 0.745581 0.331222
C38   C     C_1   0.188320 0.696814 0.237342 0.316048
C39   C     C_1   0.811680 0.303186 0.762658 0.316048
C40   C     C_1   0.221036 0.353653 0.745570 0.331245
C41   C     C_1   0.778964 0.646347 0.254430 0.331245
C42   C     C_1   0.811653 0.696781 0.762662 0.316092
C43   C     C_1   0.188347 0.303219 0.237338 0.316092
C44   C     C_1   0.278961 0.853655 0.254431 0.331261
C45   C     C_R   0.621176 0.884045 0.498749 0.785221
C46   C     C_1   0.721039 0.146345 0.745569 0.331261
C47   C     C_1   0.688359 0.196771 0.237336 0.316118
C48   C     C_1   0.311640 0.803229 0.762664 0.316118
C49   C     C_1   0.721018 0.853624 0.745582 0.331206
C50   C     C_1   0.278982 0.146375 0.254418 0.331206
C51   C     C_1   0.311693 0.196825 0.762657 0.316022
C52   C     C_1   0.688307 0.803175 0.237343 0.316022
C53   C     C_R   0.378824 0.115955 0.501251 0.785221
C54   C     C_R   0.378819 0.884052 0.501252 0.785251
C55   C     C_R   0.621181 0.115948 0.498748 0.785251
C56   C     C_R   0.998913 0.421303 0.073158 0.463202
Cu1   Cu    Cu3+1 0.000000 0.500000 0.640660 0.972153
Cu2   Cu    Cu3+1 0.000000 0.500000 0.359340 0.972153
Cu3   Cu    Cu3+1 0.500000 0.000000 0.640660 0.972153
Cu4   Cu    Cu3+1 0.500000 0.000000 0.359340 0.972153
H1    H     H_    0.002226 0.343921 0.234253 0.369918
H2    H     H_    0.997774 0.656079 0.765747 0.369918
H3    H     H_    0.002230 0.656081 0.234246 0.369910
H4    H     H_    0.997770 0.343919 0.765754 0.369910
H5    H     H_    0.502231 0.843917 0.234244 0.369906
H6    H     H_    0.497769 0.156083 0.765756 0.369906
H7    H     H_    0.502225 0.156078 0.234255 0.369921
H8    H     H_    0.497775 0.843922 0.765745 0.369921
N1    N     N_R   0.000000 0.500000 0.852070 -0.353419
N2    N     N_1   0.786242 0.602375 0.156071 -0.216394
N3    N     N_1   0.830509 0.674017 0.872226 -0.201896
N4    N     N_1   0.169491 0.325982 0.127774 -0.201895
N5    N     N_1   0.286237 0.897629 0.156074 -0.216386
N6    N     N_1   0.713763 0.102371 0.843926 -0.216386
N7    N     N_1   0.669510 0.174001 0.127772 -0.201875
N8    N     N_1   0.330490 0.825999 0.872228 -0.201875
N9    N     N_1   0.713737 0.897590 0.843948 -0.216410
N10   N     N_1   0.286263 0.102410 0.156052 -0.216410
N11   N     N_1   0.330565 0.174077 0.872220 -0.201951
N12   N     N_R   0.000000 0.500000 0.147930 -0.353419
N13   N     N_1   0.669435 0.825923 0.127780 -0.201951
N14   N     N_R   0.500000 0.000000 0.852070 -0.353419
N15   N     N_R   0.500000 0.000000 0.147930 -0.353419
N16   N     N_1   0.786257 0.397594 0.156055 -0.216402
N17   N     N_1   0.213743 0.602406 0.843945 -0.216402
N18   N     N_1   0.169455 0.674060 0.127778 -0.201930
N19   N     N_1   0.830545 0.325940 0.872222 -0.201930
N20   N     N_1   0.213758 0.397625 0.843929 -0.216394
O1    O     O_R   0.090170 0.409820 0.618740 -0.588848
O2    O     O_R   0.409830 0.090180 0.381260 -0.588893
O3    O     O_R   0.409830 0.090180 0.618740 -0.603901
O4    O     O_R   0.590170 0.909820 0.381260 -0.603901
O5    O     O_R   0.409830 0.909820 0.381260 -0.588833
O6    O     O_R   0.590170 0.090180 0.618740 -0.588833
O7    O     O_R   0.590170 0.090180 0.381260 -0.603885
O8    O     O_R   0.409830 0.909820 0.618740 -0.603885
O9    O     O_3   0.992996 0.338400 0.134988 -0.663592
O10   O     O_3   0.007004 0.661600 0.865012 -0.663592
O11   O     O_3   0.992954 0.661597 0.134992 -0.663574
O12   O     O_R   0.909830 0.590180 0.381260 -0.588848
O13   O     O_3   0.007046 0.338403 0.865008 -0.663573
O14   O     O_3   0.492931 0.838405 0.134997 -0.663565
O15   O     O_3   0.507069 0.161595 0.865003 -0.663565
O16   O     O_3   0.493020 0.161602 0.134983 -0.663599
O17   O     O_3   0.506980 0.838398 0.865017 -0.663599
O18   O     O_R   0.909830 0.590180 0.618740 -0.603889
O19   O     O_R   0.090170 0.409820 0.381260 -0.603889
O20   O     O_R   0.909830 0.409820 0.381260 -0.588878
O21   O     O_R   0.090170 0.590180 0.618740 -0.588878
O22   O     O_R   0.090170 0.590180 0.381260 -0.603896
O23   O     O_R   0.909830 0.409820 0.618740 -0.603896
O24   O     O_R   0.590170 0.909820 0.618740 -0.588893

loop_
_geom_bond_atom_site_label_1
_geom_bond_atom_site_label_2
_ccdc_geom_bond_type
C10   C27   A    
C7    N15   A    
C11   C18   A    
C43   N4    T    
C6    N14   A    
C12   C29   S    
C48   N8    T    
Cu3   N14   S    
C39   N19   T    
C19   C31   A    
C8    O17   S    
C25   C51   S    
C19   C46   S    
C22   C35   A    
Cu1   O1    S    
C38   N18   T    
C10   C37   S    
C8    N14   A    
C56   O9    S    
C37   N17   T    
C26   C52   S    
C5    N15   A    
Cu4   N15   S    
Cu2   O19   S    
C45   O4    A    
C1    C30   S    
C54   O5    A    
H3    O11   S    
H2    O10   S    
Cu1   O21   S    
C53   O3    A    
C9    C36   S    
C1    O1    A    
C13   C28   A    
Cu3   O6    S    
C2    N1    A    
C54   O8    A    
Cu2   N12   S    
C21   C48   S    
Cu4   O5    S    
Cu1   O18   S    
Cu3   Cu4   S    
C10   C21   A    
C4    C56   A    
C33   C53   S    
C17   C30   A    
C44   N5    T    
H5    O14   S    
C14   C30   A    
C55   O6    A    
C3    N12   A    
C50   N10   T    
C32   C54   S    
C4    N1    A    
H7    O16   S    
C15   C29   A    
Cu4   O4    S    
C27   C34   S    
C24   C50   S    
H4    O13   S    
C21   C32   A    
C45   O24   A    
C17   C24   A    
C12   O12   A    
C13   C19   A    
Cu2   O12   S    
C15   C41   S    
C55   O7    A    
C15   C26   A    
C16   C29   A    
C23   C28   S    
C11   C38   S    
C17   C43   S    
C18   C44   S    
C9    C20   A    
C11   C27   A    
C4    O13   S    
Cu3   O24   S    
Cu3   O3    S    
C6    O15   S    
C1    O19   A    
C22   C49   S    
C7    O16   S    
C34   O22   A    
C18   C32   A    
H8    O17   S    
C35   C45   S    
C16   C42   S    
C46   N6    T    
C5    O14   S    
C16   C22   A    
Cu2   O22   S    
H6    O15   S    
H1    O9    S    
C5    C8    A    
C6    C7    A    
Cu4   O2    S    
C23   O23   A    
C24   C33   A    
C56   N12   A    
C31   C55   S    
C40   N20   T    
C2    C3    A    
C47   N7    T    
C12   O18   A    
Cu1   Cu2   S    
Cu1   O23   S    
C36   N16   T    
C23   O20   A    
C42   N3    T    
C49   N9    T    
Cu2   O20   S    
C14   C25   A    
C52   N13   T    
C51   N11   T    
C13   C39   S    
C20   C47   S    
C14   C40   S    
Cu4   O7    S    
C3    O11   S    
C26   C35   A    
C2    O10   S    
Cu3   O8    S    
C53   O2    A    
C34   O21   A    
Cu1   N1    S    
C9    C28   A    
C25   C33   A    
C41   N2    T    
C20   C31   A    
