data_mof_unit_12348.cif
_audit_creation_date              2012-12-11T15:41:21-0500
_audit_creation_method            fapswitch 2.2
_symmetry_space_group_name_H-M    P1
_symmetry_Int_Tables_number       1
_space_group_crystal_system       triclinic
_cell_length_a                    15.005129
_cell_length_b                    15.17146
_cell_length_c                    14.92162
_cell_angle_alpha                 109.217595
_cell_angle_beta                  109.84476
_cell_angle_gamma                 109.769856
_cell_volume                      2601.27228533

loop_
_atom_site_label
_atom_site_type_symbol
_atom_type_description
_atom_site_fract_x
_atom_site_fract_y
_atom_site_fract_z
_atom_type_partial_charge
C1    C     C_R   0.210609 0.020842 0.932124 -0.162849
C2    C     C_R   0.803192 0.004850 0.097223 -0.129102
C3    C     C_R   0.866819 0.303649 0.303263 0.049649
C4    C     C_R   0.224399 0.676126 0.674012 0.035852
C5    C     C_R   0.502482 0.048705 0.326997 0.049317
C6    C     C_R   0.501366 0.061278 0.696381 0.048779
C7    C     C_R   0.497427 0.321511 0.044200 0.054018
C8    C     C_R   0.505927 0.690342 0.037416 0.059348
C9    C     C_R   0.161873 0.130759 0.729915 0.204257
C10   C     C_R   0.818315 0.903385 0.358316 0.200662
C11   C     C_R   0.265753 0.228671 0.794508 0.146190
C12   C     C_R   0.716623 0.803832 0.300151 0.135278
C13   C     C_R   0.287428 0.312245 0.892322 0.026827
C14   C     C_R   0.701119 0.710837 0.216554 0.051321
C15   C     C_R   0.200611 0.306767 0.910841 -0.197702
C16   C     C_R   0.788422 0.715006 0.199510 -0.197470
C17   C     C_R   0.095188 0.217872 0.837926 -0.201349
C18   C     C_R   0.888649 0.810660 0.259642 -0.189080
C19   C     C_R   0.076562 0.128879 0.750957 -0.151710
C20   C     C_R   0.903160 0.904235 0.336583 -0.155919
C21   C     C_R   0.410184 0.502052 0.973665 -0.230943
C22   C     C_R   0.581963 0.516423 0.139709 -0.250312
C23   C     C_R   0.804241 0.210806 0.301293 -0.151064
C24   C     C_R   0.250704 0.777880 0.685088 -0.115639
C25   C     C_R   0.505604 0.601093 0.051725 0.046748
C26   C     C_R   0.488243 0.416154 0.057195 0.057414
C27   C     C_R   0.592700 0.610080 0.137954 0.060633
C28   C     C_R   0.397981 0.409790 0.975952 0.045081
C29   C     C_R   0.031861 0.478478 0.377538 -0.169877
C30   C     C_R   0.128979 0.475887 0.571613 -0.161740
C31   C     C_R   0.123358 0.571940 0.470391 -0.166521
C32   C     C_R   0.036778 0.382720 0.479107 -0.176180
C33   C     C_R   0.164441 0.573702 0.570787 0.141820
C34   C     C_R   0.981632 0.386610 0.384969 0.140254
C35   C     C_R   0.603326 0.150608 0.622684 -0.173034
C36   C     C_R   0.405156 0.059732 0.431378 -0.170155
C37   C     C_R   0.603855 0.149593 0.530073 -0.172459
C38   C     C_R   0.404505 0.060451 0.524149 -0.176392
C39   C     C_R   0.504154 0.092608 0.430729 0.145942
C40   C     C_R   0.503079 0.095414 0.616096 0.144184
C41   C     C_R   0.083905 0.003817 0.108651 -0.171355
C42   C     C_R   0.026193 0.140818 0.048711 -0.169539
C43   C     C_R   0.018549 0.035122 0.140198 -0.170595
C44   C     C_R   0.093574 0.111307 0.019202 -0.182378
C45   C     C_R   0.410016 0.969647 0.224762 -0.122445
C46   C     C_R   0.592313 0.091648 0.790730 -0.121814
C47   C     C_R   0.977738 0.091161 0.096830 0.144286
C48   C     C_R   0.112704 0.033628 0.038837 0.153040
C49   C     C_R   0.591010 0.313966 0.059831 -0.132359
C50   C     C_R   0.411989 0.696609 0.993027 -0.158071
C51   C     C_R   0.593356 0.066190 0.314726 -0.157952
C52   C     C_R   0.409464 0.000122 0.697406 -0.168937
C53   C     C_R   0.409375 0.219216 0.980625 -0.138697
C54   C     C_R   0.595493 0.785676 0.072407 -0.136664
C55   C     C_R   0.802389 0.300382 0.209401 -0.129528
C56   C     C_R   0.250375 0.686959 0.777122 -0.121011
C57   C     C_R   0.214731 0.934073 0.026786 -0.126863
C58   C     C_R   0.804283 0.095455 0.005869 -0.121645
C59   C     C_R   0.169501 0.990588 0.993680 0.047997
C60   C     C_R   0.867473 0.067761 0.070351 0.044690
H1    H     H_    0.179360 0.049803 0.878857 0.111498
H2    H     H_    0.828798 0.979685 0.156480 0.095842
H3    H     H_    0.214845 0.372149 0.982402 0.136392
H4    H     H_    0.777472 0.644294 0.136451 0.131296
H5    H     H_    0.028787 0.215179 0.852792 0.130687
H6    H     H_    0.954862 0.813044 0.244548 0.128405
H7    H     H_    0.344037 0.494710 0.906501 0.132097
H8    H     H_    0.650200 0.521078 0.201891 0.134499
H9    H     H_    0.995650 0.482819 0.304166 0.104916
H10   H     H_    0.164109 0.472535 0.645900 0.109862
H11   H     H_    0.153582 0.644480 0.465046 0.107601
H12   H     H_    0.003907 0.311703 0.485920 0.117358
H13   H     H_    0.681597 0.184969 0.694691 0.106284
H14   H     H_    0.327196 0.023282 0.357875 0.107253
H15   H     H_    0.682305 0.182767 0.534537 0.111112
H16   H     H_    0.326092 0.024584 0.519257 0.110504
H17   H     H_    0.105611 0.951544 0.134032 0.101430
H18   H     H_    0.002973 0.191980 0.022380 0.103308
H19   H     H_    0.832757 0.180485 0.354120 0.104756
H20   H     H_    0.240064 0.799303 0.621662 0.096273
H21   H     H_    0.989704 0.003134 0.186019 0.108108
H22   H     H_    0.125446 0.144811 0.976235 0.133056
H23   H     H_    0.326791 0.930768 0.206898 0.084227
H24   H     H_    0.676956 0.150421 0.824473 0.081185
H25   H     H_    0.675170 0.379131 0.104025 0.096126
H26   H     H_    0.329939 0.642772 0.972017 0.094206
H27   H     H_    0.678695 0.121653 0.376963 0.099928
H28   H     H_    0.325295 0.972010 0.641532 0.084601
H29   H     H_    0.327670 0.197868 0.961742 0.114891
H30   H     H_    0.681606 0.812280 0.114243 0.116440
H31   H     H_    0.828349 0.350903 0.176137 0.079829
H32   H     H_    0.238729 0.624613 0.798914 0.091655
H33   H     H_    0.188660 0.884516 0.060643 0.079737
H34   H     H_    0.831320 0.152590 0.979441 0.081212
H35   H     H_    0.995005 0.058525 0.701537 0.147348
H36   H     H_    0.982142 0.976753 0.378991 0.142074
N1    N     N_R   0.293810 0.002730 0.945950 -0.034932
N2    N     N_R   0.706190 0.997270 0.054050 -0.038514
N3    N     N_R   0.706160 0.152130 0.208910 -0.034288
N4    N     N_R   0.293840 0.847870 0.791090 -0.039676
N5    N     N_R   0.443140 0.945920 0.152090 -0.039825
N6    N     N_R   0.556860 0.054080 0.847910 -0.037532
N7    N     N_R   0.556830 0.208940 0.002760 -0.041086
N8    N     N_R   0.443170 0.791060 0.997240 -0.037052
N9    N     N_R   0.556790 0.002750 0.208910 -0.040809
N10   N     N_R   0.443210 0.997250 0.791090 -0.037292
N11   N     N_R   0.443180 0.152110 0.945950 -0.046658
N12   N     N_R   0.556820 0.847890 0.054050 -0.040594
N13   N     N_R   0.706170 0.208950 0.152090 -0.034878
N14   N     N_R   0.293830 0.791050 0.847910 -0.040806
N15   N     N_R   0.293800 0.945910 0.002760 -0.034994
N16   N     N_R   0.706200 0.054090 0.997240 -0.038580
Ni1   Ni    Ni4+2 0.369690 0.999990 0.869700 0.207549
Ni2   Ni    Ni4+2 0.630310 0.000010 0.130300 0.209782
Ni3   Ni    Ni4+2 0.369670 0.869670 0.000000 0.213146
Ni4   Ni    Ni4+2 0.630330 0.130330 0.000000 0.206440
C61   C     C_3   0.146946 0.028470 0.646035 -0.409102
C62   C     C_3   0.041175 0.923042 0.597589 -0.916798
H37   H     H_    0.034971 0.908752 0.664185 0.258877
H38   H     H_    0.968050 0.925007 0.549233 0.272591
H39   H     H_    0.042164 0.854216 0.541569 0.258375
H40   H     H_    0.152953 0.038597 0.577607 0.196754
H41   H     H_    0.214634 0.016975 0.689066 0.190331
C63   C     C_3   0.834040 0.006824 0.441219 -0.380929
C64   C     C_3   0.942991 0.110153 0.493040 -0.972108
H42   H     H_    0.012877 0.104132 0.541115 0.282607
H43   H     H_    0.953598 0.124950 0.428317 0.251576
H44   H     H_    0.943807 0.180109 0.549571 0.259334
H45   H     H_    0.768370 0.020888 0.398552 0.184329
H46   H     H_    0.825529 0.995854 0.508497 0.199444
C65   C     C_3   0.352743 0.243391 0.761204 -0.385085
C66   C     C_3   0.327663 0.272547 0.670547 -0.886564
H47   H     H_    0.246049 0.208675 0.596708 0.248574
H48   H     H_    0.328602 0.350471 0.700798 0.261727
H49   H     H_    0.391141 0.281405 0.646407 0.260004
H50   H     H_    0.435841 0.308798 0.831395 0.207987
H51   H     H_    0.359060 0.169694 0.733340 0.187047
C67   C     C_3   0.625744 0.794897 0.326965 -0.395215
C68   C     C_3   0.629779 0.748229 0.403542 -0.873418
H52   H     H_    0.617518 0.665751 0.363665 0.264361
H53   H     H_    0.710301 0.801218 0.481641 0.251681
H54   H     H_    0.563606 0.742949 0.422953 0.252657
H55   H     H_    0.630845 0.873722 0.366090 0.188479
H56   H     H_    0.543727 0.742768 0.251097 0.202858

loop_
_geom_bond_atom_site_label_1
_geom_bond_atom_site_label_2
_ccdc_geom_bond_type
C23   N3    A    
N4    N14   A    
C9    C61   S    
C3    C23   A    
N8    N12   A    
N3    Ni2   S    
C32   H12   S    
C38   H16   S    
C50   N8    A    
C46   N6    A    
C7    C26   S    
C58   N16   A    
C35   C37   A    
C54   H30   S    
C44   H22   S    
C67   H55   S    
C1    C59   A    
C41   H17   S    
N1    N15   A    
C68   H54   S    
C2    C60   A    
N2    Ni2   S    
C58   C60   A    
N3    N13   A    
C11   C13   A    
N12   Ni2   S    
C62   H37   S    
N11   Ni1   S    
C55   H31   S    
N13   Ni4   S    
C47   C60   S    
C3    C55   A    
C24   H20   S    
C35   H13   S    
C10   C20   A    
C66   H47   S    
C64   H44   S    
C31   C33   A    
C13   C28   S    
N6    N10   A    
C14   C27   S    
C18   C20   A    
C31   H11   S    
C20   H36   S    
C52   N10   A    
C38   C40   A    
C57   H33   S    
C4    C56   A    
C29   C31   A    
C8    C25   S    
C41   C43   A    
C45   H23   S    
C42   C44   A    
C56   N14   A    
C30   H10   S    
C9    C19   A    
C29   H9    S    
N5    N9    A    
N2    N16   A    
N10   Ni1   S    
C49   H25   S    
N9    Ni2   S    
C52   H28   S    
C6    C40   S    
N6    Ni4   S    
C7    C49   A    
C65   H50   S    
C1    N1    A    
C45   N5    A    
C37   H15   S    
C3    C34   S    
C5    C45   A    
C29   C34   A    
C11   C65   S    
C62   H39   S    
C32   C34   A    
C61   H40   S    
C65   H51   S    
N8    Ni3   S    
C53   N11   A    
C51   N9    A    
C63   H46   S    
C9    C11   A    
C22   H8    S    
C10   C12   A    
C46   H24   S    
C16   C18   A    
C17   H5    S    
C21   C28   A    
C12   C14   A    
C42   H18   S    
C22   C27   A    
C13   C15   A    
C53   H29   S    
C64   H42   S    
N5    Ni3   S    
C14   C16   A    
C18   H6    S    
C7    C53   A    
C51   H27   S    
C65   C66   S    
C8    C50   A    
N16   Ni4   S    
C19   H35   S    
C43   H21   S    
C48   C59   S    
C15   C17   A    
C21   C25   A    
C4    C33   S    
C36   H14   S    
C6    C46   A    
C30   C33   A    
C24   N4    A    
C26   C28   A    
C36   C39   A    
N4    Ni1   S    
C1    H1    S    
C49   N7    A    
N7    N11   A    
C68   H52   S    
C21   H7    S    
C54   N12   A    
C25   C27   A    
C10   C63   S    
C8    C54   A    
C23   H19   S    
C5    C39   S    
C35   C40   A    
C58   H34   S    
C37   C39   A    
C67   H56   S    
C61   C62   S    
C30   C32   A    
C68   H53   S    
C57   N15   A    
C43   C47   A    
C66   H49   S    
C4    C24   A    
C36   C38   A    
C17   C19   A    
C41   C48   A    
C63   H45   S    
N7    Ni4   S    
C12   C67   S    
C42   C47   A    
C61   H41   S    
C62   H38   S    
C57   C59   A    
C67   C68   S    
C50   H26   S    
C44   C48   A    
C56   H32   S    
C2    N2    A    
C66   H48   S    
C22   C26   A    
C64   H43   S    
C15   H3    S    
C5    C51   A    
N15   Ni3   S    
C16   H4    S    
C6    C52   A    
N1    Ni1   S    
N14   Ni3   S    
C55   N13   A    
C2    H2    S    
C63   C64   S    
