data_mof_unit_35648.cif
_audit_creation_date              2012-10-26T20:48:31-0400
_audit_creation_method            fapswitch 2.2
_symmetry_space_group_name_H-M    P1
_symmetry_Int_Tables_number       1
_space_group_crystal_system       triclinic
_cell_length_a                    15.264093
_cell_length_b                    13.987996
_cell_length_c                    19.332892
_cell_angle_alpha                 90.106564
_cell_angle_beta                  91.935286
_cell_angle_gamma                 90.372322
_cell_volume                      4125.39396725

loop_
_atom_site_label
_atom_site_type_symbol
_atom_type_description
_atom_site_fract_x
_atom_site_fract_y
_atom_site_fract_z
_atom_type_partial_charge
C1    C     C_R   0.329982 0.499843 0.501968 0.553448
C2    C     C_R   0.571286 0.893796 0.529874 0.255305
C3    C     C_R   0.533455 0.210737 0.556829 0.311554
C4    C     C_R   0.432271 0.792644 0.469032 0.321177
C5    C     C_R   0.467500 0.207542 0.443986 0.325593
C6    C     C_R   0.567298 0.792762 0.532869 0.320322
C7    C     C_R   0.499735 0.055140 0.502777 -0.019298
C8    C     C_R   0.498743 0.946206 0.504074 -0.033117
C9    C     C_R   0.499596 0.499987 0.367683 0.534320
C10   C     C_R   0.498277 0.500047 0.632364 0.539391
C11   C     C_R   0.534268 0.574139 0.255096 -0.133267
C12   C     C_R   0.669833 0.500201 0.497305 0.561029
C13   C     C_R   0.507635 0.416159 0.745616 -0.132658
C14   C     C_R   0.467401 0.582849 0.742786 -0.137538
C15   C     C_R   0.449282 0.427740 0.256249 -0.125054
C16   C     C_R   0.530322 0.574146 0.182783 0.230625
C17   C     C_R   0.504708 0.415796 0.817706 0.222289
C18   C     C_R   0.457465 0.582199 0.814321 0.220412
C19   C     C_R   0.437934 0.430924 0.184397 0.227569
C20   C     C_R   0.480576 0.502967 0.146482 0.026151
C21   C     C_R   0.478577 0.499106 0.853119 0.028826
C22   C     C_R   0.495371 0.500100 0.291936 -0.077241
C23   C     C_R   0.233123 0.500771 0.505038 -0.105817
C24   C     C_R   0.492041 0.499997 0.708010 -0.081324
C25   C     C_R   0.475217 0.500263 0.929571 0.327562
C26   C     C_R   0.475155 0.502487 0.069979 0.326943
C27   C     C_R   0.097231 0.585725 0.481593 0.244091
C28   C     C_R   0.904293 0.426183 0.466687 0.259982
C29   C     C_R   0.903377 0.583887 0.518787 0.246335
C30   C     C_R   0.093298 0.422911 0.524042 0.251932
C31   C     C_R   0.187230 0.587909 0.496685 0.202630
C32   C     C_R   0.813933 0.418429 0.476178 0.197663
C33   C     C_R   0.813445 0.587233 0.504420 0.209008
C34   C     C_R   0.766378 0.501368 0.492800 -0.106475
C35   C     C_R   0.184036 0.416275 0.516406 0.201381
C36   C     C_3   0.655012 0.613780 0.126125 0.027544
C37   C     C_3   0.728259 0.648081 0.176211 -0.278343
C38   C     C_3   0.818543 0.624144 0.149704 -0.489333
C39   C     C_3   0.615468 0.327359 0.868049 0.024890
C40   C     C_3   0.660724 0.265262 0.814574 -0.273924
C41   C     C_3   0.755933 0.245795 0.836353 -0.487580
C42   C     C_3   0.335992 0.657335 0.850804 0.017848
C43   C     C_3   0.300061 0.755200 0.869966 -0.246825
C44   C     C_3   0.201315 0.750954 0.879836 -0.493034
C45   C     C_R   0.048243 0.504853 0.500175 -0.036131
C46   C     C_3   0.299410 0.395818 0.142390 0.026153
C47   C     C_3   0.244062 0.370089 0.204613 -0.278176
C48   C     C_3   0.147856 0.395408 0.191573 -0.494097
C49   C     C_3   0.073183 0.670005 0.381841 0.026942
C50   C     C_3   0.076936 0.774527 0.359236 -0.239824
C51   C     C_3   0.083177 0.783011 0.280884 -0.485082
C52   C     C_3   0.962273 0.383771 0.363633 -0.001087
C53   C     C_3   0.879215 0.377385 0.316715 -0.245169
C54   C     C_3   0.900083 0.394522 0.241131 -0.501489
C55   C     C_3   0.936578 0.649280 0.624109 0.022949
C56   C     C_R   0.951133 0.505189 0.495305 -0.032781
C57   C     C_3   0.943467 0.747060 0.659410 -0.247959
C58   C     C_3   0.955785 0.737305 0.737722 -0.491623
C59   C     C_3   0.037285 0.366902 0.624581 0.019464
C60   C     C_3   0.092400 0.298193 0.669288 -0.232883
C61   C     C_3   0.058126 0.195686 0.663622 -0.420010
C62   C     C_3   0.251414 0.699954 0.569046 0.060534
C63   C     C_3   0.172555 0.735634 0.608226 -0.281850
C64   C     C_3   0.201498 0.778516 0.678032 -0.515605
C65   C     C_3   0.760435 0.281349 0.523302 0.049110
C66   C     C_3   0.836982 0.214626 0.539656 -0.284227
C67   C     C_R   0.525451 0.109498 0.561592 0.187839
C68   C     C_3   0.824558 0.163650 0.608471 -0.510766
C69   C     C_3   0.754551 0.702171 0.433489 0.045746
C70   C     C_3   0.837517 0.728932 0.395069 -0.281568
C71   C     C_3   0.815908 0.790884 0.332047 -0.510637
C72   C     C_3   0.236222 0.282947 0.463147 0.043884
C73   C     C_3   0.154820 0.226525 0.438438 -0.280282
C74   C     C_3   0.169370 0.178184 0.368962 -0.506644
C75   C     C_3   0.470389 0.065993 0.664603 0.003140
C76   C     C_3   0.487176 0.003600 0.728358 -0.237754
C77   C     C_3   0.407550 0.000607 0.773979 -0.483997
C78   C     C_R   0.426306 0.892762 0.477193 0.258290
C79   C     C_3   0.304663 0.970863 0.513516 0.032152
C80   C     C_3   0.206019 0.964253 0.498626 -0.249263
C81   C     C_3   0.154990 0.003012 0.559083 -0.514757
C82   C     C_3   0.527870 0.029999 0.348254 0.010803
C83   C     C_3   0.504898 0.949834 0.296784 -0.239941
C84   C     C_3   0.586527 0.910805 0.263382 -0.491620
C85   C     C_3   0.709690 0.955847 0.514319 0.032207
C86   C     C_3   0.795547 0.917914 0.546711 -0.233923
C87   C     C_3   0.875281 0.941440 0.504032 -0.499870
C88   C     C_R   0.474296 0.105917 0.442263 0.184683
Cu1   Cu    Cu3+1 0.500000 0.596430 0.500000 0.943008
Cu2   Cu    Cu3+1 0.500000 0.403570 0.500000 1.056759
H1    H     H_    0.570028 0.630698 0.282359 0.133508
H2    H     H_    0.869842 0.646742 0.188573 0.141647
H3    H     H_    0.165665 0.957912 0.605608 0.147344
H4    H     H_    0.083847 0.003390 0.545062 0.143109
H5    H     H_    0.176805 0.076898 0.572101 0.155679
H6    H     H_    0.580296 0.003536 0.384857 0.103096
H7    H     H_    0.553797 0.092647 0.319825 0.146119
H8    H     H_    0.471920 0.890490 0.324129 0.198583
H9    H     H_    0.458853 0.977305 0.255835 0.180566
H10   H     H_    0.621099 0.968639 0.235738 0.152584
H11   H     H_    0.567338 0.853812 0.225663 0.184971
H12   H     H_    0.631585 0.879584 0.303457 0.130559
H13   H     H_    0.829710 0.662365 0.100439 0.148395
H14   H     H_    0.716024 0.033960 0.505564 0.130686
H15   H     H_    0.697586 0.922171 0.462507 0.078910
H16   H     H_    0.806046 0.947734 0.599666 0.165414
H17   H     H_    0.789861 0.839423 0.551766 0.251407
H18   H     H_    0.860078 0.932971 0.447922 0.145313
H19   H     H_    0.930084 0.893118 0.519192 0.169172
H20   H     H_    0.897817 0.015587 0.513880 0.140637
H21   H     H_    0.605833 0.218241 0.642025 0.321925
H22   H     H_    0.390674 0.692399 0.408220 0.363432
H23   H     H_    0.401724 0.210987 0.355507 0.333224
H24   H     H_    0.624128 0.293327 0.919690 0.171037
H25   H     H_    0.609523 0.691486 0.591673 0.369936
H26   H     H_    0.648264 0.398913 0.872351 0.112391
H27   H     H_    0.625077 0.196057 0.808366 0.179716
H28   H     H_    0.659882 0.302088 0.763777 0.153606
H29   H     H_    0.793028 0.314091 0.842157 0.141384
H30   H     H_    0.786912 0.201728 0.796180 0.146925
H31   H     H_    0.759346 0.206303 0.886154 0.150551
H32   H     H_    0.319613 0.605123 0.891876 0.146688
H33   H     H_    0.523568 0.350645 0.719280 0.178351
H34   H     H_    0.303440 0.634047 0.800999 0.105541
H35   H     H_    0.333167 0.780733 0.918729 0.192322
H36   H     H_    0.314067 0.807033 0.828188 0.162284
H37   H     H_    0.166627 0.725597 0.831762 0.139370
H38   H     H_    0.177136 0.823405 0.892452 0.148637
H39   H     H_    0.186096 0.701926 0.923003 0.148804
H40   H     H_    0.270203 0.360020 0.095650 0.166277
H41   H     H_    0.296277 0.474268 0.131960 0.116236
H42   H     H_    0.249355 0.292223 0.215162 0.176613
H43   H     H_    0.268577 0.409777 0.251198 0.146356
H44   H     H_    0.452620 0.647776 0.714323 0.148149
H45   H     H_    0.140989 0.473158 0.181300 0.145065
H46   H     H_    0.110364 0.377309 0.238042 0.133535
H47   H     H_    0.119890 0.354344 0.146733 0.148786
H48   H     H_    0.018711 0.632757 0.353078 0.103563
H49   H     H_    0.135972 0.635842 0.367270 0.133728
H50   H     H_    0.017668 0.812653 0.375878 0.159216
H51   H     H_    0.135275 0.809503 0.384394 0.201061
H52   H     H_    0.143589 0.747755 0.263399 0.159047
H53   H     H_    0.085606 0.859660 0.266199 0.150171
H54   H     H_    0.025077 0.749245 0.254429 0.133814
H55   H     H_    0.418121 0.370810 0.284316 0.176733
H56   H     H_    0.011796 0.334980 0.342466 0.136739
H57   H     H_    0.991338 0.456975 0.361878 0.096782
H58   H     H_    0.848792 0.305429 0.321733 0.201281
H59   H     H_    0.831267 0.431997 0.332555 0.158911
H60   H     H_    0.931319 0.465840 0.235038 0.141267
H61   H     H_    0.838512 0.391825 0.208911 0.148902
H62   H     H_    0.944811 0.338382 0.222610 0.146708
H63   H     H_    0.990613 0.602634 0.643616 0.103369
H64   H     H_    0.872942 0.616322 0.638787 0.126756
H65   H     H_    0.999193 0.788374 0.639065 0.168842
H66   H     H_    0.665831 0.645489 0.074430 0.173481
H67   H     H_    0.882648 0.787824 0.647765 0.171096
H68   H     H_    0.899309 0.698321 0.759322 0.152577
H69   H     H_    0.960200 0.809437 0.761706 0.145440
H70   H     H_    0.017170 0.698118 0.750873 0.137456
H71   H     H_    0.966881 0.357041 0.635760 0.123002
H72   H     H_    0.054312 0.441620 0.640968 0.069519
H73   H     H_    0.161641 0.300943 0.653478 0.205906
H74   H     H_    0.090868 0.321230 0.724287 0.099920
H75   H     H_    0.993637 0.189992 0.688167 0.130978
H76   H     H_    0.104590 0.146792 0.690979 0.126238
H77   H     H_    0.658595 0.534540 0.119336 0.115193
H78   H     H_    0.050968 0.173243 0.608596 0.189557
H79   H     H_    0.301395 0.757763 0.568149 0.166954
H80   H     H_    0.282433 0.639656 0.598213 0.116531
H81   H     H_    0.136502 0.789836 0.576946 0.196067
H82   H     H_    0.127628 0.674699 0.617337 0.164767
H83   H     H_    0.233196 0.722896 0.710867 0.144542
H84   H     H_    0.143806 0.806447 0.704813 0.149636
H85   H     H_    0.248728 0.838169 0.671086 0.137155
H86   H     H_    0.700896 0.236380 0.515356 0.175449
H87   H     H_    0.748867 0.328528 0.568779 0.142944
H88   H     H_    0.723425 0.726825 0.182522 0.172676
H89   H     H_    0.841141 0.161895 0.497048 0.169494
H90   H     H_    0.899247 0.255505 0.543141 0.233209
H91   H     H_    0.826615 0.216266 0.651622 0.139681
H92   H     H_    0.877893 0.111264 0.617639 0.143590
H93   H     H_    0.760665 0.125272 0.608224 0.184844
H94   H     H_    0.710323 0.764532 0.434527 0.159696
H95   H     H_    0.717768 0.645745 0.403671 0.119951
H96   H     H_    0.884270 0.767443 0.430391 0.221568
H97   H     H_    0.869403 0.662415 0.377557 0.144081
H98   H     H_    0.764993 0.755406 0.298761 0.141860
H99   H     H_    0.720600 0.613539 0.227383 0.149112
H100  H     H_    0.875521 0.802050 0.301712 0.152871
H101  H     H_    0.791033 0.861528 0.348311 0.136222
H102  H     H_    0.290505 0.231389 0.471043 0.175596
H103  H     H_    0.256354 0.333534 0.421893 0.143633
H104  H     H_    0.138217 0.172113 0.477434 0.181462
H105  H     H_    0.098529 0.275099 0.432237 0.221395
H106  H     H_    0.178773 0.232969 0.328328 0.140255
H107  H     H_    0.111188 0.133783 0.354009 0.151201
H108  H     H_    0.228056 0.131652 0.372252 0.180808
H109  H     H_    0.411562 0.037324 0.635631 0.105419
H110  H     H_    0.824168 0.546026 0.140879 0.145522
H111  H     H_    0.457288 0.140511 0.681703 0.147146
H112  H     H_    0.502515 0.929635 0.711641 0.191100
H113  H     H_    0.544484 0.032374 0.758917 0.172843
H114  H     H_    0.391400 0.073747 0.791816 0.164601
H115  H     H_    0.422181 0.955361 0.820010 0.162134
H116  H     H_    0.350052 0.969627 0.744914 0.132426
H117  H     H_    0.322677 0.047058 0.522633 0.124529
H118  H     H_    0.319834 0.929642 0.561864 0.089690
H119  H     H_    0.188579 0.005440 0.451257 0.169670
H120  H     H_    0.187210 0.888564 0.489020 0.200403
N1    N     N_R   0.465411 0.419111 0.034503 -0.190136
N2    N     N_R   0.484184 0.583669 0.965106 -0.191915
N3    N     N_R   0.465092 0.418087 0.965707 -0.189547
N4    N     N_R   0.483784 0.584813 0.033836 -0.196742
N5    N     N_R   0.500000 0.258690 0.500000 -0.211981
N6    N     N_R   0.500000 0.741310 0.500000 -0.320364
O1    O     O_R   0.371460 0.581430 0.500010 -0.473554
O2    O     O_3   0.524142 0.331996 0.852732 -0.550808
O3    O     O_3   0.427930 0.664413 0.845446 -0.546933
O4    O     O_3   0.386201 0.361601 0.151805 -0.546070
O5    O     O_3   0.057378 0.665962 0.453546 -0.511432
O6    O     O_3   0.945960 0.353727 0.432046 -0.533819
O7    O     O_3   0.943686 0.660905 0.551827 -0.511097
O8    O     O_3   0.048871 0.347573 0.553376 -0.528067
O9    O     O_3   0.228487 0.676243 0.499249 -0.485949
O10   O     O_3   0.772445 0.332364 0.461024 -0.538299
O11   O     O_3   0.773544 0.675427 0.503253 -0.503480
O12   O     O_R   0.628540 0.418570 0.499990 -0.457800
O13   O     O_3   0.223916 0.328781 0.527564 -0.545620
O14   O     O_3   0.545068 0.063932 0.623552 -0.540487
O15   O     O_3   0.349143 0.936680 0.455398 -0.489225
O16   O     O_3   0.451097 0.056588 0.382207 -0.547128
O17   O     O_3   0.642154 0.940506 0.561531 -0.493166
O18   O     O_3   0.576440 0.262186 0.608667 -0.703189
O19   O     O_3   0.366398 0.749420 0.429989 -0.620568
O20   O     O_3   0.428254 0.256452 0.389595 -0.697800
O21   O     O_3   0.633573 0.749162 0.570481 -0.636157
O22   O     O_R   0.628540 0.581430 0.499990 -0.470700
O23   O     O_R   0.371460 0.418570 0.500010 -0.461140
O24   O     O_R   0.499990 0.581460 0.400140 -0.547912
O25   O     O_R   0.500010 0.418540 0.599860 -0.436367
O26   O     O_R   0.500010 0.581460 0.599860 -0.549325
O27   O     O_R   0.499990 0.418540 0.400140 -0.431737
O28   O     O_3   0.572917 0.646556 0.148381 -0.555959

loop_
_geom_bond_atom_site_label_1
_geom_bond_atom_site_label_2
_ccdc_geom_bond_type
C55   H64   S    
C66   C68   S    
C68   H93   S    
C52   O6    S    
C4    N6    A    
C29   C33   A    
C25   N2    A    
C18   C21   A    
C84   H12   S    
C73   C74   S    
C14   C18   A    
C39   O2    S    
C40   H28   S    
C86   H17   S    
C10   O26   A    
C71   H98   S    
C15   H55   S    
C43   H35   S    
C28   C56   A    
C76   H113  S    
C42   H34   S    
C7    C8    S    
C44   H37   S    
C87   H20   S    
C2    C6    A    
C53   C54   S    
C1    O23   A    
C65   C66   S    
C15   C19   A    
C37   H88   S    
C57   H65   S    
C68   H92   S    
C62   C63   S    
C21   C25   S    
C48   H47   S    
C83   C84   S    
C85   O17   S    
Cu2   O12   S    
C36   C37   S    
Cu1   O1    S    
C58   H69   S    
C85   H15   S    
C3    O18   S    
C13   H33   S    
C50   H50   S    
C9    C22   S    
C12   O12   A    
C14   C24   A    
C79   H118  S    
C5    N5    A    
C38   H2    S    
C60   H73   S    
C29   O7    S    
C61   H76   S    
C41   H31   S    
C75   C76   S    
C30   C45   A    
C60   H74   S    
C5    C88   A    
C15   C22   A    
C87   H18   S    
C47   C48   S    
C67   O14   S    
C55   C57   S    
C5    O20   S    
C70   C71   S    
C64   H84   S    
C62   O9    S    
C61   H75   S    
C50   H51   S    
C27   C45   A    
C12   O22   A    
C40   H27   S    
C59   C60   S    
C41   H30   S    
C83   H9    S    
Cu2   O27   S    
C47   H43   S    
C8    C78   A    
C84   H11   S    
Cu1   O24   S    
C80   H120  S    
C86   H16   S    
C10   O25   A    
H21   O18   S    
C18   O3    S    
C69   O11   S    
C43   H36   S    
Cu2   N5    S    
C53   H59   S    
C33   C34   A    
C75   H111  S    
C62   H80   S    
C6    O21   S    
C74   H106  S    
C68   H91   S    
C27   O5    S    
C46   O4    S    
C72   O13   S    
C27   C31   A    
C36   O28   S    
C74   H108  S    
C28   C32   A    
C82   H6    S    
C76   C77   S    
C45   C56   S    
C54   H60   S    
C42   O3    S    
C58   H68   S    
Cu1   Cu2   S    
C72   H103  S    
H25   O21   S    
C86   C87   S    
C72   C73   S    
C30   O8    S    
C14   H44   S    
C10   C24   S    
C44   H39   S    
C85   C86   S    
C66   H90   S    
C83   H8    S    
C53   H58   S    
C17   C21   A    
C63   C64   S    
C13   C24   A    
C73   H104  S    
C60   C61   S    
C35   O13   S    
C84   H10   S    
C75   O14   S    
C43   C44   S    
C4    C78   A    
C37   C38   S    
C59   H71   S    
C77   H115  S    
C81   H3    S    
C11   C16   A    
C2    O17   S    
C63   H81   S    
C7    C88   A    
C74   H107  S    
C16   C20   A    
C39   H24   S    
C9    O24   A    
C50   C51   S    
C38   H13   S    
C48   H45   S    
C42   H32   S    
C41   H29   S    
C64   H85   S    
C79   O15   S    
C26   N1    A    
C85   H14   S    
C70   H97   S    
Cu1   N6    S    
C16   O28   S    
C40   C41   S    
N1    N3    A    
N2    N4    A    
C82   C83   S    
C52   H57   S    
C23   C35   A    
C37   H99   S    
C31   O9    S    
C65   H86   S    
C82   H7    S    
C38   H110  S    
C42   C43   S    
H23   O20   S    
C12   C34   S    
C9    O27   A    
C77   H114  S    
C69   H95   S    
C46   H41   S    
C52   C53   S    
C36   H66   S    
C55   O7    S    
C51   H52   S    
C55   H63   S    
C62   H79   S    
C82   O16   S    
C46   C47   S    
C44   H38   S    
C52   H56   S    
C49   O5    S    
C63   H82   S    
Cu1   O22   S    
C48   H46   S    
C3    C67   A    
C32   O10   S    
C80   C81   S    
C33   O11   S    
C46   H40   S    
C54   H62   S    
C73   H105  S    
C1    C23   S    
C54   H61   S    
C87   H19   S    
C29   C56   A    
C75   H109  S    
H22   O19   S    
C30   C35   A    
C66   H89   S    
C11   C22   A    
C57   H67   S    
C13   C17   A    
C47   H42   S    
C26   N4    A    
C61   H78   S    
C19   C20   A    
C49   H49   S    
C78   O15   S    
C20   C26   S    
C59   H72   S    
C58   H70   S    
C77   H116  S    
C81   H4    S    
C57   C58   S    
C65   H87   S    
C39   H26   S    
C81   H5    S    
C25   N3    A    
C4    O19   S    
C65   O10   S    
C76   H112  S    
C36   H77   S    
C71   H100  S    
C69   C70   S    
C88   O16   S    
C59   O8    S    
C70   H96   S    
C69   H94   S    
C7    C67   A    
C79   C80   S    
C39   C40   S    
C11   H1    S    
C6    N6    A    
C28   O6    S    
C49   C50   S    
C51   H53   S    
Cu2   O25   S    
C2    C8    A    
C51   H54   S    
Cu1   O26   S    
C1    O1    A    
C19   O4    S    
C79   H117  S    
C71   H101  S    
C64   H83   S    
C49   H48   S    
C3    N5    A    
C72   H102  S    
C17   O2    S    
C32   C34   A    
C80   H119  S    
C23   C31   A    
Cu2   O23   S    
