data_mof_unit_46021.cif
_audit_creation_date              2012-12-11T17:43:35-0500
_audit_creation_method            fapswitch 2.2
_symmetry_space_group_name_H-M    P1
_symmetry_Int_Tables_number       1
_space_group_crystal_system       triclinic
_cell_length_a                    15.070918
_cell_length_b                    15.168467
_cell_length_c                    16.96755
_cell_angle_alpha                 108.877669
_cell_angle_beta                  106.722775
_cell_angle_gamma                 108.685327
_cell_volume                      3127.76967709

loop_
_atom_site_label
_atom_site_type_symbol
_atom_type_description
_atom_site_fract_x
_atom_site_fract_y
_atom_site_fract_z
_atom_type_partial_charge
C1    C     C_R   0.091810 0.277885 0.036002 -0.139184
C2    C     C_R   0.067899 0.050700 0.933456 -0.247426
C3    C     C_R   0.994304 0.890424 0.942462 0.066408
C4    C     C_R   0.002235 0.081562 0.966362 0.069031
C5    C     C_R   0.065318 0.954378 0.921537 0.019778
C6    C     C_R   0.932290 0.016854 0.987499 0.009578
C7    C     C_R   0.771196 0.029087 0.990919 -0.186030
C8    C     C_R   0.243314 0.992207 0.929293 -0.170890
C9    C     C_R   0.767818 0.115184 0.136782 -0.098623
C10   C     C_R   0.272744 0.860658 0.829175 -0.099075
C11   C     C_R   0.487524 0.640376 0.350466 0.271121
C12   C     C_R   0.912089 0.709452 0.921220 -0.176681
C13   C     C_R   0.563639 0.527418 0.747203 0.272206
C14   C     C_R   0.500538 0.641148 0.271885 -0.310958
C15   C     C_R   0.551562 0.512763 0.821950 -0.311375
C16   C     C_R   0.935260 0.449746 0.735152 -0.129585
C17   C     C_R   0.064925 0.486459 0.256135 -0.144258
C18   C     C_R   0.514208 0.561298 0.214250 0.049501
C19   C     C_R   0.582140 0.598831 0.905673 0.032595
C20   C     C_R   0.514455 0.478499 0.235439 0.205984
C21   C     C_R   0.621274 0.700651 0.913705 0.192520
C22   C     C_R   0.504044 0.479125 0.315073 -0.267457
C23   C     C_R   0.027131 0.463335 0.726106 0.055837
C24   C     C_R   0.634135 0.715452 0.839651 -0.272600
C25   C     C_R   0.491005 0.558991 0.372102 -0.146338
C26   C     C_R   0.604910 0.629879 0.756998 -0.156477
C27   C     C_R   0.621237 0.567777 0.127633 -0.207821
C28   C     C_R   0.478210 0.576776 0.987976 -0.225301
C29   C     C_R   0.638641 0.571468 0.051843 0.046277
C30   C     C_R   0.457853 0.568497 0.060723 0.040167
C31   C     C_R   0.568684 0.582746 0.983981 0.086323
C32   C     C_R   0.530757 0.566795 0.133514 0.069880
C33   C     C_R   0.718662 0.063100 0.040116 -0.113951
C34   C     C_R   0.973838 0.431301 0.259651 0.076430
C35   C     C_R   0.310938 0.961189 0.899913 -0.103354
C36   C     C_R   0.965032 0.396336 0.329086 0.136552
C37   C     C_R   0.035086 0.418561 0.639425 0.127765
C38   C     C_R   0.138789 0.436293 0.554646 -0.221730
C39   C     C_R   0.859292 0.327760 0.399054 -0.242033
C40   C     C_R   0.720967 0.215763 0.823087 -0.142960
C41   C     C_R   0.222823 0.796392 0.187407 -0.134873
C42   C     C_R   0.132554 0.448046 0.637372 -0.179344
C43   C     C_R   0.867136 0.350235 0.327794 -0.195537
C44   C     C_R   0.944141 0.361478 0.556219 -0.273942
C45   C     C_R   0.664683 0.217554 0.743883 0.070773
C46   C     C_R   0.054585 0.414333 0.400205 -0.300659
C47   C     C_R   0.949789 0.358076 0.475400 0.192813
C48   C     C_R   0.048070 0.399445 0.475335 0.185025
C49   C     C_R   0.556138 0.143544 0.676851 0.130545
C50   C     C_R   0.279208 0.897859 0.360020 0.134300
C51   C     C_R   0.383171 0.086034 0.444016 -0.227637
C52   C     C_R   0.409628 0.971893 0.607495 -0.228389
C53   C     C_R   0.314277 0.996234 0.361125 -0.173836
C54   C     C_R   0.502474 0.052292 0.682020 -0.165135
C55   C     C_R   0.298316 0.892515 0.443840 -0.285644
C56   C     C_R   0.238802 0.802330 0.274077 0.054264
C57   C     C_R   0.509094 0.158591 0.601460 -0.304744
C58   C     C_R   0.372076 0.981037 0.526477 0.190693
C59   C     C_R   0.419001 0.077119 0.525305 0.197906
C60   C     C_R   0.870654 0.136045 0.184328 -0.093169
C61   C     C_R   0.166715 0.791137 0.787246 -0.109285
C62   C     C_R   0.925005 0.106504 0.135294 -0.144776
C63   C     C_R   0.098733 0.821939 0.816119 -0.130754
C64   C     C_R   0.299994 0.591747 0.003518 -0.150719
C65   C     C_R   0.741680 0.468314 0.050730 -0.125296
C66   C     C_R   0.875565 0.052856 0.038257 0.129086
C67   C     C_R   0.355182 0.552846 0.050077 0.070491
C68   C     C_R   0.136570 0.922567 0.888119 0.116836
C69   C     C_R   0.725986 0.309731 0.746224 -0.147301
C70   C     C_R   0.216907 0.702193 0.265218 -0.128961
C71   C     C_R   0.291855 0.491533 0.075252 -0.137166
C72   C     C_R   0.760492 0.570615 0.980992 -0.113603
C73   C     C_R   0.109216 0.535092 0.812624 -0.132875
C74   C     C_R   0.892019 0.402661 0.178284 -0.135365
C75   C     C_R   0.917870 0.194638 0.952497 -0.097628
C76   C     C_R   0.084575 0.795775 0.000146 -0.122918
C77   C     C_R   0.005774 0.180796 0.978099 0.051781
C78   C     C_R   0.718110 0.545324 0.036385 0.049744
C79   C     C_R   0.998030 0.800310 0.950138 0.057890
C80   C     C_3   0.422911 0.705707 0.464542 -0.973195
C81   C     C_3   0.590817 0.447752 0.610313 -0.992999
C82   C     C_3   0.431929 0.316981 0.094008 -0.964828
C83   C     C_3   0.569065 0.822033 0.993876 -0.906341
C84   C     C_R   0.927001 0.920492 0.972437 -0.241655
H1    H     H_    0.171531 0.294232 0.072167 0.102600
H2    H     H_    0.665273 0.793456 0.845563 0.140135
H3    H     H_    0.676774 0.562374 0.180713 0.129072
H4    H     H_    0.420871 0.574323 0.930184 0.125289
H5    H     H_    0.130433 0.448036 0.401701 0.122313
H6    H     H_    0.868200 0.332522 0.555388 0.118470
H7    H     H_    0.796496 0.335083 0.274011 0.114008
H8    H     H_    0.204239 0.487400 0.700019 0.119850
H9    H     H_    0.214722 0.466183 0.555130 0.133213
H10   H     H_    0.783452 0.296007 0.398426 0.128653
H11   H     H_    0.856292 0.399928 0.682574 0.097219
H12   H     H_    0.833674 0.683717 0.872095 0.118790
H13   H     H_    0.143489 0.507841 0.301325 0.087651
H14   H     H_    0.639009 0.046923 0.003398 0.103230
H15   H     H_    0.393120 0.014944 0.932392 0.101920
H16   H     H_    0.547568 0.228648 0.596533 0.125985
H17   H     H_    0.266472 0.818161 0.444640 0.123546
H18   H     H_    0.534719 0.039389 0.740481 0.110858
H19   H     H_    0.296175 0.003955 0.298056 0.115882
H20   H     H_    0.416357 0.160190 0.442856 0.127524
H21   H     H_    0.372959 0.899355 0.610146 0.127274
H22   H     H_    0.725821 0.138451 0.174721 0.102445
H23   H     H_    0.731238 0.985778 0.916127 0.100742
H24   H     H_    0.325304 0.836663 0.806839 0.101337
H25   H     H_    0.908312 0.174783 0.259193 0.129747
H26   H     H_    0.137165 0.713293 0.732385 0.118999
H27   H     H_    0.004869 0.123615 0.172814 0.112595
H28   H     H_    0.016714 0.767201 0.782549 0.113845
H29   H     H_    0.691814 0.164368 0.851092 0.085668
H30   H     H_    0.232594 0.858955 0.168551 0.093237
H31   H     H_    0.330086 0.652769 0.984680 0.093447
H32   H     H_    0.718575 0.429143 0.089769 0.104288
H33   H     H_    0.701886 0.344796 0.703482 0.102268
H34   H     H_    0.274505 0.069800 0.985204 0.116332
H35   H     H_    0.221351 0.677668 0.318494 0.107920
H36   H     H_    0.311891 0.455964 0.118848 0.116585
H37   H     H_    0.764286 0.632137 0.962142 0.110872
H38   H     H_    0.191427 0.564249 0.831364 0.094618
H39   H     H_    0.811991 0.345600 0.150734 0.091110
H40   H     H_    0.838491 0.135473 0.908088 0.099180
H41   H     H_    0.164994 0.850209 0.024822 0.100818
H42   H     H_    0.876329 0.872397 0.992278 0.127544
H43   H     H_    0.120573 0.101611 0.917098 0.138247
H44   H     H_    0.458437 0.770450 0.379102 0.173744
H45   H     H_    0.483718 0.556159 0.432861 0.133100
H46   H     H_    0.412582 0.775083 0.498585 0.254887
H47   H     H_    0.470621 0.694558 0.520318 0.255338
H48   H     H_    0.345110 0.636424 0.421161 0.242182
H49   H     H_    0.504146 0.367446 0.663487 0.167486
H50   H     H_    0.562184 0.370104 0.551644 0.244309
H51   H     H_    0.674197 0.476535 0.655512 0.251488
H52   H     H_    0.582154 0.501168 0.580263 0.257609
H53   H     H_    0.560321 0.361355 0.212180 0.159479
H54   H     H_    0.448424 0.256322 0.052449 0.248831
H55   H     H_    0.404390 0.352919 0.050964 0.264637
H56   H     H_    0.613536 0.644479 0.700722 0.134076
H57   H     H_    0.369574 0.278733 0.111718 0.244107
H58   H     H_    0.720465 0.849432 0.019692 0.177125
H59   H     H_    0.594480 0.887090 0.062429 0.252381
H60   H     H_    0.495292 0.757425 0.977831 0.245169
H61   H     H_    0.554464 0.849394 0.940300 0.238555
H62   H     H_    0.500657 0.704677 0.255681 0.135157
H63   H     H_    0.519232 0.434458 0.815484 0.137766
H64   H     H_    0.505175 0.416766 0.332610 0.133111
N1    N     N_R   0.055660 0.348550 0.045620 -0.040445
N2    N     N_R   0.185200 0.638170 0.176300 -0.040524
N3    N     N_R   0.201680 0.494570 0.045620 -0.039323
N4    N     N_R   0.798320 0.505430 0.954380 -0.042073
N5    N     N_R   0.068420 0.560530 0.871650 -0.038149
N6    N     N_R   0.931580 0.439470 0.128350 -0.038910
N7    N     N_R   0.948070 0.295860 0.997670 -0.041617
N8    N     N_R   0.051930 0.704140 0.002330 -0.039258
N9    N     N_2   0.475540 0.724190 0.408005 -0.104449
N10   N     N_2   0.529783 0.438392 0.662086 -0.108367
N11   N     N_2   0.525662 0.394882 0.177495 -0.115194
N12   N     N_R   0.944340 0.651450 0.954380 -0.038426
N13   N     N_2   0.648906 0.788134 0.996803 -0.108266
N14   N     N_R   0.960830 0.507850 0.823700 -0.041225
N15   N     N_R   0.039170 0.492150 0.176300 -0.039367
N16   N     N_R   0.811290 0.303410 0.871650 -0.039061
N17   N     N_R   0.188710 0.696590 0.128350 -0.040520
N18   N     N_R   0.205200 0.552990 0.997670 -0.038219
N19   N     N_R   0.794800 0.447010 0.002330 -0.043102
N20   N     N_R   0.814800 0.361830 0.823700 -0.038746
Ni1   Ni    Ni4+2 0.119340 0.493420 0.109960 0.216875
Ni2   Ni    Ni4+2 0.880660 0.506580 0.890040 0.212451
Ni3   Ni    Ni4+2 0.872590 0.372590 0.000000 0.216726
Ni4   Ni    Ni4+2 0.127410 0.627410 0.000000 0.215906

loop_
_geom_bond_atom_site_label_1
_geom_bond_atom_site_label_2
_ccdc_geom_bond_type
C30   C32   A    
N18   Ni4   S    
C80   H48   S    
C72   H37   S    
C27   C29   A    
C1    C77   A    
C14   C18   A    
C10   H24   S    
C70   N2    A    
C76   C79   A    
C41   H30   S    
C19   C31   S    
H58   N13   S    
C8    H34   S    
C81   H50   S    
C41   C56   A    
C46   H5    S    
C15   C19   A    
C71   H36   S    
N1    Ni1   S    
C19   C21   A    
C24   C26   A    
C55   H17   S    
H49   N10   S    
C26   H56   S    
C82   H57   S    
C83   H60   S    
C11   C14   A    
C57   C59   A    
N2    Ni1   S    
C11   C25   A    
C49   C54   A    
C12   C79   A    
C63   H28   S    
C49   C57   A    
C74   N6    A    
C60   C62   A    
C33   H14   S    
C37   C42   A    
C61   C63   A    
C15   H63   S    
C72   C78   A    
C60   H25   S    
C17   N15   A    
C83   H61   S    
C71   N3    A    
C29   C78   S    
C40   H29   S    
C72   N4    A    
C22   C25   A    
C41   N17   A    
C28   H4    S    
C67   C71   A    
C64   N18   A    
C36   C46   A    
C10   C35   A    
C65   C78   A    
C38   C48   A    
C30   C67   S    
C44   C47   A    
C2    H43   S    
N17   Ni4   S    
N20   Ni2   S    
C74   H39   S    
C83   N13   S    
C25   H45   S    
C80   H47   S    
C1    H1    S    
C76   H41   S    
C7    C33   A    
C23   C73   A    
C5    C68   S    
C35   H15   S    
C61   H26   S    
C52   C54   A    
H44   N9    S    
C81   H51   S    
C84   H42   S    
C40   C45   A    
C46   C48   A    
C50   C53   A    
C6    C84   A    
C62   C66   A    
C45   C69   A    
C75   H40   S    
C64   C67   A    
N6    N15   A    
N8    N12   A    
C21   N13   S    
C4    C6    A    
H53   N11   S    
N19   Ni3   S    
C16   N14   A    
C51   H20   S    
C23   C37   S    
C57   H16   S    
C20   N11   S    
C50   C56   S    
C51   C53   A    
C8    C35   A    
C2    C4    A    
C39   H10   S    
C82   H55   S    
C75   N7    A    
N4    Ni2   S    
C47   C48   A    
N14   Ni2   S    
C45   C49   S    
C70   H35   S    
C21   C24   A    
C62   H27   S    
C27   H3    S    
C75   C77   A    
C3    C79   S    
C52   C58   A    
C9    C33   A    
N16   N20   A    
C80   H46   S    
C34   C74   A    
C52   H21   S    
C8    C68   A    
C16   C23   A    
C56   C70   A    
C13   C15   A    
C65   H32   S    
C7    H23   S    
C13   C26   A    
C58   C59   A    
C10   C61   A    
C18   C32   S    
C17   C34   A    
C20   C22   A    
C3    C5    A    
C13   N10   S    
N4    N19   A    
C44   H6    S    
C11   N9    S    
C81   H52   S    
C39   C47   A    
C14   H62   S    
C63   C68   A    
C16   H11   S    
C81   N10   S    
C42   H8    S    
C76   N8    A    
C27   C32   A    
C54   H18   S    
C28   C31   A    
C22   H64   S    
C1    N1    A    
C12   N12   A    
C39   C43   A    
C38   C42   A    
N3    N18   A    
C65   N19   A    
C50   C55   A    
N3    Ni1   S    
N5    N14   A    
C9    C60   A    
C37   C44   A    
C28   C30   A    
C9    H22   S    
C69   N20   A    
C4    C77   S    
C82   H54   S    
C7    C66   A    
C83   H59   S    
C82   N11   S    
N2    N17   A    
N5    Ni4   S    
C80   N9    S    
C24   H2    S    
C53   H19   S    
C38   H9    S    
C69   H33   S    
C34   C36   S    
N8    Ni4   S    
N6    Ni3   S    
C18   C20   A    
N1    N7    A    
N15   Ni1   S    
C43   H7    S    
C2    C5    A    
N7    Ni3   S    
C6    C66   S    
C51   C59   A    
C29   C31   A    
C73   H38   S    
C55   C58   A    
C73   N5    A    
C3    C84   A    
C64   H31   S    
N12   Ni2   S    
C12   H12   S    
C36   C43   A    
C40   N16   A    
N16   Ni3   S    
C17   H13   S    
